data_str_m1_o10_o18_pcu_sym.230
_audit_creation_date              2020-01-03
_audit_creation_method            'Materials Studio'
_symmetry_space_group_name_H-M    'P1'
_symmetry_Int_Tables_number       1
_symmetry_cell_setting            triclinic
loop_
_symmetry_equiv_pos_as_xyz
  x,y,z
_cell_length_a                    32.7133
_cell_length_b                    32.4928
_cell_length_c                    35.8422
_cell_angle_alpha                 98.1689
_cell_angle_beta                  73.3050
_cell_angle_gamma                 98.7591
loop_
_atom_site_label
_atom_site_type_symbol
_atom_site_fract_x
_atom_site_fract_y
_atom_site_fract_z
_atom_site_U_iso_or_equiv
_atom_site_adp_type
_atom_site_occupancy
C1     C     0.05287   0.16005   0.25803   0.00000  Uiso   1.00
C2     C     0.20637   0.13936   0.45986   0.00000  Uiso   1.00
C3     C     0.22693   0.11995   0.48009   0.00000  Uiso   1.00
C4     C     0.28089   0.17327   0.24135   0.00000  Uiso   1.00
C5     C     0.21648   0.12577   0.02072   0.00000  Uiso   1.00
C6     C     0.18487   0.15223   0.04192   0.00000  Uiso   1.00
C7     C     0.23788   0.10561   0.04036   0.00000  Uiso   1.00
C8     C     0.22844   0.11145   0.08096   0.00000  Uiso   1.00
C9     C     0.17520   0.15664   0.08311   0.00000  Uiso   1.00
C10    C     0.32629   0.17682   0.23994   0.00000  Uiso   1.00
C11    C     0.00762   0.15474   0.26161   0.00000  Uiso   1.00
C12    C     0.10926   0.22592   0.41967   0.00000  Uiso   1.00
C13    C     0.18103   0.32222   0.23827   0.00000  Uiso   1.00
C14    C     0.15162   0.01198   0.26183   0.00000  Uiso   1.00
C15    C     0.15599   0.05610   0.25879   0.00000  Uiso   1.00
C16    C     0.17689   0.27762   0.24137   0.00000  Uiso   1.00
C17    C     0.18838   0.14499   0.14425   0.00000  Uiso   1.00
C18    C     0.14556   0.18773   0.35601   0.00000  Uiso   1.00
C19    C     0.13728   0.19691   0.39867   0.00000  Uiso   1.00
C20    C     0.19707   0.13686   0.10212   0.00000  Uiso   1.00
C21    C     0.10197   0.23411   0.46006   0.00000  Uiso   1.00
C22    C     0.31631   0.11827   0.28211   0.00000  Uiso   1.00
C23    C     0.15805   0.17645   0.41843   0.00000  Uiso   1.00
C24    C     0.15228   0.18506   0.45910   0.00000  Uiso   1.00
C25    C     0.12303   0.21385   0.47991   0.00000  Uiso   1.00
C26    C     0.17425   0.16558   0.47963   0.00000  Uiso   1.00
C27    C     0.16431   0.17321   0.02126   0.00000  Uiso   1.00
C28    C     0.13477   0.20208   0.04073   0.00000  Uiso   1.00
C29    C     0.11490   0.22216   0.02032   0.00000  Uiso   1.00
H30    H     0.09270   0.24424   0.03644   0.00000  Uiso   1.00
H31    H     0.09279   0.24209   0.40496   0.00000  Uiso   1.00
H32    H     0.17799   0.15335   0.40131   0.00000  Uiso   1.00
H33    H     0.12667   0.21072   0.07185   0.00000  Uiso   1.00
H34    H     0.21742   0.13373   0.42849   0.00000  Uiso   1.00
H35    H     0.27892   0.06304   0.27956   0.00000  Uiso   1.00
H36    H     0.26222   0.08564   0.02425   0.00000  Uiso   1.00
H37    H     0.01501   0.19946   0.22193   0.00000  Uiso   1.00
H38    H     0.20823   0.00304   0.21667   0.00000  Uiso   1.00
H39    H     0.12395   0.33190   0.28339   0.00000  Uiso   1.00
H40    H     0.15104   0.17528   0.10152   0.00000  Uiso   1.00
H41    H     0.24561   0.09634   0.09588   0.00000  Uiso   1.00
H42    H     0.25141   0.10023   0.46369   0.00000  Uiso   1.00
H43    H     0.07981   0.25635   0.47584   0.00000  Uiso   1.00
O44    O     0.16667   0.16667   0.25000   0.00000  Uiso   1.00
O45    O     0.15693   0.12393   0.16625   0.00000  Uiso   1.00
O46    O     0.12687   0.20646   0.33749   0.00000  Uiso   1.00
O47    O     0.21088   0.17493   0.15877   0.00000  Uiso   1.00
O48    O     0.17198   0.16135   0.33749   0.00000  Uiso   1.00
O49    O     0.31765   0.11519   0.31533   0.00000  Uiso   1.00
O50    O     0.29387   0.08635   0.26264   0.00000  Uiso   1.00
O51    O     0.17849   0.08101   0.27821   0.00000  Uiso   1.00
O52    O     0.14581   0.26136   0.26767   0.00000  Uiso   1.00
O53    O     0.07452   0.13251   0.23607   0.00000  Uiso   1.00
O54    O     0.26785   0.19179   0.21806   0.00000  Uiso   1.00
O55    O     0.06990   0.18960   0.27820   0.00000  Uiso   1.00
O56    O     0.25440   0.15277   0.26768   0.00000  Uiso   1.00
O57    O     0.13800   0.06903   0.23607   0.00000  Uiso   1.00
O58    O     0.20437   0.25527   0.21806   0.00000  Uiso   1.00
Zn59   Zn    0.19244   0.14090   0.28278   0.00000  Uiso   1.00
Zn60   Zn    0.13459   0.12378   0.22258   0.00000  Uiso   1.00
Zn61   Zn    0.21166   0.19664   0.21188   0.00000  Uiso   1.00
Zn62   Zn    0.12798   0.20535   0.28277   0.00000  Uiso   1.00
C63    C     0.38621   0.16005   0.25803   0.00000  Uiso   1.00
C64    C     0.53970   0.13936   0.45986   0.00000  Uiso   1.00
C65    C     0.56027   0.11995   0.48009   0.00000  Uiso   1.00
C66    C     0.61423   0.17327   0.24135   0.00000  Uiso   1.00
C67    C     0.54982   0.12577   0.02072   0.00000  Uiso   1.00
C68    C     0.51821   0.15223   0.04192   0.00000  Uiso   1.00
C69    C     0.57122   0.10561   0.04036   0.00000  Uiso   1.00
C70    C     0.56177   0.11145   0.08096   0.00000  Uiso   1.00
C71    C     0.50854   0.15664   0.08311   0.00000  Uiso   1.00
C72    C     0.65963   0.17682   0.23994   0.00000  Uiso   1.00
C73    C     0.34096   0.15474   0.26161   0.00000  Uiso   1.00
C74    C     0.44259   0.22592   0.41967   0.00000  Uiso   1.00
C75    C     0.51436   0.32222   0.23827   0.00000  Uiso   1.00
C76    C     0.48496   0.01198   0.26183   0.00000  Uiso   1.00
C77    C     0.48932   0.05610   0.25879   0.00000  Uiso   1.00
C78    C     0.51022   0.27762   0.24137   0.00000  Uiso   1.00
C79    C     0.52172   0.14499   0.14425   0.00000  Uiso   1.00
C80    C     0.47889   0.18773   0.35601   0.00000  Uiso   1.00
C81    C     0.47061   0.19691   0.39867   0.00000  Uiso   1.00
C82    C     0.53041   0.13686   0.10212   0.00000  Uiso   1.00
C83    C     0.43530   0.23411   0.46006   0.00000  Uiso   1.00
C84    C     0.64964   0.11827   0.28211   0.00000  Uiso   1.00
C85    C     0.49138   0.17645   0.41843   0.00000  Uiso   1.00
C86    C     0.48562   0.18506   0.45910   0.00000  Uiso   1.00
C87    C     0.45636   0.21385   0.47991   0.00000  Uiso   1.00
C88    C     0.50758   0.16558   0.47963   0.00000  Uiso   1.00
C89    C     0.49765   0.17321   0.02126   0.00000  Uiso   1.00
C90    C     0.46810   0.20208   0.04073   0.00000  Uiso   1.00
C91    C     0.44823   0.22216   0.02032   0.00000  Uiso   1.00
H92    H     0.42603   0.24424   0.03644   0.00000  Uiso   1.00
H93    H     0.42613   0.24209   0.40496   0.00000  Uiso   1.00
H94    H     0.51132   0.15335   0.40131   0.00000  Uiso   1.00
H95    H     0.46000   0.21072   0.07185   0.00000  Uiso   1.00
H96    H     0.55075   0.13373   0.42849   0.00000  Uiso   1.00
H97    H     0.61225   0.06304   0.27956   0.00000  Uiso   1.00
H98    H     0.59556   0.08564   0.02425   0.00000  Uiso   1.00
H99    H     0.34834   0.19946   0.22193   0.00000  Uiso   1.00
H100   H     0.54156   0.00304   0.21667   0.00000  Uiso   1.00
H101   H     0.45728   0.33190   0.28339   0.00000  Uiso   1.00
H102   H     0.48438   0.17528   0.10152   0.00000  Uiso   1.00
H103   H     0.57895   0.09634   0.09588   0.00000  Uiso   1.00
H104   H     0.58474   0.10023   0.46369   0.00000  Uiso   1.00
H105   H     0.41314   0.25635   0.47584   0.00000  Uiso   1.00
O106   O     0.50000   0.16667   0.25000   0.00000  Uiso   1.00
O107   O     0.49027   0.12393   0.16625   0.00000  Uiso   1.00
O108   O     0.46020   0.20646   0.33749   0.00000  Uiso   1.00
O109   O     0.54421   0.17493   0.15877   0.00000  Uiso   1.00
O110   O     0.50532   0.16135   0.33749   0.00000  Uiso   1.00
O111   O     0.65098   0.11519   0.31533   0.00000  Uiso   1.00
O112   O     0.62721   0.08635   0.26264   0.00000  Uiso   1.00
O113   O     0.51182   0.08101   0.27821   0.00000  Uiso   1.00
O114   O     0.47914   0.26136   0.26767   0.00000  Uiso   1.00
O115   O     0.40785   0.13251   0.23607   0.00000  Uiso   1.00
O116   O     0.60119   0.19179   0.21806   0.00000  Uiso   1.00
O117   O     0.40323   0.18960   0.27820   0.00000  Uiso   1.00
O118   O     0.58773   0.15277   0.26768   0.00000  Uiso   1.00
O119   O     0.47133   0.06903   0.23607   0.00000  Uiso   1.00
O120   O     0.53771   0.25527   0.21806   0.00000  Uiso   1.00
Zn121  Zn    0.52577   0.14090   0.28278   0.00000  Uiso   1.00
Zn122  Zn    0.46792   0.12378   0.22258   0.00000  Uiso   1.00
Zn123  Zn    0.54500   0.19664   0.21188   0.00000  Uiso   1.00
Zn124  Zn    0.46131   0.20535   0.28277   0.00000  Uiso   1.00
C125   C     0.71954   0.16005   0.25803   0.00000  Uiso   1.00
C126   C     0.87303   0.13936   0.45986   0.00000  Uiso   1.00
C127   C     0.89360   0.11995   0.48009   0.00000  Uiso   1.00
C128   C     0.94756   0.17327   0.24135   0.00000  Uiso   1.00
C129   C     0.88315   0.12577   0.02072   0.00000  Uiso   1.00
C130   C     0.85154   0.15223   0.04192   0.00000  Uiso   1.00
C131   C     0.90455   0.10561   0.04036   0.00000  Uiso   1.00
C132   C     0.89511   0.11145   0.08096   0.00000  Uiso   1.00
C133   C     0.84187   0.15664   0.08311   0.00000  Uiso   1.00
C134   C     0.99296   0.17682   0.23994   0.00000  Uiso   1.00
C135   C     0.67429   0.15474   0.26161   0.00000  Uiso   1.00
C136   C     0.77593   0.22592   0.41967   0.00000  Uiso   1.00
C137   C     0.84769   0.32222   0.23827   0.00000  Uiso   1.00
C138   C     0.81829   0.01198   0.26183   0.00000  Uiso   1.00
C139   C     0.82265   0.05610   0.25879   0.00000  Uiso   1.00
C140   C     0.84355   0.27762   0.24137   0.00000  Uiso   1.00
C141   C     0.85505   0.14499   0.14425   0.00000  Uiso   1.00
C142   C     0.81222   0.18773   0.35601   0.00000  Uiso   1.00
C143   C     0.80395   0.19691   0.39867   0.00000  Uiso   1.00
C144   C     0.86374   0.13686   0.10212   0.00000  Uiso   1.00
C145   C     0.76863   0.23411   0.46006   0.00000  Uiso   1.00
C146   C     0.98297   0.11827   0.28211   0.00000  Uiso   1.00
C147   C     0.82471   0.17645   0.41843   0.00000  Uiso   1.00
C148   C     0.81895   0.18506   0.45910   0.00000  Uiso   1.00
C149   C     0.78969   0.21385   0.47991   0.00000  Uiso   1.00
C150   C     0.84091   0.16558   0.47963   0.00000  Uiso   1.00
C151   C     0.83098   0.17321   0.02126   0.00000  Uiso   1.00
C152   C     0.80143   0.20208   0.04073   0.00000  Uiso   1.00
C153   C     0.78157   0.22216   0.02032   0.00000  Uiso   1.00
H154   H     0.75937   0.24424   0.03644   0.00000  Uiso   1.00
H155   H     0.75946   0.24209   0.40496   0.00000  Uiso   1.00
H156   H     0.84465   0.15335   0.40131   0.00000  Uiso   1.00
H157   H     0.79334   0.21072   0.07185   0.00000  Uiso   1.00
H158   H     0.88409   0.13373   0.42849   0.00000  Uiso   1.00
H159   H     0.94559   0.06304   0.27956   0.00000  Uiso   1.00
H160   H     0.92889   0.08564   0.02425   0.00000  Uiso   1.00
H161   H     0.68167   0.19946   0.22193   0.00000  Uiso   1.00
H162   H     0.87490   0.00304   0.21667   0.00000  Uiso   1.00
H163   H     0.79062   0.33190   0.28339   0.00000  Uiso   1.00
H164   H     0.81771   0.17528   0.10152   0.00000  Uiso   1.00
H165   H     0.91228   0.09634   0.09588   0.00000  Uiso   1.00
H166   H     0.91807   0.10023   0.46369   0.00000  Uiso   1.00
H167   H     0.74648   0.25635   0.47584   0.00000  Uiso   1.00
O168   O     0.83333   0.16667   0.25000   0.00000  Uiso   1.00
O169   O     0.82360   0.12393   0.16625   0.00000  Uiso   1.00
O170   O     0.79354   0.20646   0.33749   0.00000  Uiso   1.00
O171   O     0.87755   0.17493   0.15877   0.00000  Uiso   1.00
O172   O     0.83865   0.16135   0.33749   0.00000  Uiso   1.00
O173   O     0.98431   0.11519   0.31533   0.00000  Uiso   1.00
O174   O     0.96054   0.08635   0.26264   0.00000  Uiso   1.00
O175   O     0.84515   0.08101   0.27821   0.00000  Uiso   1.00
O176   O     0.81247   0.26136   0.26767   0.00000  Uiso   1.00
O177   O     0.74119   0.13251   0.23607   0.00000  Uiso   1.00
O178   O     0.93452   0.19179   0.21806   0.00000  Uiso   1.00
O179   O     0.73656   0.18960   0.27820   0.00000  Uiso   1.00
O180   O     0.92106   0.15277   0.26768   0.00000  Uiso   1.00
O181   O     0.80467   0.06903   0.23607   0.00000  Uiso   1.00
O182   O     0.87104   0.25527   0.21806   0.00000  Uiso   1.00
Zn183  Zn    0.85910   0.14090   0.28278   0.00000  Uiso   1.00
Zn184  Zn    0.80125   0.12378   0.22258   0.00000  Uiso   1.00
Zn185  Zn    0.87833   0.19664   0.21188   0.00000  Uiso   1.00
Zn186  Zn    0.79465   0.20535   0.28277   0.00000  Uiso   1.00
C187   C     0.05287   0.49338   0.25803   0.00000  Uiso   1.00
C188   C     0.20637   0.47269   0.45986   0.00000  Uiso   1.00
C189   C     0.22693   0.45328   0.48009   0.00000  Uiso   1.00
C190   C     0.28089   0.50660   0.24135   0.00000  Uiso   1.00
C191   C     0.21648   0.45911   0.02072   0.00000  Uiso   1.00
C192   C     0.18487   0.48557   0.04192   0.00000  Uiso   1.00
C193   C     0.23788   0.43894   0.04036   0.00000  Uiso   1.00
C194   C     0.22844   0.44479   0.08096   0.00000  Uiso   1.00
C195   C     0.17520   0.48998   0.08311   0.00000  Uiso   1.00
C196   C     0.32629   0.51016   0.23994   0.00000  Uiso   1.00
C197   C     0.00762   0.48807   0.26161   0.00000  Uiso   1.00
C198   C     0.10926   0.55925   0.41967   0.00000  Uiso   1.00
C199   C     0.18103   0.65555   0.23827   0.00000  Uiso   1.00
C200   C     0.15162   0.34531   0.26183   0.00000  Uiso   1.00
C201   C     0.15599   0.38943   0.25879   0.00000  Uiso   1.00
C202   C     0.17689   0.61095   0.24137   0.00000  Uiso   1.00
C203   C     0.18838   0.47832   0.14425   0.00000  Uiso   1.00
C204   C     0.14556   0.52106   0.35601   0.00000  Uiso   1.00
C205   C     0.13728   0.53024   0.39867   0.00000  Uiso   1.00
C206   C     0.19707   0.47019   0.10212   0.00000  Uiso   1.00
C207   C     0.10197   0.56744   0.46006   0.00000  Uiso   1.00
C208   C     0.31631   0.45160   0.28211   0.00000  Uiso   1.00
C209   C     0.15805   0.50978   0.41843   0.00000  Uiso   1.00
C210   C     0.15228   0.51840   0.45910   0.00000  Uiso   1.00
C211   C     0.12303   0.54718   0.47991   0.00000  Uiso   1.00
C212   C     0.17425   0.49891   0.47963   0.00000  Uiso   1.00
C213   C     0.16431   0.50654   0.02126   0.00000  Uiso   1.00
C214   C     0.13477   0.53542   0.04073   0.00000  Uiso   1.00
C215   C     0.11490   0.55549   0.02032   0.00000  Uiso   1.00
H216   H     0.09270   0.57757   0.03644   0.00000  Uiso   1.00
H217   H     0.09279   0.57543   0.40496   0.00000  Uiso   1.00
H218   H     0.17799   0.48668   0.40131   0.00000  Uiso   1.00
H219   H     0.12667   0.54405   0.07185   0.00000  Uiso   1.00
H220   H     0.21742   0.46707   0.42849   0.00000  Uiso   1.00
H221   H     0.27892   0.39637   0.27956   0.00000  Uiso   1.00
H222   H     0.26222   0.41898   0.02425   0.00000  Uiso   1.00
H223   H     0.01501   0.53279   0.22193   0.00000  Uiso   1.00
H224   H     0.20823   0.33637   0.21667   0.00000  Uiso   1.00
H225   H     0.12395   0.66523   0.28339   0.00000  Uiso   1.00
H226   H     0.15104   0.50861   0.10152   0.00000  Uiso   1.00
H227   H     0.24561   0.42967   0.09588   0.00000  Uiso   1.00
H228   H     0.25141   0.43356   0.46369   0.00000  Uiso   1.00
H229   H     0.07981   0.58968   0.47584   0.00000  Uiso   1.00
O230   O     0.16667   0.50000   0.25000   0.00000  Uiso   1.00
O231   O     0.15693   0.45726   0.16625   0.00000  Uiso   1.00
O232   O     0.12687   0.53979   0.33749   0.00000  Uiso   1.00
O233   O     0.21088   0.50826   0.15877   0.00000  Uiso   1.00
O234   O     0.17198   0.49468   0.33749   0.00000  Uiso   1.00
O235   O     0.31765   0.44853   0.31533   0.00000  Uiso   1.00
O236   O     0.29387   0.41968   0.26264   0.00000  Uiso   1.00
O237   O     0.17849   0.41434   0.27821   0.00000  Uiso   1.00
O238   O     0.14581   0.59469   0.26767   0.00000  Uiso   1.00
O239   O     0.07452   0.46584   0.23607   0.00000  Uiso   1.00
O240   O     0.26785   0.52512   0.21806   0.00000  Uiso   1.00
O241   O     0.06990   0.52293   0.27820   0.00000  Uiso   1.00
O242   O     0.25440   0.48610   0.26768   0.00000  Uiso   1.00
O243   O     0.13800   0.40236   0.23607   0.00000  Uiso   1.00
O244   O     0.20437   0.58860   0.21806   0.00000  Uiso   1.00
Zn245  Zn    0.19244   0.47423   0.28278   0.00000  Uiso   1.00
Zn246  Zn    0.13459   0.45711   0.22258   0.00000  Uiso   1.00
Zn247  Zn    0.21166   0.52997   0.21188   0.00000  Uiso   1.00
Zn248  Zn    0.12798   0.53868   0.28277   0.00000  Uiso   1.00
C249   C     0.38621   0.49338   0.25803   0.00000  Uiso   1.00
C250   C     0.53970   0.47269   0.45986   0.00000  Uiso   1.00
C251   C     0.56027   0.45328   0.48009   0.00000  Uiso   1.00
C252   C     0.61423   0.50660   0.24135   0.00000  Uiso   1.00
C253   C     0.54982   0.45911   0.02072   0.00000  Uiso   1.00
C254   C     0.51821   0.48557   0.04192   0.00000  Uiso   1.00
C255   C     0.57122   0.43894   0.04036   0.00000  Uiso   1.00
C256   C     0.56177   0.44479   0.08096   0.00000  Uiso   1.00
C257   C     0.50854   0.48998   0.08311   0.00000  Uiso   1.00
C258   C     0.65963   0.51016   0.23994   0.00000  Uiso   1.00
C259   C     0.34096   0.48807   0.26161   0.00000  Uiso   1.00
C260   C     0.44259   0.55925   0.41967   0.00000  Uiso   1.00
C261   C     0.51436   0.65555   0.23827   0.00000  Uiso   1.00
C262   C     0.48496   0.34531   0.26183   0.00000  Uiso   1.00
C263   C     0.48932   0.38943   0.25879   0.00000  Uiso   1.00
C264   C     0.51022   0.61095   0.24137   0.00000  Uiso   1.00
C265   C     0.52172   0.47832   0.14425   0.00000  Uiso   1.00
C266   C     0.47889   0.52106   0.35601   0.00000  Uiso   1.00
C267   C     0.47061   0.53024   0.39867   0.00000  Uiso   1.00
C268   C     0.53041   0.47019   0.10212   0.00000  Uiso   1.00
C269   C     0.43530   0.56744   0.46006   0.00000  Uiso   1.00
C270   C     0.64964   0.45160   0.28211   0.00000  Uiso   1.00
C271   C     0.49138   0.50978   0.41843   0.00000  Uiso   1.00
C272   C     0.48562   0.51840   0.45910   0.00000  Uiso   1.00
C273   C     0.45636   0.54718   0.47991   0.00000  Uiso   1.00
C274   C     0.50758   0.49891   0.47963   0.00000  Uiso   1.00
C275   C     0.49765   0.50654   0.02126   0.00000  Uiso   1.00
C276   C     0.46810   0.53542   0.04073   0.00000  Uiso   1.00
C277   C     0.44823   0.55549   0.02032   0.00000  Uiso   1.00
H278   H     0.42603   0.57757   0.03644   0.00000  Uiso   1.00
H279   H     0.42613   0.57543   0.40496   0.00000  Uiso   1.00
H280   H     0.51132   0.48668   0.40131   0.00000  Uiso   1.00
H281   H     0.46000   0.54405   0.07185   0.00000  Uiso   1.00
H282   H     0.55075   0.46707   0.42849   0.00000  Uiso   1.00
H283   H     0.61225   0.39637   0.27956   0.00000  Uiso   1.00
H284   H     0.59556   0.41898   0.02425   0.00000  Uiso   1.00
H285   H     0.34834   0.53279   0.22193   0.00000  Uiso   1.00
H286   H     0.54156   0.33637   0.21667   0.00000  Uiso   1.00
H287   H     0.45728   0.66523   0.28339   0.00000  Uiso   1.00
H288   H     0.48438   0.50861   0.10152   0.00000  Uiso   1.00
H289   H     0.57895   0.42967   0.09588   0.00000  Uiso   1.00
H290   H     0.58474   0.43356   0.46369   0.00000  Uiso   1.00
H291   H     0.41314   0.58968   0.47584   0.00000  Uiso   1.00
O292   O     0.50000   0.50000   0.25000   0.00000  Uiso   1.00
O293   O     0.49027   0.45726   0.16625   0.00000  Uiso   1.00
O294   O     0.46020   0.53979   0.33749   0.00000  Uiso   1.00
O295   O     0.54421   0.50826   0.15877   0.00000  Uiso   1.00
O296   O     0.50532   0.49468   0.33749   0.00000  Uiso   1.00
O297   O     0.65098   0.44853   0.31533   0.00000  Uiso   1.00
O298   O     0.62721   0.41968   0.26264   0.00000  Uiso   1.00
O299   O     0.51182   0.41434   0.27821   0.00000  Uiso   1.00
O300   O     0.47914   0.59469   0.26767   0.00000  Uiso   1.00
O301   O     0.40785   0.46584   0.23607   0.00000  Uiso   1.00
O302   O     0.60119   0.52512   0.21806   0.00000  Uiso   1.00
O303   O     0.40323   0.52293   0.27820   0.00000  Uiso   1.00
O304   O     0.58773   0.48610   0.26768   0.00000  Uiso   1.00
O305   O     0.47133   0.40236   0.23607   0.00000  Uiso   1.00
O306   O     0.53771   0.58860   0.21806   0.00000  Uiso   1.00
Zn307  Zn    0.52577   0.47423   0.28278   0.00000  Uiso   1.00
Zn308  Zn    0.46792   0.45711   0.22258   0.00000  Uiso   1.00
Zn309  Zn    0.54500   0.52997   0.21188   0.00000  Uiso   1.00
Zn310  Zn    0.46131   0.53868   0.28277   0.00000  Uiso   1.00
C311   C     0.71954   0.49338   0.25803   0.00000  Uiso   1.00
C312   C     0.87303   0.47269   0.45986   0.00000  Uiso   1.00
C313   C     0.89360   0.45328   0.48009   0.00000  Uiso   1.00
C314   C     0.94756   0.50660   0.24135   0.00000  Uiso   1.00
C315   C     0.88315   0.45911   0.02072   0.00000  Uiso   1.00
C316   C     0.85154   0.48557   0.04192   0.00000  Uiso   1.00
C317   C     0.90455   0.43894   0.04036   0.00000  Uiso   1.00
C318   C     0.89511   0.44479   0.08096   0.00000  Uiso   1.00
C319   C     0.84187   0.48998   0.08311   0.00000  Uiso   1.00
C320   C     0.99296   0.51016   0.23994   0.00000  Uiso   1.00
C321   C     0.67429   0.48807   0.26161   0.00000  Uiso   1.00
C322   C     0.77593   0.55925   0.41967   0.00000  Uiso   1.00
C323   C     0.84769   0.65555   0.23827   0.00000  Uiso   1.00
C324   C     0.81829   0.34531   0.26183   0.00000  Uiso   1.00
C325   C     0.82265   0.38943   0.25879   0.00000  Uiso   1.00
C326   C     0.84355   0.61095   0.24137   0.00000  Uiso   1.00
C327   C     0.85505   0.47832   0.14425   0.00000  Uiso   1.00
C328   C     0.81222   0.52106   0.35601   0.00000  Uiso   1.00
C329   C     0.80395   0.53024   0.39867   0.00000  Uiso   1.00
C330   C     0.86374   0.47019   0.10212   0.00000  Uiso   1.00
C331   C     0.76863   0.56744   0.46006   0.00000  Uiso   1.00
C332   C     0.98297   0.45160   0.28211   0.00000  Uiso   1.00
C333   C     0.82471   0.50978   0.41843   0.00000  Uiso   1.00
C334   C     0.81895   0.51840   0.45910   0.00000  Uiso   1.00
C335   C     0.78969   0.54718   0.47991   0.00000  Uiso   1.00
C336   C     0.84091   0.49891   0.47963   0.00000  Uiso   1.00
C337   C     0.83098   0.50654   0.02126   0.00000  Uiso   1.00
C338   C     0.80143   0.53542   0.04073   0.00000  Uiso   1.00
C339   C     0.78157   0.55549   0.02032   0.00000  Uiso   1.00
H340   H     0.75937   0.57757   0.03644   0.00000  Uiso   1.00
H341   H     0.75946   0.57543   0.40496   0.00000  Uiso   1.00
H342   H     0.84465   0.48668   0.40131   0.00000  Uiso   1.00
H343   H     0.79334   0.54405   0.07185   0.00000  Uiso   1.00
H344   H     0.88409   0.46707   0.42849   0.00000  Uiso   1.00
H345   H     0.94559   0.39637   0.27956   0.00000  Uiso   1.00
H346   H     0.92889   0.41898   0.02425   0.00000  Uiso   1.00
H347   H     0.68167   0.53279   0.22193   0.00000  Uiso   1.00
H348   H     0.87490   0.33637   0.21667   0.00000  Uiso   1.00
H349   H     0.79062   0.66523   0.28339   0.00000  Uiso   1.00
H350   H     0.81771   0.50861   0.10152   0.00000  Uiso   1.00
H351   H     0.91228   0.42967   0.09588   0.00000  Uiso   1.00
H352   H     0.91807   0.43356   0.46369   0.00000  Uiso   1.00
H353   H     0.74648   0.58968   0.47584   0.00000  Uiso   1.00
O354   O     0.83333   0.50000   0.25000   0.00000  Uiso   1.00
O355   O     0.82360   0.45726   0.16625   0.00000  Uiso   1.00
O356   O     0.79354   0.53979   0.33749   0.00000  Uiso   1.00
O357   O     0.87755   0.50826   0.15877   0.00000  Uiso   1.00
O358   O     0.83865   0.49468   0.33749   0.00000  Uiso   1.00
O359   O     0.98431   0.44853   0.31533   0.00000  Uiso   1.00
O360   O     0.96054   0.41968   0.26264   0.00000  Uiso   1.00
O361   O     0.84515   0.41434   0.27821   0.00000  Uiso   1.00
O362   O     0.81247   0.59469   0.26767   0.00000  Uiso   1.00
O363   O     0.74119   0.46584   0.23607   0.00000  Uiso   1.00
O364   O     0.93452   0.52512   0.21806   0.00000  Uiso   1.00
O365   O     0.73656   0.52293   0.27820   0.00000  Uiso   1.00
O366   O     0.92106   0.48610   0.26768   0.00000  Uiso   1.00
O367   O     0.80467   0.40236   0.23607   0.00000  Uiso   1.00
O368   O     0.87104   0.58860   0.21806   0.00000  Uiso   1.00
Zn369  Zn    0.85910   0.47423   0.28278   0.00000  Uiso   1.00
Zn370  Zn    0.80125   0.45711   0.22258   0.00000  Uiso   1.00
Zn371  Zn    0.87833   0.52997   0.21188   0.00000  Uiso   1.00
Zn372  Zn    0.79465   0.53868   0.28277   0.00000  Uiso   1.00
C373   C     0.05287   0.82672   0.25803   0.00000  Uiso   1.00
C374   C     0.20637   0.80602   0.45986   0.00000  Uiso   1.00
C375   C     0.22693   0.78662   0.48009   0.00000  Uiso   1.00
C376   C     0.28089   0.83994   0.24135   0.00000  Uiso   1.00
C377   C     0.21648   0.79244   0.02072   0.00000  Uiso   1.00
C378   C     0.18487   0.81890   0.04192   0.00000  Uiso   1.00
C379   C     0.23788   0.77227   0.04036   0.00000  Uiso   1.00
C380   C     0.22844   0.77812   0.08096   0.00000  Uiso   1.00
C381   C     0.17520   0.82331   0.08311   0.00000  Uiso   1.00
C382   C     0.32629   0.84349   0.23994   0.00000  Uiso   1.00
C383   C     0.00762   0.82140   0.26161   0.00000  Uiso   1.00
C384   C     0.10926   0.89259   0.41967   0.00000  Uiso   1.00
C385   C     0.18103   0.98888   0.23827   0.00000  Uiso   1.00
C386   C     0.15162   0.67864   0.26183   0.00000  Uiso   1.00
C387   C     0.15599   0.72276   0.25879   0.00000  Uiso   1.00
C388   C     0.17689   0.94428   0.24137   0.00000  Uiso   1.00
C389   C     0.18838   0.81165   0.14425   0.00000  Uiso   1.00
C390   C     0.14556   0.85440   0.35601   0.00000  Uiso   1.00
C391   C     0.13728   0.86358   0.39867   0.00000  Uiso   1.00
C392   C     0.19707   0.80353   0.10212   0.00000  Uiso   1.00
C393   C     0.10197   0.90078   0.46006   0.00000  Uiso   1.00
C394   C     0.31631   0.78494   0.28211   0.00000  Uiso   1.00
C395   C     0.15805   0.84312   0.41843   0.00000  Uiso   1.00
C396   C     0.15228   0.85173   0.45910   0.00000  Uiso   1.00
C397   C     0.12303   0.88052   0.47991   0.00000  Uiso   1.00
C398   C     0.17425   0.83224   0.47963   0.00000  Uiso   1.00
C399   C     0.16431   0.83987   0.02126   0.00000  Uiso   1.00
C400   C     0.13477   0.86875   0.04073   0.00000  Uiso   1.00
C401   C     0.11490   0.88882   0.02032   0.00000  Uiso   1.00
H402   H     0.09270   0.91091   0.03644   0.00000  Uiso   1.00
H403   H     0.09279   0.90876   0.40496   0.00000  Uiso   1.00
H404   H     0.17799   0.82001   0.40131   0.00000  Uiso   1.00
H405   H     0.12667   0.87738   0.07185   0.00000  Uiso   1.00
H406   H     0.21742   0.80040   0.42849   0.00000  Uiso   1.00
H407   H     0.27892   0.72970   0.27956   0.00000  Uiso   1.00
H408   H     0.26222   0.75231   0.02425   0.00000  Uiso   1.00
H409   H     0.01501   0.86612   0.22193   0.00000  Uiso   1.00
H410   H     0.20823   0.66971   0.21667   0.00000  Uiso   1.00
H411   H     0.12395   0.99856   0.28339   0.00000  Uiso   1.00
H412   H     0.15104   0.84194   0.10152   0.00000  Uiso   1.00
H413   H     0.24561   0.76300   0.09588   0.00000  Uiso   1.00
H414   H     0.25141   0.76690   0.46369   0.00000  Uiso   1.00
H415   H     0.07981   0.92302   0.47584   0.00000  Uiso   1.00
O416   O     0.16667   0.83333   0.25000   0.00000  Uiso   1.00
O417   O     0.15693   0.79060   0.16625   0.00000  Uiso   1.00
O418   O     0.12687   0.87313   0.33749   0.00000  Uiso   1.00
O419   O     0.21088   0.84159   0.15877   0.00000  Uiso   1.00
O420   O     0.17198   0.82802   0.33749   0.00000  Uiso   1.00
O421   O     0.31765   0.78186   0.31533   0.00000  Uiso   1.00
O422   O     0.29387   0.75302   0.26264   0.00000  Uiso   1.00
O423   O     0.17849   0.74768   0.27821   0.00000  Uiso   1.00
O424   O     0.14581   0.92803   0.26767   0.00000  Uiso   1.00
O425   O     0.07452   0.79917   0.23607   0.00000  Uiso   1.00
O426   O     0.26785   0.85845   0.21806   0.00000  Uiso   1.00
O427   O     0.06990   0.85627   0.27820   0.00000  Uiso   1.00
O428   O     0.25440   0.81944   0.26768   0.00000  Uiso   1.00
O429   O     0.13800   0.73570   0.23607   0.00000  Uiso   1.00
O430   O     0.20437   0.92193   0.21806   0.00000  Uiso   1.00
Zn431  Zn    0.19244   0.80756   0.28278   0.00000  Uiso   1.00
Zn432  Zn    0.13459   0.79044   0.22258   0.00000  Uiso   1.00
Zn433  Zn    0.21166   0.86331   0.21188   0.00000  Uiso   1.00
Zn434  Zn    0.12798   0.87202   0.28277   0.00000  Uiso   1.00
C435   C     0.38621   0.82672   0.25803   0.00000  Uiso   1.00
C436   C     0.53970   0.80602   0.45986   0.00000  Uiso   1.00
C437   C     0.56027   0.78662   0.48009   0.00000  Uiso   1.00
C438   C     0.61423   0.83994   0.24135   0.00000  Uiso   1.00
C439   C     0.54982   0.79244   0.02072   0.00000  Uiso   1.00
C440   C     0.51821   0.81890   0.04192   0.00000  Uiso   1.00
C441   C     0.57122   0.77227   0.04036   0.00000  Uiso   1.00
C442   C     0.56177   0.77812   0.08096   0.00000  Uiso   1.00
C443   C     0.50854   0.82331   0.08311   0.00000  Uiso   1.00
C444   C     0.65963   0.84349   0.23994   0.00000  Uiso   1.00
C445   C     0.34096   0.82140   0.26161   0.00000  Uiso   1.00
C446   C     0.44259   0.89259   0.41967   0.00000  Uiso   1.00
C447   C     0.51436   0.98888   0.23827   0.00000  Uiso   1.00
C448   C     0.48496   0.67864   0.26183   0.00000  Uiso   1.00
C449   C     0.48932   0.72276   0.25879   0.00000  Uiso   1.00
C450   C     0.51022   0.94428   0.24137   0.00000  Uiso   1.00
C451   C     0.52172   0.81165   0.14425   0.00000  Uiso   1.00
C452   C     0.47889   0.85440   0.35601   0.00000  Uiso   1.00
C453   C     0.47061   0.86358   0.39867   0.00000  Uiso   1.00
C454   C     0.53041   0.80353   0.10212   0.00000  Uiso   1.00
C455   C     0.43530   0.90078   0.46006   0.00000  Uiso   1.00
C456   C     0.64964   0.78494   0.28211   0.00000  Uiso   1.00
C457   C     0.49138   0.84312   0.41843   0.00000  Uiso   1.00
C458   C     0.48562   0.85173   0.45910   0.00000  Uiso   1.00
C459   C     0.45636   0.88052   0.47991   0.00000  Uiso   1.00
C460   C     0.50758   0.83224   0.47963   0.00000  Uiso   1.00
C461   C     0.49765   0.83987   0.02126   0.00000  Uiso   1.00
C462   C     0.46810   0.86875   0.04073   0.00000  Uiso   1.00
C463   C     0.44823   0.88882   0.02032   0.00000  Uiso   1.00
H464   H     0.42603   0.91091   0.03644   0.00000  Uiso   1.00
H465   H     0.42613   0.90876   0.40496   0.00000  Uiso   1.00
H466   H     0.51132   0.82001   0.40131   0.00000  Uiso   1.00
H467   H     0.46000   0.87738   0.07185   0.00000  Uiso   1.00
H468   H     0.55075   0.80040   0.42849   0.00000  Uiso   1.00
H469   H     0.61225   0.72970   0.27956   0.00000  Uiso   1.00
H470   H     0.59556   0.75231   0.02425   0.00000  Uiso   1.00
H471   H     0.34834   0.86612   0.22193   0.00000  Uiso   1.00
H472   H     0.54156   0.66971   0.21667   0.00000  Uiso   1.00
H473   H     0.45728   0.99856   0.28339   0.00000  Uiso   1.00
H474   H     0.48438   0.84194   0.10152   0.00000  Uiso   1.00
H475   H     0.57895   0.76300   0.09588   0.00000  Uiso   1.00
H476   H     0.58474   0.76690   0.46369   0.00000  Uiso   1.00
H477   H     0.41314   0.92302   0.47584   0.00000  Uiso   1.00
O478   O     0.50000   0.83333   0.25000   0.00000  Uiso   1.00
O479   O     0.49027   0.79060   0.16625   0.00000  Uiso   1.00
O480   O     0.46020   0.87313   0.33749   0.00000  Uiso   1.00
O481   O     0.54421   0.84159   0.15877   0.00000  Uiso   1.00
O482   O     0.50532   0.82802   0.33749   0.00000  Uiso   1.00
O483   O     0.65098   0.78186   0.31533   0.00000  Uiso   1.00
O484   O     0.62721   0.75302   0.26264   0.00000  Uiso   1.00
O485   O     0.51182   0.74768   0.27821   0.00000  Uiso   1.00
O486   O     0.47914   0.92803   0.26767   0.00000  Uiso   1.00
O487   O     0.40785   0.79917   0.23607   0.00000  Uiso   1.00
O488   O     0.60119   0.85845   0.21806   0.00000  Uiso   1.00
O489   O     0.40323   0.85627   0.27820   0.00000  Uiso   1.00
O490   O     0.58773   0.81944   0.26768   0.00000  Uiso   1.00
O491   O     0.47133   0.73570   0.23607   0.00000  Uiso   1.00
O492   O     0.53771   0.92193   0.21806   0.00000  Uiso   1.00
Zn493  Zn    0.52577   0.80756   0.28278   0.00000  Uiso   1.00
Zn494  Zn    0.46792   0.79044   0.22258   0.00000  Uiso   1.00
Zn495  Zn    0.54500   0.86331   0.21188   0.00000  Uiso   1.00
Zn496  Zn    0.46131   0.87202   0.28277   0.00000  Uiso   1.00
C497   C     0.71954   0.82672   0.25803   0.00000  Uiso   1.00
C498   C     0.87303   0.80602   0.45986   0.00000  Uiso   1.00
C499   C     0.89360   0.78662   0.48009   0.00000  Uiso   1.00
C500   C     0.94756   0.83994   0.24135   0.00000  Uiso   1.00
C501   C     0.88315   0.79244   0.02072   0.00000  Uiso   1.00
C502   C     0.85154   0.81890   0.04192   0.00000  Uiso   1.00
C503   C     0.90455   0.77227   0.04036   0.00000  Uiso   1.00
C504   C     0.89511   0.77812   0.08096   0.00000  Uiso   1.00
C505   C     0.84187   0.82331   0.08311   0.00000  Uiso   1.00
C506   C     0.99296   0.84349   0.23994   0.00000  Uiso   1.00
C507   C     0.67429   0.82140   0.26161   0.00000  Uiso   1.00
C508   C     0.77593   0.89259   0.41967   0.00000  Uiso   1.00
C509   C     0.84769   0.98888   0.23827   0.00000  Uiso   1.00
C510   C     0.81829   0.67864   0.26183   0.00000  Uiso   1.00
C511   C     0.82265   0.72276   0.25879   0.00000  Uiso   1.00
C512   C     0.84355   0.94428   0.24137   0.00000  Uiso   1.00
C513   C     0.85505   0.81165   0.14425   0.00000  Uiso   1.00
C514   C     0.81222   0.85440   0.35601   0.00000  Uiso   1.00
C515   C     0.80395   0.86358   0.39867   0.00000  Uiso   1.00
C516   C     0.86374   0.80353   0.10212   0.00000  Uiso   1.00
C517   C     0.76863   0.90078   0.46006   0.00000  Uiso   1.00
C518   C     0.98297   0.78494   0.28211   0.00000  Uiso   1.00
C519   C     0.82471   0.84312   0.41843   0.00000  Uiso   1.00
C520   C     0.81895   0.85173   0.45910   0.00000  Uiso   1.00
C521   C     0.78969   0.88052   0.47991   0.00000  Uiso   1.00
C522   C     0.84091   0.83224   0.47963   0.00000  Uiso   1.00
C523   C     0.83098   0.83987   0.02126   0.00000  Uiso   1.00
C524   C     0.80143   0.86875   0.04073   0.00000  Uiso   1.00
C525   C     0.78157   0.88882   0.02032   0.00000  Uiso   1.00
H526   H     0.75937   0.91091   0.03644   0.00000  Uiso   1.00
H527   H     0.75946   0.90876   0.40496   0.00000  Uiso   1.00
H528   H     0.84465   0.82001   0.40131   0.00000  Uiso   1.00
H529   H     0.79334   0.87738   0.07185   0.00000  Uiso   1.00
H530   H     0.88409   0.80040   0.42849   0.00000  Uiso   1.00
H531   H     0.94559   0.72970   0.27956   0.00000  Uiso   1.00
H532   H     0.92889   0.75231   0.02425   0.00000  Uiso   1.00
H533   H     0.68167   0.86612   0.22193   0.00000  Uiso   1.00
H534   H     0.87490   0.66971   0.21667   0.00000  Uiso   1.00
H535   H     0.79062   0.99856   0.28339   0.00000  Uiso   1.00
H536   H     0.81771   0.84194   0.10152   0.00000  Uiso   1.00
H537   H     0.91228   0.76300   0.09588   0.00000  Uiso   1.00
H538   H     0.91807   0.76690   0.46369   0.00000  Uiso   1.00
H539   H     0.74648   0.92302   0.47584   0.00000  Uiso   1.00
O540   O     0.83333   0.83333   0.25000   0.00000  Uiso   1.00
O541   O     0.82360   0.79060   0.16625   0.00000  Uiso   1.00
O542   O     0.79354   0.87313   0.33749   0.00000  Uiso   1.00
O543   O     0.87755   0.84159   0.15877   0.00000  Uiso   1.00
O544   O     0.83865   0.82802   0.33749   0.00000  Uiso   1.00
O545   O     0.98431   0.78186   0.31533   0.00000  Uiso   1.00
O546   O     0.96054   0.75302   0.26264   0.00000  Uiso   1.00
O547   O     0.84515   0.74768   0.27821   0.00000  Uiso   1.00
O548   O     0.81247   0.92803   0.26767   0.00000  Uiso   1.00
O549   O     0.74119   0.79917   0.23607   0.00000  Uiso   1.00
O550   O     0.93452   0.85845   0.21806   0.00000  Uiso   1.00
O551   O     0.73656   0.85627   0.27820   0.00000  Uiso   1.00
O552   O     0.92106   0.81944   0.26768   0.00000  Uiso   1.00
O553   O     0.80467   0.73570   0.23607   0.00000  Uiso   1.00
O554   O     0.87104   0.92193   0.21806   0.00000  Uiso   1.00
Zn555  Zn    0.85910   0.80756   0.28278   0.00000  Uiso   1.00
Zn556  Zn    0.80125   0.79044   0.22258   0.00000  Uiso   1.00
Zn557  Zn    0.87833   0.86331   0.21188   0.00000  Uiso   1.00
Zn558  Zn    0.79465   0.87202   0.28277   0.00000  Uiso   1.00
C559   C     0.05287   0.16005   0.75803   0.00000  Uiso   1.00
C560   C     0.20637   0.13936   0.95986   0.00000  Uiso   1.00
C561   C     0.22693   0.11995   0.98009   0.00000  Uiso   1.00
C562   C     0.28089   0.17327   0.74135   0.00000  Uiso   1.00
C563   C     0.21648   0.12577   0.52072   0.00000  Uiso   1.00
C564   C     0.18487   0.15223   0.54192   0.00000  Uiso   1.00
C565   C     0.23788   0.10561   0.54036   0.00000  Uiso   1.00
C566   C     0.22844   0.11145   0.58096   0.00000  Uiso   1.00
C567   C     0.17520   0.15664   0.58311   0.00000  Uiso   1.00
C568   C     0.32629   0.17682   0.73994   0.00000  Uiso   1.00
C569   C     0.00762   0.15474   0.76161   0.00000  Uiso   1.00
C570   C     0.10926   0.22592   0.91967   0.00000  Uiso   1.00
C571   C     0.18103   0.32222   0.73827   0.00000  Uiso   1.00
C572   C     0.15162   0.01198   0.76183   0.00000  Uiso   1.00
C573   C     0.15599   0.05610   0.75879   0.00000  Uiso   1.00
C574   C     0.17689   0.27762   0.74137   0.00000  Uiso   1.00
C575   C     0.18838   0.14499   0.64425   0.00000  Uiso   1.00
C576   C     0.14556   0.18773   0.85601   0.00000  Uiso   1.00
C577   C     0.13728   0.19691   0.89867   0.00000  Uiso   1.00
C578   C     0.19707   0.13686   0.60212   0.00000  Uiso   1.00
C579   C     0.10197   0.23411   0.96006   0.00000  Uiso   1.00
C580   C     0.31631   0.11827   0.78211   0.00000  Uiso   1.00
C581   C     0.15805   0.17645   0.91843   0.00000  Uiso   1.00
C582   C     0.15228   0.18506   0.95910   0.00000  Uiso   1.00
C583   C     0.12303   0.21385   0.97991   0.00000  Uiso   1.00
C584   C     0.17425   0.16558   0.97963   0.00000  Uiso   1.00
C585   C     0.16431   0.17321   0.52126   0.00000  Uiso   1.00
C586   C     0.13477   0.20208   0.54073   0.00000  Uiso   1.00
C587   C     0.11490   0.22216   0.52032   0.00000  Uiso   1.00
H588   H     0.09270   0.24424   0.53644   0.00000  Uiso   1.00
H589   H     0.09279   0.24209   0.90496   0.00000  Uiso   1.00
H590   H     0.17799   0.15335   0.90131   0.00000  Uiso   1.00
H591   H     0.12667   0.21072   0.57185   0.00000  Uiso   1.00
H592   H     0.21742   0.13373   0.92849   0.00000  Uiso   1.00
H593   H     0.27892   0.06304   0.77956   0.00000  Uiso   1.00
H594   H     0.26222   0.08564   0.52425   0.00000  Uiso   1.00
H595   H     0.01501   0.19946   0.72193   0.00000  Uiso   1.00
H596   H     0.20823   0.00304   0.71667   0.00000  Uiso   1.00
H597   H     0.12395   0.33190   0.78339   0.00000  Uiso   1.00
H598   H     0.15104   0.17528   0.60152   0.00000  Uiso   1.00
H599   H     0.24561   0.09634   0.59588   0.00000  Uiso   1.00
H600   H     0.25141   0.10023   0.96369   0.00000  Uiso   1.00
H601   H     0.07981   0.25635   0.97584   0.00000  Uiso   1.00
O602   O     0.16667   0.16667   0.75000   0.00000  Uiso   1.00
O603   O     0.15693   0.12393   0.66625   0.00000  Uiso   1.00
O604   O     0.12687   0.20646   0.83749   0.00000  Uiso   1.00
O605   O     0.21088   0.17493   0.65877   0.00000  Uiso   1.00
O606   O     0.17198   0.16135   0.83749   0.00000  Uiso   1.00
O607   O     0.31765   0.11519   0.81533   0.00000  Uiso   1.00
O608   O     0.29387   0.08635   0.76264   0.00000  Uiso   1.00
O609   O     0.17849   0.08101   0.77821   0.00000  Uiso   1.00
O610   O     0.14581   0.26136   0.76767   0.00000  Uiso   1.00
O611   O     0.07452   0.13251   0.73607   0.00000  Uiso   1.00
O612   O     0.26785   0.19179   0.71806   0.00000  Uiso   1.00
O613   O     0.06990   0.18960   0.77820   0.00000  Uiso   1.00
O614   O     0.25440   0.15277   0.76768   0.00000  Uiso   1.00
O615   O     0.13800   0.06903   0.73607   0.00000  Uiso   1.00
O616   O     0.20437   0.25527   0.71806   0.00000  Uiso   1.00
Zn617  Zn    0.19244   0.14090   0.78278   0.00000  Uiso   1.00
Zn618  Zn    0.13459   0.12378   0.72258   0.00000  Uiso   1.00
Zn619  Zn    0.21166   0.19664   0.71188   0.00000  Uiso   1.00
Zn620  Zn    0.12798   0.20535   0.78277   0.00000  Uiso   1.00
C621   C     0.38621   0.16005   0.75803   0.00000  Uiso   1.00
C622   C     0.53970   0.13936   0.95986   0.00000  Uiso   1.00
C623   C     0.56027   0.11995   0.98009   0.00000  Uiso   1.00
C624   C     0.61423   0.17327   0.74135   0.00000  Uiso   1.00
C625   C     0.54982   0.12577   0.52072   0.00000  Uiso   1.00
C626   C     0.51821   0.15223   0.54192   0.00000  Uiso   1.00
C627   C     0.57122   0.10561   0.54036   0.00000  Uiso   1.00
C628   C     0.56177   0.11145   0.58096   0.00000  Uiso   1.00
C629   C     0.50854   0.15664   0.58311   0.00000  Uiso   1.00
C630   C     0.65963   0.17682   0.73994   0.00000  Uiso   1.00
C631   C     0.34096   0.15474   0.76161   0.00000  Uiso   1.00
C632   C     0.44259   0.22592   0.91967   0.00000  Uiso   1.00
C633   C     0.51436   0.32222   0.73827   0.00000  Uiso   1.00
C634   C     0.48496   0.01198   0.76183   0.00000  Uiso   1.00
C635   C     0.48932   0.05610   0.75879   0.00000  Uiso   1.00
C636   C     0.51022   0.27762   0.74137   0.00000  Uiso   1.00
C637   C     0.52172   0.14499   0.64425   0.00000  Uiso   1.00
C638   C     0.47889   0.18773   0.85601   0.00000  Uiso   1.00
C639   C     0.47061   0.19691   0.89867   0.00000  Uiso   1.00
C640   C     0.53041   0.13686   0.60212   0.00000  Uiso   1.00
C641   C     0.43530   0.23411   0.96006   0.00000  Uiso   1.00
C642   C     0.64964   0.11827   0.78211   0.00000  Uiso   1.00
C643   C     0.49138   0.17645   0.91843   0.00000  Uiso   1.00
C644   C     0.48562   0.18506   0.95910   0.00000  Uiso   1.00
C645   C     0.45636   0.21385   0.97991   0.00000  Uiso   1.00
C646   C     0.50758   0.16558   0.97963   0.00000  Uiso   1.00
C647   C     0.49765   0.17321   0.52126   0.00000  Uiso   1.00
C648   C     0.46810   0.20208   0.54073   0.00000  Uiso   1.00
C649   C     0.44823   0.22216   0.52032   0.00000  Uiso   1.00
H650   H     0.42603   0.24424   0.53644   0.00000  Uiso   1.00
H651   H     0.42613   0.24209   0.90496   0.00000  Uiso   1.00
H652   H     0.51132   0.15335   0.90131   0.00000  Uiso   1.00
H653   H     0.46000   0.21072   0.57185   0.00000  Uiso   1.00
H654   H     0.55075   0.13373   0.92849   0.00000  Uiso   1.00
H655   H     0.61225   0.06304   0.77956   0.00000  Uiso   1.00
H656   H     0.59556   0.08564   0.52425   0.00000  Uiso   1.00
H657   H     0.34834   0.19946   0.72193   0.00000  Uiso   1.00
H658   H     0.54156   0.00304   0.71667   0.00000  Uiso   1.00
H659   H     0.45728   0.33190   0.78339   0.00000  Uiso   1.00
H660   H     0.48438   0.17528   0.60152   0.00000  Uiso   1.00
H661   H     0.57895   0.09634   0.59588   0.00000  Uiso   1.00
H662   H     0.58474   0.10023   0.96369   0.00000  Uiso   1.00
H663   H     0.41314   0.25635   0.97584   0.00000  Uiso   1.00
O664   O     0.50000   0.16667   0.75000   0.00000  Uiso   1.00
O665   O     0.49027   0.12393   0.66625   0.00000  Uiso   1.00
O666   O     0.46020   0.20646   0.83749   0.00000  Uiso   1.00
O667   O     0.54421   0.17493   0.65877   0.00000  Uiso   1.00
O668   O     0.50532   0.16135   0.83749   0.00000  Uiso   1.00
O669   O     0.65098   0.11519   0.81533   0.00000  Uiso   1.00
O670   O     0.62721   0.08635   0.76264   0.00000  Uiso   1.00
O671   O     0.51182   0.08101   0.77821   0.00000  Uiso   1.00
O672   O     0.47914   0.26136   0.76767   0.00000  Uiso   1.00
O673   O     0.40785   0.13251   0.73607   0.00000  Uiso   1.00
O674   O     0.60119   0.19179   0.71806   0.00000  Uiso   1.00
O675   O     0.40323   0.18960   0.77820   0.00000  Uiso   1.00
O676   O     0.58773   0.15277   0.76768   0.00000  Uiso   1.00
O677   O     0.47133   0.06903   0.73607   0.00000  Uiso   1.00
O678   O     0.53771   0.25527   0.71806   0.00000  Uiso   1.00
Zn679  Zn    0.52577   0.14090   0.78278   0.00000  Uiso   1.00
Zn680  Zn    0.46792   0.12378   0.72258   0.00000  Uiso   1.00
Zn681  Zn    0.54500   0.19664   0.71188   0.00000  Uiso   1.00
Zn682  Zn    0.46131   0.20535   0.78277   0.00000  Uiso   1.00
C683   C     0.71954   0.16005   0.75803   0.00000  Uiso   1.00
C684   C     0.87303   0.13936   0.95986   0.00000  Uiso   1.00
C685   C     0.89360   0.11995   0.98009   0.00000  Uiso   1.00
C686   C     0.94756   0.17327   0.74135   0.00000  Uiso   1.00
C687   C     0.88315   0.12577   0.52072   0.00000  Uiso   1.00
C688   C     0.85154   0.15223   0.54192   0.00000  Uiso   1.00
C689   C     0.90455   0.10561   0.54036   0.00000  Uiso   1.00
C690   C     0.89511   0.11145   0.58096   0.00000  Uiso   1.00
C691   C     0.84187   0.15664   0.58311   0.00000  Uiso   1.00
C692   C     0.99296   0.17682   0.73994   0.00000  Uiso   1.00
C693   C     0.67429   0.15474   0.76161   0.00000  Uiso   1.00
C694   C     0.77593   0.22592   0.91967   0.00000  Uiso   1.00
C695   C     0.84769   0.32222   0.73827   0.00000  Uiso   1.00
C696   C     0.81829   0.01198   0.76183   0.00000  Uiso   1.00
C697   C     0.82265   0.05610   0.75879   0.00000  Uiso   1.00
C698   C     0.84355   0.27762   0.74137   0.00000  Uiso   1.00
C699   C     0.85505   0.14499   0.64425   0.00000  Uiso   1.00
C700   C     0.81222   0.18773   0.85601   0.00000  Uiso   1.00
C701   C     0.80395   0.19691   0.89867   0.00000  Uiso   1.00
C702   C     0.86374   0.13686   0.60212   0.00000  Uiso   1.00
C703   C     0.76863   0.23411   0.96006   0.00000  Uiso   1.00
C704   C     0.98297   0.11827   0.78211   0.00000  Uiso   1.00
C705   C     0.82471   0.17645   0.91843   0.00000  Uiso   1.00
C706   C     0.81895   0.18506   0.95910   0.00000  Uiso   1.00
C707   C     0.78969   0.21385   0.97991   0.00000  Uiso   1.00
C708   C     0.84091   0.16558   0.97963   0.00000  Uiso   1.00
C709   C     0.83098   0.17321   0.52126   0.00000  Uiso   1.00
C710   C     0.80143   0.20208   0.54073   0.00000  Uiso   1.00
C711   C     0.78157   0.22216   0.52032   0.00000  Uiso   1.00
H712   H     0.75937   0.24424   0.53644   0.00000  Uiso   1.00
H713   H     0.75946   0.24209   0.90496   0.00000  Uiso   1.00
H714   H     0.84465   0.15335   0.90131   0.00000  Uiso   1.00
H715   H     0.79334   0.21072   0.57185   0.00000  Uiso   1.00
H716   H     0.88409   0.13373   0.92849   0.00000  Uiso   1.00
H717   H     0.94559   0.06304   0.77956   0.00000  Uiso   1.00
H718   H     0.92889   0.08564   0.52425   0.00000  Uiso   1.00
H719   H     0.68167   0.19946   0.72193   0.00000  Uiso   1.00
H720   H     0.87490   0.00304   0.71667   0.00000  Uiso   1.00
H721   H     0.79062   0.33190   0.78339   0.00000  Uiso   1.00
H722   H     0.81771   0.17528   0.60152   0.00000  Uiso   1.00
H723   H     0.91228   0.09634   0.59588   0.00000  Uiso   1.00
H724   H     0.91807   0.10023   0.96369   0.00000  Uiso   1.00
H725   H     0.74648   0.25635   0.97584   0.00000  Uiso   1.00
O726   O     0.83333   0.16667   0.75000   0.00000  Uiso   1.00
O727   O     0.82360   0.12393   0.66625   0.00000  Uiso   1.00
O728   O     0.79354   0.20646   0.83749   0.00000  Uiso   1.00
O729   O     0.87755   0.17493   0.65877   0.00000  Uiso   1.00
O730   O     0.83865   0.16135   0.83749   0.00000  Uiso   1.00
O731   O     0.98431   0.11519   0.81533   0.00000  Uiso   1.00
O732   O     0.96054   0.08635   0.76264   0.00000  Uiso   1.00
O733   O     0.84515   0.08101   0.77821   0.00000  Uiso   1.00
O734   O     0.81247   0.26136   0.76767   0.00000  Uiso   1.00
O735   O     0.74119   0.13251   0.73607   0.00000  Uiso   1.00
O736   O     0.93452   0.19179   0.71806   0.00000  Uiso   1.00
O737   O     0.73656   0.18960   0.77820   0.00000  Uiso   1.00
O738   O     0.92106   0.15277   0.76768   0.00000  Uiso   1.00
O739   O     0.80467   0.06903   0.73607   0.00000  Uiso   1.00
O740   O     0.87104   0.25527   0.71806   0.00000  Uiso   1.00
Zn741  Zn    0.85910   0.14090   0.78278   0.00000  Uiso   1.00
Zn742  Zn    0.80125   0.12378   0.72258   0.00000  Uiso   1.00
Zn743  Zn    0.87833   0.19664   0.71188   0.00000  Uiso   1.00
Zn744  Zn    0.79465   0.20535   0.78277   0.00000  Uiso   1.00
C745   C     0.05287   0.49338   0.75803   0.00000  Uiso   1.00
C746   C     0.20637   0.47269   0.95986   0.00000  Uiso   1.00
C747   C     0.22693   0.45328   0.98009   0.00000  Uiso   1.00
C748   C     0.28089   0.50660   0.74135   0.00000  Uiso   1.00
C749   C     0.21648   0.45911   0.52072   0.00000  Uiso   1.00
C750   C     0.18487   0.48557   0.54192   0.00000  Uiso   1.00
C751   C     0.23788   0.43894   0.54036   0.00000  Uiso   1.00
C752   C     0.22844   0.44479   0.58096   0.00000  Uiso   1.00
C753   C     0.17520   0.48998   0.58311   0.00000  Uiso   1.00
C754   C     0.32629   0.51016   0.73994   0.00000  Uiso   1.00
C755   C     0.00762   0.48807   0.76161   0.00000  Uiso   1.00
C756   C     0.10926   0.55925   0.91967   0.00000  Uiso   1.00
C757   C     0.18103   0.65555   0.73827   0.00000  Uiso   1.00
C758   C     0.15162   0.34531   0.76183   0.00000  Uiso   1.00
C759   C     0.15599   0.38943   0.75879   0.00000  Uiso   1.00
C760   C     0.17689   0.61095   0.74137   0.00000  Uiso   1.00
C761   C     0.18838   0.47832   0.64425   0.00000  Uiso   1.00
C762   C     0.14556   0.52106   0.85601   0.00000  Uiso   1.00
C763   C     0.13728   0.53024   0.89867   0.00000  Uiso   1.00
C764   C     0.19707   0.47019   0.60212   0.00000  Uiso   1.00
C765   C     0.10197   0.56744   0.96006   0.00000  Uiso   1.00
C766   C     0.31631   0.45160   0.78211   0.00000  Uiso   1.00
C767   C     0.15805   0.50978   0.91843   0.00000  Uiso   1.00
C768   C     0.15228   0.51840   0.95910   0.00000  Uiso   1.00
C769   C     0.12303   0.54718   0.97991   0.00000  Uiso   1.00
C770   C     0.17425   0.49891   0.97963   0.00000  Uiso   1.00
C771   C     0.16431   0.50654   0.52126   0.00000  Uiso   1.00
C772   C     0.13477   0.53542   0.54073   0.00000  Uiso   1.00
C773   C     0.11490   0.55549   0.52032   0.00000  Uiso   1.00
H774   H     0.09270   0.57757   0.53644   0.00000  Uiso   1.00
H775   H     0.09279   0.57543   0.90496   0.00000  Uiso   1.00
H776   H     0.17799   0.48668   0.90131   0.00000  Uiso   1.00
H777   H     0.12667   0.54405   0.57185   0.00000  Uiso   1.00
H778   H     0.21742   0.46707   0.92849   0.00000  Uiso   1.00
H779   H     0.27892   0.39637   0.77956   0.00000  Uiso   1.00
H780   H     0.26222   0.41898   0.52425   0.00000  Uiso   1.00
H781   H     0.01501   0.53279   0.72193   0.00000  Uiso   1.00
H782   H     0.20823   0.33637   0.71667   0.00000  Uiso   1.00
H783   H     0.12395   0.66523   0.78339   0.00000  Uiso   1.00
H784   H     0.15104   0.50861   0.60152   0.00000  Uiso   1.00
H785   H     0.24561   0.42967   0.59588   0.00000  Uiso   1.00
H786   H     0.25141   0.43356   0.96369   0.00000  Uiso   1.00
H787   H     0.07981   0.58968   0.97584   0.00000  Uiso   1.00
O788   O     0.16667   0.50000   0.75000   0.00000  Uiso   1.00
O789   O     0.15693   0.45726   0.66625   0.00000  Uiso   1.00
O790   O     0.12687   0.53979   0.83749   0.00000  Uiso   1.00
O791   O     0.21088   0.50826   0.65877   0.00000  Uiso   1.00
O792   O     0.17198   0.49468   0.83749   0.00000  Uiso   1.00
O793   O     0.31765   0.44853   0.81533   0.00000  Uiso   1.00
O794   O     0.29387   0.41968   0.76264   0.00000  Uiso   1.00
O795   O     0.17849   0.41434   0.77821   0.00000  Uiso   1.00
O796   O     0.14581   0.59469   0.76767   0.00000  Uiso   1.00
O797   O     0.07452   0.46584   0.73607   0.00000  Uiso   1.00
O798   O     0.26785   0.52512   0.71806   0.00000  Uiso   1.00
O799   O     0.06990   0.52293   0.77820   0.00000  Uiso   1.00
O800   O     0.25440   0.48610   0.76768   0.00000  Uiso   1.00
O801   O     0.13800   0.40236   0.73607   0.00000  Uiso   1.00
O802   O     0.20437   0.58860   0.71806   0.00000  Uiso   1.00
Zn803  Zn    0.19244   0.47423   0.78278   0.00000  Uiso   1.00
Zn804  Zn    0.13459   0.45711   0.72258   0.00000  Uiso   1.00
Zn805  Zn    0.21166   0.52997   0.71188   0.00000  Uiso   1.00
Zn806  Zn    0.12798   0.53868   0.78277   0.00000  Uiso   1.00
C807   C     0.38621   0.49338   0.75803   0.00000  Uiso   1.00
C808   C     0.53970   0.47269   0.95986   0.00000  Uiso   1.00
C809   C     0.56027   0.45328   0.98009   0.00000  Uiso   1.00
C810   C     0.61423   0.50660   0.74135   0.00000  Uiso   1.00
C811   C     0.54982   0.45911   0.52072   0.00000  Uiso   1.00
C812   C     0.51821   0.48557   0.54192   0.00000  Uiso   1.00
C813   C     0.57122   0.43894   0.54036   0.00000  Uiso   1.00
C814   C     0.56177   0.44479   0.58096   0.00000  Uiso   1.00
C815   C     0.50854   0.48998   0.58311   0.00000  Uiso   1.00
C816   C     0.65963   0.51016   0.73994   0.00000  Uiso   1.00
C817   C     0.34096   0.48807   0.76161   0.00000  Uiso   1.00
C818   C     0.44259   0.55925   0.91967   0.00000  Uiso   1.00
C819   C     0.51436   0.65555   0.73827   0.00000  Uiso   1.00
C820   C     0.48496   0.34531   0.76183   0.00000  Uiso   1.00
C821   C     0.48932   0.38943   0.75879   0.00000  Uiso   1.00
C822   C     0.51022   0.61095   0.74137   0.00000  Uiso   1.00
C823   C     0.52172   0.47832   0.64425   0.00000  Uiso   1.00
C824   C     0.47889   0.52106   0.85601   0.00000  Uiso   1.00
C825   C     0.47061   0.53024   0.89867   0.00000  Uiso   1.00
C826   C     0.53041   0.47019   0.60212   0.00000  Uiso   1.00
C827   C     0.43530   0.56744   0.96006   0.00000  Uiso   1.00
C828   C     0.64964   0.45160   0.78211   0.00000  Uiso   1.00
C829   C     0.49138   0.50978   0.91843   0.00000  Uiso   1.00
C830   C     0.48562   0.51840   0.95910   0.00000  Uiso   1.00
C831   C     0.45636   0.54718   0.97991   0.00000  Uiso   1.00
C832   C     0.50758   0.49891   0.97963   0.00000  Uiso   1.00
C833   C     0.49765   0.50654   0.52126   0.00000  Uiso   1.00
C834   C     0.46810   0.53542   0.54073   0.00000  Uiso   1.00
C835   C     0.44823   0.55549   0.52032   0.00000  Uiso   1.00
H836   H     0.42603   0.57757   0.53644   0.00000  Uiso   1.00
H837   H     0.42613   0.57543   0.90496   0.00000  Uiso   1.00
H838   H     0.51132   0.48668   0.90131   0.00000  Uiso   1.00
H839   H     0.46000   0.54405   0.57185   0.00000  Uiso   1.00
H840   H     0.55075   0.46707   0.92849   0.00000  Uiso   1.00
H841   H     0.61225   0.39637   0.77956   0.00000  Uiso   1.00
H842   H     0.59556   0.41898   0.52425   0.00000  Uiso   1.00
H843   H     0.34834   0.53279   0.72193   0.00000  Uiso   1.00
H844   H     0.54156   0.33637   0.71667   0.00000  Uiso   1.00
H845   H     0.45728   0.66523   0.78339   0.00000  Uiso   1.00
H846   H     0.48438   0.50861   0.60152   0.00000  Uiso   1.00
H847   H     0.57895   0.42967   0.59588   0.00000  Uiso   1.00
H848   H     0.58474   0.43356   0.96369   0.00000  Uiso   1.00
H849   H     0.41314   0.58968   0.97584   0.00000  Uiso   1.00
O850   O     0.50000   0.50000   0.75000   0.00000  Uiso   1.00
O851   O     0.49027   0.45726   0.66625   0.00000  Uiso   1.00
O852   O     0.46020   0.53979   0.83749   0.00000  Uiso   1.00
O853   O     0.54421   0.50826   0.65877   0.00000  Uiso   1.00
O854   O     0.50532   0.49468   0.83749   0.00000  Uiso   1.00
O855   O     0.65098   0.44853   0.81533   0.00000  Uiso   1.00
O856   O     0.62721   0.41968   0.76264   0.00000  Uiso   1.00
O857   O     0.51182   0.41434   0.77821   0.00000  Uiso   1.00
O858   O     0.47914   0.59469   0.76767   0.00000  Uiso   1.00
O859   O     0.40785   0.46584   0.73607   0.00000  Uiso   1.00
O860   O     0.60119   0.52512   0.71806   0.00000  Uiso   1.00
O861   O     0.40323   0.52293   0.77820   0.00000  Uiso   1.00
O862   O     0.58773   0.48610   0.76768   0.00000  Uiso   1.00
O863   O     0.47133   0.40236   0.73607   0.00000  Uiso   1.00
O864   O     0.53771   0.58860   0.71806   0.00000  Uiso   1.00
Zn865  Zn    0.52577   0.47423   0.78278   0.00000  Uiso   1.00
Zn866  Zn    0.46792   0.45711   0.72258   0.00000  Uiso   1.00
Zn867  Zn    0.54500   0.52997   0.71188   0.00000  Uiso   1.00
Zn868  Zn    0.46131   0.53868   0.78277   0.00000  Uiso   1.00
C869   C     0.71954   0.49338   0.75803   0.00000  Uiso   1.00
C870   C     0.87303   0.47269   0.95986   0.00000  Uiso   1.00
C871   C     0.89360   0.45328   0.98009   0.00000  Uiso   1.00
C872   C     0.94756   0.50660   0.74135   0.00000  Uiso   1.00
C873   C     0.88315   0.45911   0.52072   0.00000  Uiso   1.00
C874   C     0.85154   0.48557   0.54192   0.00000  Uiso   1.00
C875   C     0.90455   0.43894   0.54036   0.00000  Uiso   1.00
C876   C     0.89511   0.44479   0.58096   0.00000  Uiso   1.00
C877   C     0.84187   0.48998   0.58311   0.00000  Uiso   1.00
C878   C     0.99296   0.51016   0.73994   0.00000  Uiso   1.00
C879   C     0.67429   0.48807   0.76161   0.00000  Uiso   1.00
C880   C     0.77593   0.55925   0.91967   0.00000  Uiso   1.00
C881   C     0.84769   0.65555   0.73827   0.00000  Uiso   1.00
C882   C     0.81829   0.34531   0.76183   0.00000  Uiso   1.00
C883   C     0.82265   0.38943   0.75879   0.00000  Uiso   1.00
C884   C     0.84355   0.61095   0.74137   0.00000  Uiso   1.00
C885   C     0.85505   0.47832   0.64425   0.00000  Uiso   1.00
C886   C     0.81222   0.52106   0.85601   0.00000  Uiso   1.00
C887   C     0.80395   0.53024   0.89867   0.00000  Uiso   1.00
C888   C     0.86374   0.47019   0.60212   0.00000  Uiso   1.00
C889   C     0.76863   0.56744   0.96006   0.00000  Uiso   1.00
C890   C     0.98297   0.45160   0.78211   0.00000  Uiso   1.00
C891   C     0.82471   0.50978   0.91843   0.00000  Uiso   1.00
C892   C     0.81895   0.51840   0.95910   0.00000  Uiso   1.00
C893   C     0.78969   0.54718   0.97991   0.00000  Uiso   1.00
C894   C     0.84091   0.49891   0.97963   0.00000  Uiso   1.00
C895   C     0.83098   0.50654   0.52126   0.00000  Uiso   1.00
C896   C     0.80143   0.53542   0.54073   0.00000  Uiso   1.00
C897   C     0.78157   0.55549   0.52032   0.00000  Uiso   1.00
H898   H     0.75937   0.57757   0.53644   0.00000  Uiso   1.00
H899   H     0.75946   0.57543   0.90496   0.00000  Uiso   1.00
H900   H     0.84465   0.48668   0.90131   0.00000  Uiso   1.00
H901   H     0.79334   0.54405   0.57185   0.00000  Uiso   1.00
H902   H     0.88409   0.46707   0.92849   0.00000  Uiso   1.00
H903   H     0.94559   0.39637   0.77956   0.00000  Uiso   1.00
H904   H     0.92889   0.41898   0.52425   0.00000  Uiso   1.00
H905   H     0.68167   0.53279   0.72193   0.00000  Uiso   1.00
H906   H     0.87490   0.33637   0.71667   0.00000  Uiso   1.00
H907   H     0.79062   0.66523   0.78339   0.00000  Uiso   1.00
H908   H     0.81771   0.50861   0.60152   0.00000  Uiso   1.00
H909   H     0.91228   0.42967   0.59588   0.00000  Uiso   1.00
H910   H     0.91807   0.43356   0.96369   0.00000  Uiso   1.00
H911   H     0.74648   0.58968   0.97584   0.00000  Uiso   1.00
O912   O     0.83333   0.50000   0.75000   0.00000  Uiso   1.00
O913   O     0.82360   0.45726   0.66625   0.00000  Uiso   1.00
O914   O     0.79354   0.53979   0.83749   0.00000  Uiso   1.00
O915   O     0.87755   0.50826   0.65877   0.00000  Uiso   1.00
O916   O     0.83865   0.49468   0.83749   0.00000  Uiso   1.00
O917   O     0.98431   0.44853   0.81533   0.00000  Uiso   1.00
O918   O     0.96054   0.41968   0.76264   0.00000  Uiso   1.00
O919   O     0.84515   0.41434   0.77821   0.00000  Uiso   1.00
O920   O     0.81247   0.59469   0.76767   0.00000  Uiso   1.00
O921   O     0.74119   0.46584   0.73607   0.00000  Uiso   1.00
O922   O     0.93452   0.52512   0.71806   0.00000  Uiso   1.00
O923   O     0.73656   0.52293   0.77820   0.00000  Uiso   1.00
O924   O     0.92106   0.48610   0.76768   0.00000  Uiso   1.00
O925   O     0.80467   0.40236   0.73607   0.00000  Uiso   1.00
O926   O     0.87104   0.58860   0.71806   0.00000  Uiso   1.00
Zn927  Zn    0.85910   0.47423   0.78278   0.00000  Uiso   1.00
Zn928  Zn    0.80125   0.45711   0.72258   0.00000  Uiso   1.00
Zn929  Zn    0.87833   0.52997   0.71188   0.00000  Uiso   1.00
Zn930  Zn    0.79465   0.53868   0.78277   0.00000  Uiso   1.00
C931   C     0.05287   0.82672   0.75803   0.00000  Uiso   1.00
C932   C     0.20637   0.80602   0.95986   0.00000  Uiso   1.00
C933   C     0.22693   0.78662   0.98009   0.00000  Uiso   1.00
C934   C     0.28089   0.83994   0.74135   0.00000  Uiso   1.00
C935   C     0.21648   0.79244   0.52072   0.00000  Uiso   1.00
C936   C     0.18487   0.81890   0.54192   0.00000  Uiso   1.00
C937   C     0.23788   0.77227   0.54036   0.00000  Uiso   1.00
C938   C     0.22844   0.77812   0.58096   0.00000  Uiso   1.00
C939   C     0.17520   0.82331   0.58311   0.00000  Uiso   1.00
C940   C     0.32629   0.84349   0.73994   0.00000  Uiso   1.00
C941   C     0.00762   0.82140   0.76161   0.00000  Uiso   1.00
C942   C     0.10926   0.89259   0.91967   0.00000  Uiso   1.00
C943   C     0.18103   0.98888   0.73827   0.00000  Uiso   1.00
C944   C     0.15162   0.67864   0.76183   0.00000  Uiso   1.00
C945   C     0.15599   0.72276   0.75879   0.00000  Uiso   1.00
C946   C     0.17689   0.94428   0.74137   0.00000  Uiso   1.00
C947   C     0.18838   0.81165   0.64425   0.00000  Uiso   1.00
C948   C     0.14556   0.85440   0.85601   0.00000  Uiso   1.00
C949   C     0.13728   0.86358   0.89867   0.00000  Uiso   1.00
C950   C     0.19707   0.80353   0.60212   0.00000  Uiso   1.00
C951   C     0.10197   0.90078   0.96006   0.00000  Uiso   1.00
C952   C     0.31631   0.78494   0.78211   0.00000  Uiso   1.00
C953   C     0.15805   0.84312   0.91843   0.00000  Uiso   1.00
C954   C     0.15228   0.85173   0.95910   0.00000  Uiso   1.00
C955   C     0.12303   0.88052   0.97991   0.00000  Uiso   1.00
C956   C     0.17425   0.83224   0.97963   0.00000  Uiso   1.00
C957   C     0.16431   0.83987   0.52126   0.00000  Uiso   1.00
C958   C     0.13477   0.86875   0.54073   0.00000  Uiso   1.00
C959   C     0.11490   0.88882   0.52032   0.00000  Uiso   1.00
H960   H     0.09270   0.91091   0.53644   0.00000  Uiso   1.00
H961   H     0.09279   0.90876   0.90496   0.00000  Uiso   1.00
H962   H     0.17799   0.82001   0.90131   0.00000  Uiso   1.00
H963   H     0.12667   0.87738   0.57185   0.00000  Uiso   1.00
H964   H     0.21742   0.80040   0.92849   0.00000  Uiso   1.00
H965   H     0.27892   0.72970   0.77956   0.00000  Uiso   1.00
H966   H     0.26222   0.75231   0.52425   0.00000  Uiso   1.00
H967   H     0.01501   0.86612   0.72193   0.00000  Uiso   1.00
H968   H     0.20823   0.66971   0.71667   0.00000  Uiso   1.00
H969   H     0.12395   0.99856   0.78339   0.00000  Uiso   1.00
H970   H     0.15104   0.84194   0.60152   0.00000  Uiso   1.00
H971   H     0.24561   0.76300   0.59588   0.00000  Uiso   1.00
H972   H     0.25141   0.76690   0.96369   0.00000  Uiso   1.00
H973   H     0.07981   0.92302   0.97584   0.00000  Uiso   1.00
O974   O     0.16667   0.83333   0.75000   0.00000  Uiso   1.00
O975   O     0.15693   0.79060   0.66625   0.00000  Uiso   1.00
O976   O     0.12687   0.87313   0.83749   0.00000  Uiso   1.00
O977   O     0.21088   0.84159   0.65877   0.00000  Uiso   1.00
O978   O     0.17198   0.82802   0.83749   0.00000  Uiso   1.00
O979   O     0.31765   0.78186   0.81533   0.00000  Uiso   1.00
O980   O     0.29387   0.75302   0.76264   0.00000  Uiso   1.00
O981   O     0.17849   0.74768   0.77821   0.00000  Uiso   1.00
O982   O     0.14581   0.92803   0.76767   0.00000  Uiso   1.00
O983   O     0.07452   0.79917   0.73607   0.00000  Uiso   1.00
O984   O     0.26785   0.85845   0.71806   0.00000  Uiso   1.00
O985   O     0.06990   0.85627   0.77820   0.00000  Uiso   1.00
O986   O     0.25440   0.81944   0.76768   0.00000  Uiso   1.00
O987   O     0.13800   0.73570   0.73607   0.00000  Uiso   1.00
O988   O     0.20437   0.92193   0.71806   0.00000  Uiso   1.00
Zn989  Zn    0.19244   0.80756   0.78278   0.00000  Uiso   1.00
Zn990  Zn    0.13459   0.79044   0.72258   0.00000  Uiso   1.00
Zn991  Zn    0.21166   0.86331   0.71188   0.00000  Uiso   1.00
Zn992  Zn    0.12798   0.87202   0.78277   0.00000  Uiso   1.00
C993   C     0.38621   0.82672   0.75803   0.00000  Uiso   1.00
C994   C     0.53970   0.80602   0.95986   0.00000  Uiso   1.00
C995   C     0.56027   0.78662   0.98009   0.00000  Uiso   1.00
C996   C     0.61423   0.83994   0.74135   0.00000  Uiso   1.00
C997   C     0.54982   0.79244   0.52072   0.00000  Uiso   1.00
C998   C     0.51821   0.81890   0.54192   0.00000  Uiso   1.00
C999   C     0.57122   0.77227   0.54036   0.00000  Uiso   1.00
C1000  C     0.56177   0.77812   0.58096   0.00000  Uiso   1.00
C1001  C     0.50854   0.82331   0.58311   0.00000  Uiso   1.00
C1002  C     0.65963   0.84349   0.73994   0.00000  Uiso   1.00
C1003  C     0.34096   0.82140   0.76161   0.00000  Uiso   1.00
C1004  C     0.44259   0.89259   0.91967   0.00000  Uiso   1.00
C1005  C     0.51436   0.98888   0.73827   0.00000  Uiso   1.00
C1006  C     0.48496   0.67864   0.76183   0.00000  Uiso   1.00
C1007  C     0.48932   0.72276   0.75879   0.00000  Uiso   1.00
C1008  C     0.51022   0.94428   0.74137   0.00000  Uiso   1.00
C1009  C     0.52172   0.81165   0.64425   0.00000  Uiso   1.00
C1010  C     0.47889   0.85440   0.85601   0.00000  Uiso   1.00
C1011  C     0.47061   0.86358   0.89867   0.00000  Uiso   1.00
C1012  C     0.53041   0.80353   0.60212   0.00000  Uiso   1.00
C1013  C     0.43530   0.90078   0.96006   0.00000  Uiso   1.00
C1014  C     0.64964   0.78494   0.78211   0.00000  Uiso   1.00
C1015  C     0.49138   0.84312   0.91843   0.00000  Uiso   1.00
C1016  C     0.48562   0.85173   0.95910   0.00000  Uiso   1.00
C1017  C     0.45636   0.88052   0.97991   0.00000  Uiso   1.00
C1018  C     0.50758   0.83224   0.97963   0.00000  Uiso   1.00
C1019  C     0.49765   0.83987   0.52126   0.00000  Uiso   1.00
C1020  C     0.46810   0.86875   0.54073   0.00000  Uiso   1.00
C1021  C     0.44823   0.88882   0.52032   0.00000  Uiso   1.00
H1022  H     0.42603   0.91091   0.53644   0.00000  Uiso   1.00
H1023  H     0.42613   0.90876   0.90496   0.00000  Uiso   1.00
H1024  H     0.51132   0.82001   0.90131   0.00000  Uiso   1.00
H1025  H     0.46000   0.87738   0.57185   0.00000  Uiso   1.00
H1026  H     0.55075   0.80040   0.92849   0.00000  Uiso   1.00
H1027  H     0.61225   0.72970   0.77956   0.00000  Uiso   1.00
H1028  H     0.59556   0.75231   0.52425   0.00000  Uiso   1.00
H1029  H     0.34834   0.86612   0.72193   0.00000  Uiso   1.00
H1030  H     0.54156   0.66971   0.71667   0.00000  Uiso   1.00
H1031  H     0.45728   0.99856   0.78339   0.00000  Uiso   1.00
H1032  H     0.48438   0.84194   0.60152   0.00000  Uiso   1.00
H1033  H     0.57895   0.76300   0.59588   0.00000  Uiso   1.00
H1034  H     0.58474   0.76690   0.96369   0.00000  Uiso   1.00
H1035  H     0.41314   0.92302   0.97584   0.00000  Uiso   1.00
O1036  O     0.50000   0.83333   0.75000   0.00000  Uiso   1.00
O1037  O     0.49027   0.79060   0.66625   0.00000  Uiso   1.00
O1038  O     0.46020   0.87313   0.83749   0.00000  Uiso   1.00
O1039  O     0.54421   0.84159   0.65877   0.00000  Uiso   1.00
O1040  O     0.50532   0.82802   0.83749   0.00000  Uiso   1.00
O1041  O     0.65098   0.78186   0.81533   0.00000  Uiso   1.00
O1042  O     0.62721   0.75302   0.76264   0.00000  Uiso   1.00
O1043  O     0.51182   0.74768   0.77821   0.00000  Uiso   1.00
O1044  O     0.47914   0.92803   0.76767   0.00000  Uiso   1.00
O1045  O     0.40785   0.79917   0.73607   0.00000  Uiso   1.00
O1046  O     0.60119   0.85845   0.71806   0.00000  Uiso   1.00
O1047  O     0.40323   0.85627   0.77820   0.00000  Uiso   1.00
O1048  O     0.58773   0.81944   0.76768   0.00000  Uiso   1.00
O1049  O     0.47133   0.73570   0.73607   0.00000  Uiso   1.00
O1050  O     0.53771   0.92193   0.71806   0.00000  Uiso   1.00
Zn1051 Zn    0.52577   0.80756   0.78278   0.00000  Uiso   1.00
Zn1052 Zn    0.46792   0.79044   0.72258   0.00000  Uiso   1.00
Zn1053 Zn    0.54500   0.86331   0.71188   0.00000  Uiso   1.00
Zn1054 Zn    0.46131   0.87202   0.78277   0.00000  Uiso   1.00
C1055  C     0.71954   0.82672   0.75803   0.00000  Uiso   1.00
C1056  C     0.87303   0.80602   0.95986   0.00000  Uiso   1.00
C1057  C     0.89360   0.78662   0.98009   0.00000  Uiso   1.00
C1058  C     0.94756   0.83994   0.74135   0.00000  Uiso   1.00
C1059  C     0.88315   0.79244   0.52072   0.00000  Uiso   1.00
C1060  C     0.85154   0.81890   0.54192   0.00000  Uiso   1.00
C1061  C     0.90455   0.77227   0.54036   0.00000  Uiso   1.00
C1062  C     0.89511   0.77812   0.58096   0.00000  Uiso   1.00
C1063  C     0.84187   0.82331   0.58311   0.00000  Uiso   1.00
C1064  C     0.99296   0.84349   0.73994   0.00000  Uiso   1.00
C1065  C     0.67429   0.82140   0.76161   0.00000  Uiso   1.00
C1066  C     0.77593   0.89259   0.91967   0.00000  Uiso   1.00
C1067  C     0.84769   0.98888   0.73827   0.00000  Uiso   1.00
C1068  C     0.81829   0.67864   0.76183   0.00000  Uiso   1.00
C1069  C     0.82265   0.72276   0.75879   0.00000  Uiso   1.00
C1070  C     0.84355   0.94428   0.74137   0.00000  Uiso   1.00
C1071  C     0.85505   0.81165   0.64425   0.00000  Uiso   1.00
C1072  C     0.81222   0.85440   0.85601   0.00000  Uiso   1.00
C1073  C     0.80395   0.86358   0.89867   0.00000  Uiso   1.00
C1074  C     0.86374   0.80353   0.60212   0.00000  Uiso   1.00
C1075  C     0.76863   0.90078   0.96006   0.00000  Uiso   1.00
C1076  C     0.98297   0.78494   0.78211   0.00000  Uiso   1.00
C1077  C     0.82471   0.84312   0.91843   0.00000  Uiso   1.00
C1078  C     0.81895   0.85173   0.95910   0.00000  Uiso   1.00
C1079  C     0.78969   0.88052   0.97991   0.00000  Uiso   1.00
C1080  C     0.84091   0.83224   0.97963   0.00000  Uiso   1.00
C1081  C     0.83098   0.83987   0.52126   0.00000  Uiso   1.00
C1082  C     0.80143   0.86875   0.54073   0.00000  Uiso   1.00
C1083  C     0.78157   0.88882   0.52032   0.00000  Uiso   1.00
H1084  H     0.75937   0.91091   0.53644   0.00000  Uiso   1.00
H1085  H     0.75946   0.90876   0.90496   0.00000  Uiso   1.00
H1086  H     0.84465   0.82001   0.90131   0.00000  Uiso   1.00
H1087  H     0.79334   0.87738   0.57185   0.00000  Uiso   1.00
H1088  H     0.88409   0.80040   0.92849   0.00000  Uiso   1.00
H1089  H     0.94559   0.72970   0.77956   0.00000  Uiso   1.00
H1090  H     0.92889   0.75231   0.52425   0.00000  Uiso   1.00
H1091  H     0.68167   0.86612   0.72193   0.00000  Uiso   1.00
H1092  H     0.87490   0.66971   0.71667   0.00000  Uiso   1.00
H1093  H     0.79062   0.99856   0.78339   0.00000  Uiso   1.00
H1094  H     0.81771   0.84194   0.60152   0.00000  Uiso   1.00
H1095  H     0.91228   0.76300   0.59588   0.00000  Uiso   1.00
H1096  H     0.91807   0.76690   0.96369   0.00000  Uiso   1.00
H1097  H     0.74648   0.92302   0.97584   0.00000  Uiso   1.00
O1098  O     0.83333   0.83333   0.75000   0.00000  Uiso   1.00
O1099  O     0.82360   0.79060   0.66625   0.00000  Uiso   1.00
O1100  O     0.79354   0.87313   0.83749   0.00000  Uiso   1.00
O1101  O     0.87755   0.84159   0.65877   0.00000  Uiso   1.00
O1102  O     0.83865   0.82802   0.83749   0.00000  Uiso   1.00
O1103  O     0.98431   0.78186   0.81533   0.00000  Uiso   1.00
O1104  O     0.96054   0.75302   0.76264   0.00000  Uiso   1.00
O1105  O     0.84515   0.74768   0.77821   0.00000  Uiso   1.00
O1106  O     0.81247   0.92803   0.76767   0.00000  Uiso   1.00
O1107  O     0.74119   0.79917   0.73607   0.00000  Uiso   1.00
O1108  O     0.93452   0.85845   0.71806   0.00000  Uiso   1.00
O1109  O     0.73656   0.85627   0.77820   0.00000  Uiso   1.00
O1110  O     0.92106   0.81944   0.76768   0.00000  Uiso   1.00
O1111  O     0.80467   0.73570   0.73607   0.00000  Uiso   1.00
O1112  O     0.87104   0.92193   0.71806   0.00000  Uiso   1.00
Zn1113 Zn    0.85910   0.80756   0.78278   0.00000  Uiso   1.00
Zn1114 Zn    0.80125   0.79044   0.72258   0.00000  Uiso   1.00
Zn1115 Zn    0.87833   0.86331   0.71188   0.00000  Uiso   1.00
Zn1116 Zn    0.79465   0.87202   0.78277   0.00000  Uiso   1.00
loop_
_geom_bond_atom_site_label_1
_geom_bond_atom_site_label_2
_geom_bond_distance
_geom_bond_site_symmetry_2
_ccdc_geom_bond_type
C1     C11     1.434   .     S
C1     O55     1.275   .     A
C1     O53     1.263   .     A
C2     H34     1.076   .     S
C2     C3      1.384   .     A
C2     C26     1.416   .     A
C3     H42     1.084   .     S
C3     C563    1.389   .     S
C4     C10     1.459   .     S
C4     O54     1.291   .     A
C4     O56     1.272   .     A
C5     C6      1.421   .     A
C5     C7      1.403   .     A
C5     C561    1.389   1_554 S
C6     C27     1.426   .     A
C6     C9      1.409   .     A
C7     H36     1.084   .     S
C7     C8      1.389   .     A
C8     H41     1.083   .     S
C8     C20     1.394   .     A
C9     C20     1.391   .     A
C9     H40     1.077   .     S
C10    C73     1.351   .     S
C10    H99     1.088   .     S
C11    C134    1.351   1_455 S
C11    C146    1.487   1_455 S
C12    C19     1.400   .     A
C12    H31     1.083   .     S
C12    C21     1.391   .     A
C13    C16     1.452   .     S
C13    C200    1.332   .     S
C13    H224    1.088   .     S
C14    C15     1.435   .     S
C14    C385    1.332   1_545 S
C14    H411    1.086   1_545 S
C15    O51     1.278   .     A
C15    O57     1.278   .     A
C16    O58     1.276   .     A
C16    O52     1.276   .     A
C17    O47     1.272   .     A
C17    C20     1.447   .     S
C17    O45     1.273   .     A
C18    O46     1.283   .     A
C18    C19     1.469   .     S
C18    O48     1.287   .     A
C19    C23     1.397   .     A
C21    C25     1.402   .     A
C21    H43     1.084   .     S
C22    O50     1.399   .     S
C22    O49     1.223   .     D
C22    C73     1.487   .     S
C23    C24     1.407   .     A
C23    H32     1.074   .     S
C24    C26     1.426   .     A
C24    C25     1.418   .     A
C25    C587    1.390   .     S
C26    C585    1.426   .     S
C27    C28     1.416   .     A
C27    C584    1.426   1_554 S
C28    C29     1.386   .     A
C28    H33     1.076   .     S
C29    H30     1.084   .     S
C29    C583    1.390   1_554 S
H35    O50     1.014   .     S
H37    C134    1.088   1_455 S
H38    C385    1.088   1_545 S
H39    C200    1.086   .     S
O44    Zn61    1.941   .     S
O44    Zn62    1.942   .     S
O44    Zn60    1.941   .     S
O44    Zn59    1.963   .     S
O45    Zn60    1.940   .     S
O46    Zn62    1.946   .     S
O47    Zn61    1.940   .     S
O48    Zn59    1.936   .     S
O51    Zn59    1.924   .     S
O52    Zn62    1.929   .     S
O53    Zn60    1.939   .     S
O54    Zn61    1.945   .     S
O55    Zn62    1.939   .     S
O56    Zn59    1.934   .     S
O57    Zn60    1.936   .     S
O58    Zn61    1.929   .     S
C63    C73     1.434   .     S
C63    O117    1.275   .     A
C63    O115    1.263   .     A
C64    H96     1.076   .     S
C64    C65     1.384   .     A
C64    C88     1.416   .     A
C65    H104    1.084   .     S
C65    C625    1.389   .     S
C66    C72     1.459   .     S
C66    O116    1.291   .     A
C66    O118    1.272   .     A
C67    C68     1.421   .     A
C67    C69     1.403   .     A
C67    C623    1.389   1_554 S
C68    C89     1.426   .     A
C68    C71     1.409   .     A
C69    H98     1.084   .     S
C69    C70     1.389   .     A
C70    H103    1.083   .     S
C70    C82     1.394   .     A
C71    C82     1.391   .     A
C71    H102    1.077   .     S
C72    C135    1.351   .     S
C72    H161    1.088   .     S
C74    C81     1.400   .     A
C74    H93     1.083   .     S
C74    C83     1.391   .     A
C75    C78     1.452   .     S
C75    C262    1.332   .     S
C75    H286    1.088   .     S
C76    C77     1.435   .     S
C76    C447    1.332   1_545 S
C76    H473    1.086   1_545 S
C77    O113    1.278   .     A
C77    O119    1.278   .     A
C78    O120    1.276   .     A
C78    O114    1.276   .     A
C79    O109    1.272   .     A
C79    C82     1.447   .     S
C79    O107    1.273   .     A
C80    O108    1.283   .     A
C80    C81     1.469   .     S
C80    O110    1.287   .     A
C81    C85     1.397   .     A
C83    C87     1.402   .     A
C83    H105    1.084   .     S
C84    O112    1.399   .     S
C84    O111    1.223   .     D
C84    C135    1.487   .     S
C85    C86     1.407   .     A
C85    H94     1.074   .     S
C86    C88     1.426   .     A
C86    C87     1.418   .     A
C87    C649    1.390   .     S
C88    C647    1.426   .     S
C89    C90     1.416   .     A
C89    C646    1.426   1_554 S
C90    C91     1.386   .     A
C90    H95     1.076   .     S
C91    H92     1.084   .     S
C91    C645    1.390   1_554 S
H97    O112    1.014   .     S
H100   C447    1.088   1_545 S
H101   C262    1.086   .     S
O106   Zn123   1.941   .     S
O106   Zn124   1.942   .     S
O106   Zn122   1.941   .     S
O106   Zn121   1.963   .     S
O107   Zn122   1.940   .     S
O108   Zn124   1.946   .     S
O109   Zn123   1.940   .     S
O110   Zn121   1.936   .     S
O113   Zn121   1.924   .     S
O114   Zn124   1.929   .     S
O115   Zn122   1.939   .     S
O116   Zn123   1.945   .     S
O117   Zn124   1.939   .     S
O118   Zn121   1.934   .     S
O119   Zn122   1.936   .     S
O120   Zn123   1.929   .     S
C125   C135    1.434   .     S
C125   O179    1.275   .     A
C125   O177    1.263   .     A
C126   H158    1.076   .     S
C126   C127    1.384   .     A
C126   C150    1.416   .     A
C127   H166    1.084   .     S
C127   C687    1.389   .     S
C128   C134    1.459   .     S
C128   O178    1.291   .     A
C128   O180    1.272   .     A
C129   C130    1.421   .     A
C129   C131    1.403   .     A
C129   C685    1.389   1_554 S
C130   C151    1.426   .     A
C130   C133    1.409   .     A
C131   H160    1.084   .     S
C131   C132    1.389   .     A
C132   H165    1.083   .     S
C132   C144    1.394   .     A
C133   C144    1.391   .     A
C133   H164    1.077   .     S
C134   C11     1.351   1_655 S
C134   H37     1.088   1_655 S
C136   C143    1.400   .     A
C136   H155    1.083   .     S
C136   C145    1.391   .     A
C137   C140    1.452   .     S
C137   C324    1.332   .     S
C137   H348    1.088   .     S
C138   C139    1.435   .     S
C138   C509    1.332   1_545 S
C138   H535    1.086   1_545 S
C139   O175    1.278   .     A
C139   O181    1.278   .     A
C140   O182    1.276   .     A
C140   O176    1.276   .     A
C141   O171    1.272   .     A
C141   C144    1.447   .     S
C141   O169    1.273   .     A
C142   O170    1.283   .     A
C142   C143    1.469   .     S
C142   O172    1.287   .     A
C143   C147    1.397   .     A
C145   C149    1.402   .     A
C145   H167    1.084   .     S
C146   O174    1.399   .     S
C146   O173    1.223   .     D
C146   C11     1.487   1_655 S
C147   C148    1.407   .     A
C147   H156    1.074   .     S
C148   C150    1.426   .     A
C148   C149    1.418   .     A
C149   C711    1.390   .     S
C150   C709    1.426   .     S
C151   C152    1.416   .     A
C151   C708    1.426   1_554 S
C152   C153    1.386   .     A
C152   H157    1.076   .     S
C153   H154    1.084   .     S
C153   C707    1.390   1_554 S
H159   O174    1.014   .     S
H162   C509    1.088   1_545 S
H163   C324    1.086   .     S
O168   Zn185   1.941   .     S
O168   Zn186   1.942   .     S
O168   Zn184   1.941   .     S
O168   Zn183   1.963   .     S
O169   Zn184   1.940   .     S
O170   Zn186   1.946   .     S
O171   Zn185   1.940   .     S
O172   Zn183   1.936   .     S
O175   Zn183   1.924   .     S
O176   Zn186   1.929   .     S
O177   Zn184   1.939   .     S
O178   Zn185   1.945   .     S
O179   Zn186   1.939   .     S
O180   Zn183   1.934   .     S
O181   Zn184   1.936   .     S
O182   Zn185   1.929   .     S
C187   C197    1.434   .     S
C187   O241    1.275   .     A
C187   O239    1.263   .     A
C188   H220    1.076   .     S
C188   C189    1.384   .     A
C188   C212    1.416   .     A
C189   H228    1.084   .     S
C189   C749    1.389   .     S
C190   C196    1.459   .     S
C190   O240    1.291   .     A
C190   O242    1.272   .     A
C191   C192    1.421   .     A
C191   C193    1.403   .     A
C191   C747    1.389   1_554 S
C192   C213    1.426   .     A
C192   C195    1.409   .     A
C193   H222    1.084   .     S
C193   C194    1.389   .     A
C194   H227    1.083   .     S
C194   C206    1.394   .     A
C195   C206    1.391   .     A
C195   H226    1.077   .     S
C196   C259    1.351   .     S
C196   H285    1.088   .     S
C197   C320    1.351   1_455 S
C197   C332    1.487   1_455 S
C198   C205    1.400   .     A
C198   H217    1.083   .     S
C198   C207    1.391   .     A
C199   C202    1.452   .     S
C199   C386    1.332   .     S
C199   H410    1.088   .     S
C200   C201    1.435   .     S
C201   O237    1.278   .     A
C201   O243    1.278   .     A
C202   O244    1.276   .     A
C202   O238    1.276   .     A
C203   O233    1.272   .     A
C203   C206    1.447   .     S
C203   O231    1.273   .     A
C204   O232    1.283   .     A
C204   C205    1.469   .     S
C204   O234    1.287   .     A
C205   C209    1.397   .     A
C207   C211    1.402   .     A
C207   H229    1.084   .     S
C208   O236    1.399   .     S
C208   O235    1.223   .     D
C208   C259    1.487   .     S
C209   C210    1.407   .     A
C209   H218    1.074   .     S
C210   C212    1.426   .     A
C210   C211    1.418   .     A
C211   C773    1.390   .     S
C212   C771    1.426   .     S
C213   C214    1.416   .     A
C213   C770    1.426   1_554 S
C214   C215    1.386   .     A
C214   H219    1.076   .     S
C215   H216    1.084   .     S
C215   C769    1.390   1_554 S
H221   O236    1.014   .     S
H223   C320    1.088   1_455 S
H225   C386    1.086   .     S
O230   Zn247   1.941   .     S
O230   Zn248   1.942   .     S
O230   Zn246   1.941   .     S
O230   Zn245   1.963   .     S
O231   Zn246   1.940   .     S
O232   Zn248   1.946   .     S
O233   Zn247   1.940   .     S
O234   Zn245   1.936   .     S
O237   Zn245   1.924   .     S
O238   Zn248   1.929   .     S
O239   Zn246   1.939   .     S
O240   Zn247   1.945   .     S
O241   Zn248   1.939   .     S
O242   Zn245   1.934   .     S
O243   Zn246   1.936   .     S
O244   Zn247   1.929   .     S
C249   C259    1.434   .     S
C249   O303    1.275   .     A
C249   O301    1.263   .     A
C250   H282    1.076   .     S
C250   C251    1.384   .     A
C250   C274    1.416   .     A
C251   H290    1.084   .     S
C251   C811    1.389   .     S
C252   C258    1.459   .     S
C252   O302    1.291   .     A
C252   O304    1.272   .     A
C253   C254    1.421   .     A
C253   C255    1.403   .     A
C253   C809    1.389   1_554 S
C254   C275    1.426   .     A
C254   C257    1.409   .     A
C255   H284    1.084   .     S
C255   C256    1.389   .     A
C256   H289    1.083   .     S
C256   C268    1.394   .     A
C257   C268    1.391   .     A
C257   H288    1.077   .     S
C258   C321    1.351   .     S
C258   H347    1.088   .     S
C260   C267    1.400   .     A
C260   H279    1.083   .     S
C260   C269    1.391   .     A
C261   C264    1.452   .     S
C261   C448    1.332   .     S
C261   H472    1.088   .     S
C262   C263    1.435   .     S
C263   O299    1.278   .     A
C263   O305    1.278   .     A
C264   O306    1.276   .     A
C264   O300    1.276   .     A
C265   O295    1.272   .     A
C265   C268    1.447   .     S
C265   O293    1.273   .     A
C266   O294    1.283   .     A
C266   C267    1.469   .     S
C266   O296    1.287   .     A
C267   C271    1.397   .     A
C269   C273    1.402   .     A
C269   H291    1.084   .     S
C270   O298    1.399   .     S
C270   O297    1.223   .     D
C270   C321    1.487   .     S
C271   C272    1.407   .     A
C271   H280    1.074   .     S
C272   C274    1.426   .     A
C272   C273    1.418   .     A
C273   C835    1.390   .     S
C274   C833    1.426   .     S
C275   C276    1.416   .     A
C275   C832    1.426   1_554 S
C276   C277    1.386   .     A
C276   H281    1.076   .     S
C277   H278    1.084   .     S
C277   C831    1.390   1_554 S
H283   O298    1.014   .     S
H287   C448    1.086   .     S
O292   Zn309   1.941   .     S
O292   Zn310   1.942   .     S
O292   Zn308   1.941   .     S
O292   Zn307   1.963   .     S
O293   Zn308   1.940   .     S
O294   Zn310   1.946   .     S
O295   Zn309   1.940   .     S
O296   Zn307   1.936   .     S
O299   Zn307   1.924   .     S
O300   Zn310   1.929   .     S
O301   Zn308   1.939   .     S
O302   Zn309   1.945   .     S
O303   Zn310   1.939   .     S
O304   Zn307   1.934   .     S
O305   Zn308   1.936   .     S
O306   Zn309   1.929   .     S
C311   C321    1.434   .     S
C311   O365    1.275   .     A
C311   O363    1.263   .     A
C312   H344    1.076   .     S
C312   C313    1.384   .     A
C312   C336    1.416   .     A
C313   H352    1.084   .     S
C313   C873    1.389   .     S
C314   C320    1.459   .     S
C314   O364    1.291   .     A
C314   O366    1.272   .     A
C315   C316    1.421   .     A
C315   C317    1.403   .     A
C315   C871    1.389   1_554 S
C316   C337    1.426   .     A
C316   C319    1.409   .     A
C317   H346    1.084   .     S
C317   C318    1.389   .     A
C318   H351    1.083   .     S
C318   C330    1.394   .     A
C319   C330    1.391   .     A
C319   H350    1.077   .     S
C320   C197    1.351   1_655 S
C320   H223    1.088   1_655 S
C322   C329    1.400   .     A
C322   H341    1.083   .     S
C322   C331    1.391   .     A
C323   C326    1.452   .     S
C323   C510    1.332   .     S
C323   H534    1.088   .     S
C324   C325    1.435   .     S
C325   O361    1.278   .     A
C325   O367    1.278   .     A
C326   O368    1.276   .     A
C326   O362    1.276   .     A
C327   O357    1.272   .     A
C327   C330    1.447   .     S
C327   O355    1.273   .     A
C328   O356    1.283   .     A
C328   C329    1.469   .     S
C328   O358    1.287   .     A
C329   C333    1.397   .     A
C331   C335    1.402   .     A
C331   H353    1.084   .     S
C332   O360    1.399   .     S
C332   O359    1.223   .     D
C332   C197    1.487   1_655 S
C333   C334    1.407   .     A
C333   H342    1.074   .     S
C334   C336    1.426   .     A
C334   C335    1.418   .     A
C335   C897    1.390   .     S
C336   C895    1.426   .     S
C337   C338    1.416   .     A
C337   C894    1.426   1_554 S
C338   C339    1.386   .     A
C338   H343    1.076   .     S
C339   H340    1.084   .     S
C339   C893    1.390   1_554 S
H345   O360    1.014   .     S
H349   C510    1.086   .     S
O354   Zn371   1.941   .     S
O354   Zn372   1.942   .     S
O354   Zn370   1.941   .     S
O354   Zn369   1.963   .     S
O355   Zn370   1.940   .     S
O356   Zn372   1.946   .     S
O357   Zn371   1.940   .     S
O358   Zn369   1.936   .     S
O361   Zn369   1.924   .     S
O362   Zn372   1.929   .     S
O363   Zn370   1.939   .     S
O364   Zn371   1.945   .     S
O365   Zn372   1.939   .     S
O366   Zn369   1.934   .     S
O367   Zn370   1.936   .     S
O368   Zn371   1.929   .     S
C373   C383    1.434   .     S
C373   O427    1.275   .     A
C373   O425    1.263   .     A
C374   H406    1.076   .     S
C374   C375    1.384   .     A
C374   C398    1.416   .     A
C375   H414    1.084   .     S
C375   C935    1.389   .     S
C376   C382    1.459   .     S
C376   O426    1.291   .     A
C376   O428    1.272   .     A
C377   C378    1.421   .     A
C377   C379    1.403   .     A
C377   C933    1.389   1_554 S
C378   C399    1.426   .     A
C378   C381    1.409   .     A
C379   H408    1.084   .     S
C379   C380    1.389   .     A
C380   H413    1.083   .     S
C380   C392    1.394   .     A
C381   C392    1.391   .     A
C381   H412    1.077   .     S
C382   C445    1.351   .     S
C382   H471    1.088   .     S
C383   C506    1.351   1_455 S
C383   C518    1.487   1_455 S
C384   C391    1.400   .     A
C384   H403    1.083   .     S
C384   C393    1.391   .     A
C385   C388    1.452   .     S
C385   C14     1.332   1_565 S
C385   H38     1.088   1_565 S
C386   C387    1.435   .     S
C387   O423    1.278   .     A
C387   O429    1.278   .     A
C388   O430    1.276   .     A
C388   O424    1.276   .     A
C389   O419    1.272   .     A
C389   C392    1.447   .     S
C389   O417    1.273   .     A
C390   O418    1.283   .     A
C390   C391    1.469   .     S
C390   O420    1.287   .     A
C391   C395    1.397   .     A
C393   C397    1.402   .     A
C393   H415    1.084   .     S
C394   O422    1.399   .     S
C394   O421    1.223   .     D
C394   C445    1.487   .     S
C395   C396    1.407   .     A
C395   H404    1.074   .     S
C396   C398    1.426   .     A
C396   C397    1.418   .     A
C397   C959    1.390   .     S
C398   C957    1.426   .     S
C399   C400    1.416   .     A
C399   C956    1.426   1_554 S
C400   C401    1.386   .     A
C400   H405    1.076   .     S
C401   H402    1.084   .     S
C401   C955    1.390   1_554 S
H407   O422    1.014   .     S
H409   C506    1.088   1_455 S
H411   C14     1.086   1_565 S
O416   Zn433   1.941   .     S
O416   Zn434   1.942   .     S
O416   Zn432   1.941   .     S
O416   Zn431   1.963   .     S
O417   Zn432   1.940   .     S
O418   Zn434   1.946   .     S
O419   Zn433   1.940   .     S
O420   Zn431   1.936   .     S
O423   Zn431   1.924   .     S
O424   Zn434   1.929   .     S
O425   Zn432   1.939   .     S
O426   Zn433   1.945   .     S
O427   Zn434   1.939   .     S
O428   Zn431   1.934   .     S
O429   Zn432   1.936   .     S
O430   Zn433   1.929   .     S
C435   C445    1.434   .     S
C435   O489    1.275   .     A
C435   O487    1.263   .     A
C436   H468    1.076   .     S
C436   C437    1.384   .     A
C436   C460    1.416   .     A
C437   H476    1.084   .     S
C437   C997    1.389   .     S
C438   C444    1.459   .     S
C438   O488    1.291   .     A
C438   O490    1.272   .     A
C439   C440    1.421   .     A
C439   C441    1.403   .     A
C439   C995    1.389   1_554 S
C440   C461    1.426   .     A
C440   C443    1.409   .     A
C441   H470    1.084   .     S
C441   C442    1.389   .     A
C442   H475    1.083   .     S
C442   C454    1.394   .     A
C443   C454    1.391   .     A
C443   H474    1.077   .     S
C444   C507    1.351   .     S
C444   H533    1.088   .     S
C446   C453    1.400   .     A
C446   H465    1.083   .     S
C446   C455    1.391   .     A
C447   C450    1.452   .     S
C447   C76     1.332   1_565 S
C447   H100    1.088   1_565 S
C448   C449    1.435   .     S
C449   O485    1.278   .     A
C449   O491    1.278   .     A
C450   O492    1.276   .     A
C450   O486    1.276   .     A
C451   O481    1.272   .     A
C451   C454    1.447   .     S
C451   O479    1.273   .     A
C452   O480    1.283   .     A
C452   C453    1.469   .     S
C452   O482    1.287   .     A
C453   C457    1.397   .     A
C455   C459    1.402   .     A
C455   H477    1.084   .     S
C456   O484    1.399   .     S
C456   O483    1.223   .     D
C456   C507    1.487   .     S
C457   C458    1.407   .     A
C457   H466    1.074   .     S
C458   C460    1.426   .     A
C458   C459    1.418   .     A
C459   C1021   1.390   .     S
C460   C1019   1.426   .     S
C461   C462    1.416   .     A
C461   C1018   1.426   1_554 S
C462   C463    1.386   .     A
C462   H467    1.076   .     S
C463   H464    1.084   .     S
C463   C1017   1.390   1_554 S
H469   O484    1.014   .     S
H473   C76     1.086   1_565 S
O478   Zn495   1.941   .     S
O478   Zn496   1.942   .     S
O478   Zn494   1.941   .     S
O478   Zn493   1.963   .     S
O479   Zn494   1.940   .     S
O480   Zn496   1.946   .     S
O481   Zn495   1.940   .     S
O482   Zn493   1.936   .     S
O485   Zn493   1.924   .     S
O486   Zn496   1.929   .     S
O487   Zn494   1.939   .     S
O488   Zn495   1.945   .     S
O489   Zn496   1.939   .     S
O490   Zn493   1.934   .     S
O491   Zn494   1.936   .     S
O492   Zn495   1.929   .     S
C497   C507    1.434   .     S
C497   O551    1.275   .     A
C497   O549    1.263   .     A
C498   H530    1.076   .     S
C498   C499    1.384   .     A
C498   C522    1.416   .     A
C499   H538    1.084   .     S
C499   C1059   1.389   .     S
C500   C506    1.459   .     S
C500   O550    1.291   .     A
C500   O552    1.272   .     A
C501   C502    1.421   .     A
C501   C503    1.403   .     A
C501   C1057   1.389   1_554 S
C502   C523    1.426   .     A
C502   C505    1.409   .     A
C503   H532    1.084   .     S
C503   C504    1.389   .     A
C504   H537    1.083   .     S
C504   C516    1.394   .     A
C505   C516    1.391   .     A
C505   H536    1.077   .     S
C506   C383    1.351   1_655 S
C506   H409    1.088   1_655 S
C508   C515    1.400   .     A
C508   H527    1.083   .     S
C508   C517    1.391   .     A
C509   C512    1.452   .     S
C509   C138    1.332   1_565 S
C509   H162    1.088   1_565 S
C510   C511    1.435   .     S
C511   O547    1.278   .     A
C511   O553    1.278   .     A
C512   O554    1.276   .     A
C512   O548    1.276   .     A
C513   O543    1.272   .     A
C513   C516    1.447   .     S
C513   O541    1.273   .     A
C514   O542    1.283   .     A
C514   C515    1.469   .     S
C514   O544    1.287   .     A
C515   C519    1.397   .     A
C517   C521    1.402   .     A
C517   H539    1.084   .     S
C518   O546    1.399   .     S
C518   O545    1.223   .     D
C518   C383    1.487   1_655 S
C519   C520    1.407   .     A
C519   H528    1.074   .     S
C520   C522    1.426   .     A
C520   C521    1.418   .     A
C521   C1083   1.390   .     S
C522   C1081   1.426   .     S
C523   C524    1.416   .     A
C523   C1080   1.426   1_554 S
C524   C525    1.386   .     A
C524   H529    1.076   .     S
C525   H526    1.084   .     S
C525   C1079   1.390   1_554 S
H531   O546    1.014   .     S
H535   C138    1.086   1_565 S
O540   Zn557   1.941   .     S
O540   Zn558   1.942   .     S
O540   Zn556   1.941   .     S
O540   Zn555   1.963   .     S
O541   Zn556   1.940   .     S
O542   Zn558   1.946   .     S
O543   Zn557   1.940   .     S
O544   Zn555   1.936   .     S
O547   Zn555   1.924   .     S
O548   Zn558   1.929   .     S
O549   Zn556   1.939   .     S
O550   Zn557   1.945   .     S
O551   Zn558   1.939   .     S
O552   Zn555   1.934   .     S
O553   Zn556   1.936   .     S
O554   Zn557   1.929   .     S
C559   C569    1.434   .     S
C559   O613    1.275   .     A
C559   O611    1.263   .     A
C560   H592    1.076   .     S
C560   C561    1.384   .     A
C560   C584    1.416   .     A
C561   H600    1.084   .     S
C561   C5      1.389   1_556 S
C562   C568    1.459   .     S
C562   O612    1.291   .     A
C562   O614    1.272   .     A
C563   C564    1.421   .     A
C563   C565    1.403   .     A
C564   C585    1.426   .     A
C564   C567    1.409   .     A
C565   H594    1.084   .     S
C565   C566    1.389   .     A
C566   H599    1.083   .     S
C566   C578    1.394   .     A
C567   C578    1.391   .     A
C567   H598    1.077   .     S
C568   C631    1.351   .     S
C568   H657    1.088   .     S
C569   C692    1.351   1_455 S
C569   C704    1.487   1_455 S
C570   C577    1.400   .     A
C570   H589    1.083   .     S
C570   C579    1.391   .     A
C571   C574    1.452   .     S
C571   C758    1.332   .     S
C571   H782    1.088   .     S
C572   C573    1.435   .     S
C572   C943    1.332   1_545 S
C572   H969    1.086   1_545 S
C573   O609    1.278   .     A
C573   O615    1.278   .     A
C574   O616    1.276   .     A
C574   O610    1.276   .     A
C575   O605    1.272   .     A
C575   C578    1.447   .     S
C575   O603    1.273   .     A
C576   O604    1.283   .     A
C576   C577    1.469   .     S
C576   O606    1.287   .     A
C577   C581    1.397   .     A
C579   C583    1.402   .     A
C579   H601    1.084   .     S
C580   O608    1.399   .     S
C580   O607    1.223   .     D
C580   C631    1.487   .     S
C581   C582    1.407   .     A
C581   H590    1.074   .     S
C582   C584    1.426   .     A
C582   C583    1.418   .     A
C583   C29     1.390   1_556 S
C584   C27     1.426   1_556 S
C585   C586    1.416   .     A
C586   C587    1.386   .     A
C586   H591    1.076   .     S
C587   H588    1.084   .     S
H593   O608    1.014   .     S
H595   C692    1.088   1_455 S
H596   C943    1.088   1_545 S
H597   C758    1.086   .     S
O602   Zn619   1.941   .     S
O602   Zn620   1.942   .     S
O602   Zn618   1.941   .     S
O602   Zn617   1.963   .     S
O603   Zn618   1.940   .     S
O604   Zn620   1.946   .     S
O605   Zn619   1.940   .     S
O606   Zn617   1.936   .     S
O609   Zn617   1.924   .     S
O610   Zn620   1.929   .     S
O611   Zn618   1.939   .     S
O612   Zn619   1.945   .     S
O613   Zn620   1.939   .     S
O614   Zn617   1.934   .     S
O615   Zn618   1.936   .     S
O616   Zn619   1.929   .     S
C621   C631    1.434   .     S
C621   O675    1.275   .     A
C621   O673    1.263   .     A
C622   H654    1.076   .     S
C622   C623    1.384   .     A
C622   C646    1.416   .     A
C623   H662    1.084   .     S
C623   C67     1.389   1_556 S
C624   C630    1.459   .     S
C624   O674    1.291   .     A
C624   O676    1.272   .     A
C625   C626    1.421   .     A
C625   C627    1.403   .     A
C626   C647    1.426   .     A
C626   C629    1.409   .     A
C627   H656    1.084   .     S
C627   C628    1.389   .     A
C628   H661    1.083   .     S
C628   C640    1.394   .     A
C629   C640    1.391   .     A
C629   H660    1.077   .     S
C630   C693    1.351   .     S
C630   H719    1.088   .     S
C632   C639    1.400   .     A
C632   H651    1.083   .     S
C632   C641    1.391   .     A
C633   C636    1.452   .     S
C633   C820    1.332   .     S
C633   H844    1.088   .     S
C634   C635    1.435   .     S
C634   C1005   1.332   1_545 S
C634   H1031   1.086   1_545 S
C635   O671    1.278   .     A
C635   O677    1.278   .     A
C636   O678    1.276   .     A
C636   O672    1.276   .     A
C637   O667    1.272   .     A
C637   C640    1.447   .     S
C637   O665    1.273   .     A
C638   O666    1.283   .     A
C638   C639    1.469   .     S
C638   O668    1.287   .     A
C639   C643    1.397   .     A
C641   C645    1.402   .     A
C641   H663    1.084   .     S
C642   O670    1.399   .     S
C642   O669    1.223   .     D
C642   C693    1.487   .     S
C643   C644    1.407   .     A
C643   H652    1.074   .     S
C644   C646    1.426   .     A
C644   C645    1.418   .     A
C645   C91     1.390   1_556 S
C646   C89     1.426   1_556 S
C647   C648    1.416   .     A
C648   C649    1.386   .     A
C648   H653    1.076   .     S
C649   H650    1.084   .     S
H655   O670    1.014   .     S
H658   C1005   1.088   1_545 S
H659   C820    1.086   .     S
O664   Zn681   1.941   .     S
O664   Zn682   1.942   .     S
O664   Zn680   1.941   .     S
O664   Zn679   1.963   .     S
O665   Zn680   1.940   .     S
O666   Zn682   1.946   .     S
O667   Zn681   1.940   .     S
O668   Zn679   1.936   .     S
O671   Zn679   1.924   .     S
O672   Zn682   1.929   .     S
O673   Zn680   1.939   .     S
O674   Zn681   1.945   .     S
O675   Zn682   1.939   .     S
O676   Zn679   1.934   .     S
O677   Zn680   1.936   .     S
O678   Zn681   1.929   .     S
C683   C693    1.434   .     S
C683   O737    1.275   .     A
C683   O735    1.263   .     A
C684   H716    1.076   .     S
C684   C685    1.384   .     A
C684   C708    1.416   .     A
C685   H724    1.084   .     S
C685   C129    1.389   1_556 S
C686   C692    1.459   .     S
C686   O736    1.291   .     A
C686   O738    1.272   .     A
C687   C688    1.421   .     A
C687   C689    1.403   .     A
C688   C709    1.426   .     A
C688   C691    1.409   .     A
C689   H718    1.084   .     S
C689   C690    1.389   .     A
C690   H723    1.083   .     S
C690   C702    1.394   .     A
C691   C702    1.391   .     A
C691   H722    1.077   .     S
C692   C569    1.351   1_655 S
C692   H595    1.088   1_655 S
C694   C701    1.400   .     A
C694   H713    1.083   .     S
C694   C703    1.391   .     A
C695   C698    1.452   .     S
C695   C882    1.332   .     S
C695   H906    1.088   .     S
C696   C697    1.435   .     S
C696   C1067   1.332   1_545 S
C696   H1093   1.086   1_545 S
C697   O733    1.278   .     A
C697   O739    1.278   .     A
C698   O740    1.276   .     A
C698   O734    1.276   .     A
C699   O729    1.272   .     A
C699   C702    1.447   .     S
C699   O727    1.273   .     A
C700   O728    1.283   .     A
C700   C701    1.469   .     S
C700   O730    1.287   .     A
C701   C705    1.397   .     A
C703   C707    1.402   .     A
C703   H725    1.084   .     S
C704   O732    1.399   .     S
C704   O731    1.223   .     D
C704   C569    1.487   1_655 S
C705   C706    1.407   .     A
C705   H714    1.074   .     S
C706   C708    1.426   .     A
C706   C707    1.418   .     A
C707   C153    1.390   1_556 S
C708   C151    1.426   1_556 S
C709   C710    1.416   .     A
C710   C711    1.386   .     A
C710   H715    1.076   .     S
C711   H712    1.084   .     S
H717   O732    1.014   .     S
H720   C1067   1.088   1_545 S
H721   C882    1.086   .     S
O726   Zn743   1.941   .     S
O726   Zn744   1.942   .     S
O726   Zn742   1.941   .     S
O726   Zn741   1.963   .     S
O727   Zn742   1.940   .     S
O728   Zn744   1.946   .     S
O729   Zn743   1.940   .     S
O730   Zn741   1.936   .     S
O733   Zn741   1.924   .     S
O734   Zn744   1.929   .     S
O735   Zn742   1.939   .     S
O736   Zn743   1.945   .     S
O737   Zn744   1.939   .     S
O738   Zn741   1.934   .     S
O739   Zn742   1.936   .     S
O740   Zn743   1.929   .     S
C745   C755    1.434   .     S
C745   O799    1.275   .     A
C745   O797    1.263   .     A
C746   H778    1.076   .     S
C746   C747    1.384   .     A
C746   C770    1.416   .     A
C747   H786    1.084   .     S
C747   C191    1.389   1_556 S
C748   C754    1.459   .     S
C748   O798    1.291   .     A
C748   O800    1.272   .     A
C749   C750    1.421   .     A
C749   C751    1.403   .     A
C750   C771    1.426   .     A
C750   C753    1.409   .     A
C751   H780    1.084   .     S
C751   C752    1.389   .     A
C752   H785    1.083   .     S
C752   C764    1.394   .     A
C753   C764    1.391   .     A
C753   H784    1.077   .     S
C754   C817    1.351   .     S
C754   H843    1.088   .     S
C755   C878    1.351   1_455 S
C755   C890    1.487   1_455 S
C756   C763    1.400   .     A
C756   H775    1.083   .     S
C756   C765    1.391   .     A
C757   C760    1.452   .     S
C757   C944    1.332   .     S
C757   H968    1.088   .     S
C758   C759    1.435   .     S
C759   O795    1.278   .     A
C759   O801    1.278   .     A
C760   O802    1.276   .     A
C760   O796    1.276   .     A
C761   O791    1.272   .     A
C761   C764    1.447   .     S
C761   O789    1.273   .     A
C762   O790    1.283   .     A
C762   C763    1.469   .     S
C762   O792    1.287   .     A
C763   C767    1.397   .     A
C765   C769    1.402   .     A
C765   H787    1.084   .     S
C766   O794    1.399   .     S
C766   O793    1.223   .     D
C766   C817    1.487   .     S
C767   C768    1.407   .     A
C767   H776    1.074   .     S
C768   C770    1.426   .     A
C768   C769    1.418   .     A
C769   C215    1.390   1_556 S
C770   C213    1.426   1_556 S
C771   C772    1.416   .     A
C772   C773    1.386   .     A
C772   H777    1.076   .     S
C773   H774    1.084   .     S
H779   O794    1.014   .     S
H781   C878    1.088   1_455 S
H783   C944    1.086   .     S
O788   Zn805   1.941   .     S
O788   Zn806   1.942   .     S
O788   Zn804   1.941   .     S
O788   Zn803   1.963   .     S
O789   Zn804   1.940   .     S
O790   Zn806   1.946   .     S
O791   Zn805   1.940   .     S
O792   Zn803   1.936   .     S
O795   Zn803   1.924   .     S
O796   Zn806   1.929   .     S
O797   Zn804   1.939   .     S
O798   Zn805   1.945   .     S
O799   Zn806   1.939   .     S
O800   Zn803   1.934   .     S
O801   Zn804   1.936   .     S
O802   Zn805   1.929   .     S
C807   C817    1.434   .     S
C807   O861    1.275   .     A
C807   O859    1.263   .     A
C808   H840    1.076   .     S
C808   C809    1.384   .     A
C808   C832    1.416   .     A
C809   H848    1.084   .     S
C809   C253    1.389   1_556 S
C810   C816    1.459   .     S
C810   O860    1.291   .     A
C810   O862    1.272   .     A
C811   C812    1.421   .     A
C811   C813    1.403   .     A
C812   C833    1.426   .     A
C812   C815    1.409   .     A
C813   H842    1.084   .     S
C813   C814    1.389   .     A
C814   H847    1.083   .     S
C814   C826    1.394   .     A
C815   C826    1.391   .     A
C815   H846    1.077   .     S
C816   C879    1.351   .     S
C816   H905    1.088   .     S
C818   C825    1.400   .     A
C818   H837    1.083   .     S
C818   C827    1.391   .     A
C819   C822    1.452   .     S
C819   C1006   1.332   .     S
C819   H1030   1.088   .     S
C820   C821    1.435   .     S
C821   O857    1.278   .     A
C821   O863    1.278   .     A
C822   O864    1.276   .     A
C822   O858    1.276   .     A
C823   O853    1.272   .     A
C823   C826    1.447   .     S
C823   O851    1.273   .     A
C824   O852    1.283   .     A
C824   C825    1.469   .     S
C824   O854    1.287   .     A
C825   C829    1.397   .     A
C827   C831    1.402   .     A
C827   H849    1.084   .     S
C828   O856    1.399   .     S
C828   O855    1.223   .     D
C828   C879    1.487   .     S
C829   C830    1.407   .     A
C829   H838    1.074   .     S
C830   C832    1.426   .     A
C830   C831    1.418   .     A
C831   C277    1.390   1_556 S
C832   C275    1.426   1_556 S
C833   C834    1.416   .     A
C834   C835    1.386   .     A
C834   H839    1.076   .     S
C835   H836    1.084   .     S
H841   O856    1.014   .     S
H845   C1006   1.086   .     S
O850   Zn867   1.941   .     S
O850   Zn868   1.942   .     S
O850   Zn866   1.941   .     S
O850   Zn865   1.963   .     S
O851   Zn866   1.940   .     S
O852   Zn868   1.946   .     S
O853   Zn867   1.940   .     S
O854   Zn865   1.936   .     S
O857   Zn865   1.924   .     S
O858   Zn868   1.929   .     S
O859   Zn866   1.939   .     S
O860   Zn867   1.945   .     S
O861   Zn868   1.939   .     S
O862   Zn865   1.934   .     S
O863   Zn866   1.936   .     S
O864   Zn867   1.929   .     S
C869   C879    1.434   .     S
C869   O923    1.275   .     A
C869   O921    1.263   .     A
C870   H902    1.076   .     S
C870   C871    1.384   .     A
C870   C894    1.416   .     A
C871   H910    1.084   .     S
C871   C315    1.389   1_556 S
C872   C878    1.459   .     S
C872   O922    1.291   .     A
C872   O924    1.272   .     A
C873   C874    1.421   .     A
C873   C875    1.403   .     A
C874   C895    1.426   .     A
C874   C877    1.409   .     A
C875   H904    1.084   .     S
C875   C876    1.389   .     A
C876   H909    1.083   .     S
C876   C888    1.394   .     A
C877   C888    1.391   .     A
C877   H908    1.077   .     S
C878   C755    1.351   1_655 S
C878   H781    1.088   1_655 S
C880   C887    1.400   .     A
C880   H899    1.083   .     S
C880   C889    1.391   .     A
C881   C884    1.452   .     S
C881   C1068   1.332   .     S
C881   H1092   1.088   .     S
C882   C883    1.435   .     S
C883   O919    1.278   .     A
C883   O925    1.278   .     A
C884   O926    1.276   .     A
C884   O920    1.276   .     A
C885   O915    1.272   .     A
C885   C888    1.447   .     S
C885   O913    1.273   .     A
C886   O914    1.283   .     A
C886   C887    1.469   .     S
C886   O916    1.287   .     A
C887   C891    1.397   .     A
C889   C893    1.402   .     A
C889   H911    1.084   .     S
C890   O918    1.399   .     S
C890   O917    1.223   .     D
C890   C755    1.487   1_655 S
C891   C892    1.407   .     A
C891   H900    1.074   .     S
C892   C894    1.426   .     A
C892   C893    1.418   .     A
C893   C339    1.390   1_556 S
C894   C337    1.426   1_556 S
C895   C896    1.416   .     A
C896   C897    1.386   .     A
C896   H901    1.076   .     S
C897   H898    1.084   .     S
H903   O918    1.014   .     S
H907   C1068   1.086   .     S
O912   Zn929   1.941   .     S
O912   Zn930   1.942   .     S
O912   Zn928   1.941   .     S
O912   Zn927   1.963   .     S
O913   Zn928   1.940   .     S
O914   Zn930   1.946   .     S
O915   Zn929   1.940   .     S
O916   Zn927   1.936   .     S
O919   Zn927   1.924   .     S
O920   Zn930   1.929   .     S
O921   Zn928   1.939   .     S
O922   Zn929   1.945   .     S
O923   Zn930   1.939   .     S
O924   Zn927   1.934   .     S
O925   Zn928   1.936   .     S
O926   Zn929   1.929   .     S
C931   C941    1.434   .     S
C931   O985    1.275   .     A
C931   O983    1.263   .     A
C932   H964    1.076   .     S
C932   C933    1.384   .     A
C932   C956    1.416   .     A
C933   H972    1.084   .     S
C933   C377    1.389   1_556 S
C934   C940    1.459   .     S
C934   O984    1.291   .     A
C934   O986    1.272   .     A
C935   C936    1.421   .     A
C935   C937    1.403   .     A
C936   C957    1.426   .     A
C936   C939    1.409   .     A
C937   H966    1.084   .     S
C937   C938    1.389   .     A
C938   H971    1.083   .     S
C938   C950    1.394   .     A
C939   C950    1.391   .     A
C939   H970    1.077   .     S
C940   C1003   1.351   .     S
C940   H1029   1.088   .     S
C941   C1064   1.351   1_455 S
C941   C1076   1.487   1_455 S
C942   C949    1.400   .     A
C942   H961    1.083   .     S
C942   C951    1.391   .     A
C943   C946    1.452   .     S
C943   C572    1.332   1_565 S
C943   H596    1.088   1_565 S
C944   C945    1.435   .     S
C945   O981    1.278   .     A
C945   O987    1.278   .     A
C946   O988    1.276   .     A
C946   O982    1.276   .     A
C947   O977    1.272   .     A
C947   C950    1.447   .     S
C947   O975    1.273   .     A
C948   O976    1.283   .     A
C948   C949    1.469   .     S
C948   O978    1.287   .     A
C949   C953    1.397   .     A
C951   C955    1.402   .     A
C951   H973    1.084   .     S
C952   O980    1.399   .     S
C952   O979    1.223   .     D
C952   C1003   1.487   .     S
C953   C954    1.407   .     A
C953   H962    1.074   .     S
C954   C956    1.426   .     A
C954   C955    1.418   .     A
C955   C401    1.390   1_556 S
C956   C399    1.426   1_556 S
C957   C958    1.416   .     A
C958   C959    1.386   .     A
C958   H963    1.076   .     S
C959   H960    1.084   .     S
H965   O980    1.014   .     S
H967   C1064   1.088   1_455 S
H969   C572    1.086   1_565 S
O974   Zn991   1.941   .     S
O974   Zn992   1.942   .     S
O974   Zn990   1.941   .     S
O974   Zn989   1.963   .     S
O975   Zn990   1.940   .     S
O976   Zn992   1.946   .     S
O977   Zn991   1.940   .     S
O978   Zn989   1.936   .     S
O981   Zn989   1.924   .     S
O982   Zn992   1.929   .     S
O983   Zn990   1.939   .     S
O984   Zn991   1.945   .     S
O985   Zn992   1.939   .     S
O986   Zn989   1.934   .     S
O987   Zn990   1.936   .     S
O988   Zn991   1.929   .     S
C993   C1003   1.434   .     S
C993   O1047   1.275   .     A
C993   O1045   1.263   .     A
C994   H1026   1.076   .     S
C994   C995    1.384   .     A
C994   C1018   1.416   .     A
C995   H1034   1.084   .     S
C995   C439    1.389   1_556 S
C996   C1002   1.459   .     S
C996   O1046   1.291   .     A
C996   O1048   1.272   .     A
C997   C998    1.421   .     A
C997   C999    1.403   .     A
C998   C1019   1.426   .     A
C998   C1001   1.409   .     A
C999   H1028   1.084   .     S
C999   C1000   1.389   .     A
C1000  H1033   1.083   .     S
C1000  C1012   1.394   .     A
C1001  C1012   1.391   .     A
C1001  H1032   1.077   .     S
C1002  C1065   1.351   .     S
C1002  H1091   1.088   .     S
C1004  C1011   1.400   .     A
C1004  H1023   1.083   .     S
C1004  C1013   1.391   .     A
C1005  C1008   1.452   .     S
C1005  C634    1.332   1_565 S
C1005  H658    1.088   1_565 S
C1006  C1007   1.435   .     S
C1007  O1043   1.278   .     A
C1007  O1049   1.278   .     A
C1008  O1050   1.276   .     A
C1008  O1044   1.276   .     A
C1009  O1039   1.272   .     A
C1009  C1012   1.447   .     S
C1009  O1037   1.273   .     A
C1010  O1038   1.283   .     A
C1010  C1011   1.469   .     S
C1010  O1040   1.287   .     A
C1011  C1015   1.397   .     A
C1013  C1017   1.402   .     A
C1013  H1035   1.084   .     S
C1014  O1042   1.399   .     S
C1014  O1041   1.223   .     D
C1014  C1065   1.487   .     S
C1015  C1016   1.407   .     A
C1015  H1024   1.074   .     S
C1016  C1018   1.426   .     A
C1016  C1017   1.418   .     A
C1017  C463    1.390   1_556 S
C1018  C461    1.426   1_556 S
C1019  C1020   1.416   .     A
C1020  C1021   1.386   .     A
C1020  H1025   1.076   .     S
C1021  H1022   1.084   .     S
H1027  O1042   1.014   .     S
H1031  C634    1.086   1_565 S
O1036  Zn1053  1.941   .     S
O1036  Zn1054  1.942   .     S
O1036  Zn1052  1.941   .     S
O1036  Zn1051  1.963   .     S
O1037  Zn1052  1.940   .     S
O1038  Zn1054  1.946   .     S
O1039  Zn1053  1.940   .     S
O1040  Zn1051  1.936   .     S
O1043  Zn1051  1.924   .     S
O1044  Zn1054  1.929   .     S
O1045  Zn1052  1.939   .     S
O1046  Zn1053  1.945   .     S
O1047  Zn1054  1.939   .     S
O1048  Zn1051  1.934   .     S
O1049  Zn1052  1.936   .     S
O1050  Zn1053  1.929   .     S
C1055  C1065   1.434   .     S
C1055  O1109   1.275   .     A
C1055  O1107   1.263   .     A
C1056  H1088   1.076   .     S
C1056  C1057   1.384   .     A
C1056  C1080   1.416   .     A
C1057  H1096   1.084   .     S
C1057  C501    1.389   1_556 S
C1058  C1064   1.459   .     S
C1058  O1108   1.291   .     A
C1058  O1110   1.272   .     A
C1059  C1060   1.421   .     A
C1059  C1061   1.403   .     A
C1060  C1081   1.426   .     A
C1060  C1063   1.409   .     A
C1061  H1090   1.084   .     S
C1061  C1062   1.389   .     A
C1062  H1095   1.083   .     S
C1062  C1074   1.394   .     A
C1063  C1074   1.391   .     A
C1063  H1094   1.077   .     S
C1064  C941    1.351   1_655 S
C1064  H967    1.088   1_655 S
C1066  C1073   1.400   .     A
C1066  H1085   1.083   .     S
C1066  C1075   1.391   .     A
C1067  C1070   1.452   .     S
C1067  C696    1.332   1_565 S
C1067  H720    1.088   1_565 S
C1068  C1069   1.435   .     S
C1069  O1105   1.278   .     A
C1069  O1111   1.278   .     A
C1070  O1112   1.276   .     A
C1070  O1106   1.276   .     A
C1071  O1101   1.272   .     A
C1071  C1074   1.447   .     S
C1071  O1099   1.273   .     A
C1072  O1100   1.283   .     A
C1072  C1073   1.469   .     S
C1072  O1102   1.287   .     A
C1073  C1077   1.397   .     A
C1075  C1079   1.402   .     A
C1075  H1097   1.084   .     S
C1076  O1104   1.399   .     S
C1076  O1103   1.223   .     D
C1076  C941    1.487   1_655 S
C1077  C1078   1.407   .     A
C1077  H1086   1.074   .     S
C1078  C1080   1.426   .     A
C1078  C1079   1.418   .     A
C1079  C525    1.390   1_556 S
C1080  C523    1.426   1_556 S
C1081  C1082   1.416   .     A
C1082  C1083   1.386   .     A
C1082  H1087   1.076   .     S
C1083  H1084   1.084   .     S
H1089  O1104   1.014   .     S
H1093  C696    1.086   1_565 S
O1098  Zn1115  1.941   .     S
O1098  Zn1116  1.942   .     S
O1098  Zn1114  1.941   .     S
O1098  Zn1113  1.963   .     S
O1099  Zn1114  1.940   .     S
O1100  Zn1116  1.946   .     S
O1101  Zn1115  1.940   .     S
O1102  Zn1113  1.936   .     S
O1105  Zn1113  1.924   .     S
O1106  Zn1116  1.929   .     S
O1107  Zn1114  1.939   .     S
O1108  Zn1115  1.945   .     S
O1109  Zn1116  1.939   .     S
O1110  Zn1113  1.934   .     S
O1111  Zn1114  1.936   .     S
O1112  Zn1115  1.929   .     S
