data_str_m2_o10_o18_pcu_sym.169
_audit_creation_date              2020-01-03
_audit_creation_method            'Materials Studio'
_symmetry_space_group_name_H-M    'P1'
_symmetry_Int_Tables_number       1
_symmetry_cell_setting            triclinic
loop_
_symmetry_equiv_pos_as_xyz
  x,y,z
_cell_length_a                    22.3424
_cell_length_b                    26.0845
_cell_length_c                    31.5514
_cell_angle_alpha                 94.2574
_cell_angle_beta                  74.9706
_cell_angle_gamma                 103.1624
loop_
_atom_site_label
_atom_site_type_symbol
_atom_site_fract_x
_atom_site_fract_y
_atom_site_fract_z
_atom_site_U_iso_or_equiv
_atom_site_adp_type
_atom_site_occupancy
C1     C     0.18169   0.26670   0.25130   0.00000  Uiso   1.00
C2     C     0.15165   0.06663   0.24870   0.00000  Uiso   1.00
C3     C     0.08905   0.13705   0.04138   0.00000  Uiso   1.00
C4     C     0.24269   0.18673   0.45805   0.00000  Uiso   1.00
C5     C     0.04867   0.11779   0.01372   0.00000  Uiso   1.00
C6     C     0.28276   0.20774   0.48497   0.00000  Uiso   1.00
C7     C     0.19013   0.32268   0.25193   0.00000  Uiso   1.00
C8     C     0.14320   0.01066   0.24808   0.00000  Uiso   1.00
C9     C     0.12791   0.16230   0.33311   0.00000  Uiso   1.00
C10    C     0.20536   0.17072   0.16687   0.00000  Uiso   1.00
C11    C     0.10399   0.15371   0.38044   0.00000  Uiso   1.00
C12    C     0.22884   0.17754   0.11930   0.00000  Uiso   1.00
C13    C     0.02636   0.10930   0.44233   0.00000  Uiso   1.00
C14    C     0.30595   0.21901   0.05600   0.00000  Uiso   1.00
C15    C     0.04467   0.12137   0.39789   0.00000  Uiso   1.00
C16    C     0.28835   0.20886   0.10077   0.00000  Uiso   1.00
C17    C     0.14487   0.17291   0.40756   0.00000  Uiso   1.00
C18    C     0.18743   0.15669   0.09284   0.00000  Uiso   1.00
C19    C     0.13119   0.15512   0.45073   0.00000  Uiso   1.00
C20    C     0.20060   0.17177   0.04891   0.00000  Uiso   1.00
C21    C     0.06899   0.12647   0.46891   0.00000  Uiso   1.00
C22    C     0.26275   0.20055   0.03000   0.00000  Uiso   1.00
C23    C     0.17651   0.16670   0.47665   0.00000  Uiso   1.00
C24    C     0.15511   0.15792   0.02293   0.00000  Uiso   1.00
Cu25   Cu    0.10737   0.16108   0.24516   0.00000  Uiso   1.00
Cu26   Cu    0.22596   0.17225   0.25483   0.00000  Uiso   1.00
H27    H     0.33275   0.09932   0.02776   0.00000  Uiso   1.00
H28    H     0.33194   0.22556   0.46999   0.00000  Uiso   1.00
H29    H     0.14612   0.12741   0.10735   0.00000  Uiso   1.00
H30    H     0.18728   0.20198   0.39417   0.00000  Uiso   1.00
H31    H     0.31239   0.08629   0.45588   0.00000  Uiso   1.00
H32    H     0.01991   0.24153   0.04169   0.00000  Uiso   1.00
H33    H     0.23535   0.01313   0.25556   0.00000  Uiso   1.00
H34    H     0.09798   0.32021   0.24445   0.00000  Uiso   1.00
N35    N     0.31506   0.18068   0.26212   0.00000  Uiso   1.00
N36    N     0.01827   0.15265   0.23788   0.00000  Uiso   1.00
O37    O     0.12815   0.23809   0.24686   0.00000  Uiso   1.00
O38    O     0.20518   0.09524   0.25314   0.00000  Uiso   1.00
O39    O     0.22829   0.24753   0.25502   0.00000  Uiso   1.00
O40    O     0.10504   0.08580   0.24497   0.00000  Uiso   1.00
O41    O     0.08851   0.15930   0.30854   0.00000  Uiso   1.00
O42    O     0.24482   0.17403   0.19145   0.00000  Uiso   1.00
O43    O     0.18866   0.16874   0.31671   0.00000  Uiso   1.00
O44    O     0.14468   0.16460   0.18329   0.00000  Uiso   1.00
H45    H     0.32105   0.22533   0.12078   0.00000  Uiso   1.00
H46    H     0.01268   0.10549   0.37725   0.00000  Uiso   1.00
O47    O     0.06310   0.13921   0.08610   0.00000  Uiso   1.00
H48    H     0.01749   0.12156   0.09315   0.00000  Uiso   1.00
O49    O     0.27157   0.18260   0.41412   0.00000  Uiso   1.00
H50    H     0.25098   0.14814   0.40331   0.00000  Uiso   1.00
H51    H     0.00121   0.20506   0.28450   0.00000  Uiso   1.00
H52    H     0.33212   0.12828   0.21550   0.00000  Uiso   1.00
C53    C     0.51502   0.26670   0.25130   0.00000  Uiso   1.00
C54    C     0.48498   0.06663   0.24870   0.00000  Uiso   1.00
C55    C     0.42238   0.13705   0.04138   0.00000  Uiso   1.00
C56    C     0.57602   0.18673   0.45805   0.00000  Uiso   1.00
C57    C     0.38200   0.11779   0.01372   0.00000  Uiso   1.00
C58    C     0.61610   0.20774   0.48497   0.00000  Uiso   1.00
C59    C     0.52346   0.32268   0.25193   0.00000  Uiso   1.00
C60    C     0.47654   0.01066   0.24808   0.00000  Uiso   1.00
C61    C     0.46125   0.16230   0.33311   0.00000  Uiso   1.00
C62    C     0.53869   0.17072   0.16687   0.00000  Uiso   1.00
C63    C     0.43732   0.15371   0.38044   0.00000  Uiso   1.00
C64    C     0.56217   0.17754   0.11930   0.00000  Uiso   1.00
C65    C     0.35970   0.10930   0.44233   0.00000  Uiso   1.00
C66    C     0.63928   0.21901   0.05600   0.00000  Uiso   1.00
C67    C     0.37800   0.12137   0.39789   0.00000  Uiso   1.00
C68    C     0.62168   0.20886   0.10077   0.00000  Uiso   1.00
C69    C     0.47820   0.17291   0.40756   0.00000  Uiso   1.00
C70    C     0.52077   0.15669   0.09284   0.00000  Uiso   1.00
C71    C     0.46452   0.15512   0.45073   0.00000  Uiso   1.00
C72    C     0.53393   0.17177   0.04891   0.00000  Uiso   1.00
C73    C     0.40232   0.12647   0.46891   0.00000  Uiso   1.00
C74    C     0.59608   0.20055   0.03000   0.00000  Uiso   1.00
C75    C     0.50985   0.16670   0.47665   0.00000  Uiso   1.00
C76    C     0.48844   0.15792   0.02293   0.00000  Uiso   1.00
Cu77   Cu    0.44071   0.16108   0.24516   0.00000  Uiso   1.00
Cu78   Cu    0.55929   0.17225   0.25483   0.00000  Uiso   1.00
H79    H     0.66608   0.09932   0.02776   0.00000  Uiso   1.00
H80    H     0.66527   0.22556   0.46999   0.00000  Uiso   1.00
H81    H     0.47945   0.12741   0.10735   0.00000  Uiso   1.00
H82    H     0.52062   0.20198   0.39417   0.00000  Uiso   1.00
H83    H     0.64573   0.08629   0.45588   0.00000  Uiso   1.00
H84    H     0.35325   0.24153   0.04169   0.00000  Uiso   1.00
H85    H     0.56869   0.01313   0.25556   0.00000  Uiso   1.00
H86    H     0.43131   0.32021   0.24445   0.00000  Uiso   1.00
N87    N     0.64839   0.18068   0.26212   0.00000  Uiso   1.00
N88    N     0.35161   0.15265   0.23788   0.00000  Uiso   1.00
O89    O     0.46148   0.23809   0.24686   0.00000  Uiso   1.00
O90    O     0.53852   0.09524   0.25314   0.00000  Uiso   1.00
O91    O     0.56163   0.24753   0.25502   0.00000  Uiso   1.00
O92    O     0.43837   0.08580   0.24497   0.00000  Uiso   1.00
O93    O     0.42185   0.15930   0.30854   0.00000  Uiso   1.00
O94    O     0.57815   0.17403   0.19145   0.00000  Uiso   1.00
O95    O     0.52199   0.16874   0.31671   0.00000  Uiso   1.00
O96    O     0.47801   0.16460   0.18329   0.00000  Uiso   1.00
H97    H     0.65439   0.22533   0.12078   0.00000  Uiso   1.00
H98    H     0.34601   0.10549   0.37725   0.00000  Uiso   1.00
O99    O     0.39643   0.13921   0.08610   0.00000  Uiso   1.00
H100   H     0.35082   0.12156   0.09315   0.00000  Uiso   1.00
O101   O     0.60490   0.18260   0.41412   0.00000  Uiso   1.00
H102   H     0.58432   0.14814   0.40331   0.00000  Uiso   1.00
H103   H     0.33455   0.20506   0.28450   0.00000  Uiso   1.00
H104   H     0.66545   0.12828   0.21550   0.00000  Uiso   1.00
C105   C     0.84835   0.26670   0.25130   0.00000  Uiso   1.00
C106   C     0.81831   0.06663   0.24870   0.00000  Uiso   1.00
C107   C     0.75571   0.13705   0.04138   0.00000  Uiso   1.00
C108   C     0.90936   0.18673   0.45805   0.00000  Uiso   1.00
C109   C     0.71534   0.11779   0.01372   0.00000  Uiso   1.00
C110   C     0.94943   0.20774   0.48497   0.00000  Uiso   1.00
C111   C     0.85680   0.32268   0.25193   0.00000  Uiso   1.00
C112   C     0.80987   0.01066   0.24808   0.00000  Uiso   1.00
C113   C     0.79458   0.16230   0.33311   0.00000  Uiso   1.00
C114   C     0.87203   0.17072   0.16687   0.00000  Uiso   1.00
C115   C     0.77065   0.15371   0.38044   0.00000  Uiso   1.00
C116   C     0.89550   0.17754   0.11930   0.00000  Uiso   1.00
C117   C     0.69303   0.10930   0.44233   0.00000  Uiso   1.00
C118   C     0.97261   0.21901   0.05600   0.00000  Uiso   1.00
C119   C     0.71133   0.12137   0.39789   0.00000  Uiso   1.00
C120   C     0.95501   0.20886   0.10077   0.00000  Uiso   1.00
C121   C     0.81153   0.17291   0.40756   0.00000  Uiso   1.00
C122   C     0.85410   0.15669   0.09284   0.00000  Uiso   1.00
C123   C     0.79785   0.15512   0.45073   0.00000  Uiso   1.00
C124   C     0.86727   0.17177   0.04891   0.00000  Uiso   1.00
C125   C     0.73566   0.12647   0.46891   0.00000  Uiso   1.00
C126   C     0.92942   0.20055   0.03000   0.00000  Uiso   1.00
C127   C     0.84318   0.16670   0.47665   0.00000  Uiso   1.00
C128   C     0.82178   0.15792   0.02293   0.00000  Uiso   1.00
Cu129  Cu    0.77404   0.16108   0.24516   0.00000  Uiso   1.00
Cu130  Cu    0.89263   0.17225   0.25483   0.00000  Uiso   1.00
H131   H     0.99942   0.09932   0.02776   0.00000  Uiso   1.00
H132   H     0.99861   0.22556   0.46999   0.00000  Uiso   1.00
H133   H     0.81279   0.12741   0.10735   0.00000  Uiso   1.00
H134   H     0.85395   0.20198   0.39417   0.00000  Uiso   1.00
H135   H     0.97906   0.08629   0.45588   0.00000  Uiso   1.00
H136   H     0.68658   0.24153   0.04169   0.00000  Uiso   1.00
H137   H     0.90202   0.01313   0.25556   0.00000  Uiso   1.00
H138   H     0.76464   0.32021   0.24445   0.00000  Uiso   1.00
N139   N     0.98173   0.18068   0.26212   0.00000  Uiso   1.00
N140   N     0.68494   0.15265   0.23788   0.00000  Uiso   1.00
O141   O     0.79482   0.23809   0.24686   0.00000  Uiso   1.00
O142   O     0.87185   0.09524   0.25314   0.00000  Uiso   1.00
O143   O     0.89496   0.24753   0.25502   0.00000  Uiso   1.00
O144   O     0.77171   0.08580   0.24497   0.00000  Uiso   1.00
O145   O     0.75518   0.15930   0.30854   0.00000  Uiso   1.00
O146   O     0.91149   0.17403   0.19145   0.00000  Uiso   1.00
O147   O     0.85532   0.16874   0.31671   0.00000  Uiso   1.00
O148   O     0.81134   0.16460   0.18329   0.00000  Uiso   1.00
H149   H     0.98772   0.22533   0.12078   0.00000  Uiso   1.00
H150   H     0.67935   0.10549   0.37725   0.00000  Uiso   1.00
O151   O     0.72976   0.13921   0.08610   0.00000  Uiso   1.00
H152   H     0.68415   0.12156   0.09315   0.00000  Uiso   1.00
O153   O     0.93824   0.18260   0.41412   0.00000  Uiso   1.00
H154   H     0.91765   0.14814   0.40331   0.00000  Uiso   1.00
H155   H     0.66788   0.20506   0.28450   0.00000  Uiso   1.00
H156   H     0.99879   0.12828   0.21550   0.00000  Uiso   1.00
C157   C     0.18169   0.60003   0.25130   0.00000  Uiso   1.00
C158   C     0.15165   0.39997   0.24870   0.00000  Uiso   1.00
C159   C     0.08905   0.47038   0.04138   0.00000  Uiso   1.00
C160   C     0.24269   0.52006   0.45805   0.00000  Uiso   1.00
C161   C     0.04867   0.45112   0.01372   0.00000  Uiso   1.00
C162   C     0.28276   0.54108   0.48497   0.00000  Uiso   1.00
C163   C     0.19013   0.65601   0.25193   0.00000  Uiso   1.00
C164   C     0.14320   0.34399   0.24808   0.00000  Uiso   1.00
C165   C     0.12791   0.49563   0.33311   0.00000  Uiso   1.00
C166   C     0.20536   0.50405   0.16687   0.00000  Uiso   1.00
C167   C     0.10399   0.48704   0.38044   0.00000  Uiso   1.00
C168   C     0.22884   0.51087   0.11930   0.00000  Uiso   1.00
C169   C     0.02636   0.44263   0.44233   0.00000  Uiso   1.00
C170   C     0.30595   0.55235   0.05600   0.00000  Uiso   1.00
C171   C     0.04467   0.45470   0.39789   0.00000  Uiso   1.00
C172   C     0.28835   0.54219   0.10077   0.00000  Uiso   1.00
C173   C     0.14487   0.50624   0.40756   0.00000  Uiso   1.00
C174   C     0.18743   0.49003   0.09284   0.00000  Uiso   1.00
C175   C     0.13119   0.48846   0.45073   0.00000  Uiso   1.00
C176   C     0.20060   0.50510   0.04891   0.00000  Uiso   1.00
C177   C     0.06899   0.45981   0.46891   0.00000  Uiso   1.00
C178   C     0.26275   0.53389   0.03000   0.00000  Uiso   1.00
C179   C     0.17651   0.50003   0.47665   0.00000  Uiso   1.00
C180   C     0.15511   0.49125   0.02293   0.00000  Uiso   1.00
Cu181  Cu    0.10737   0.49441   0.24516   0.00000  Uiso   1.00
Cu182  Cu    0.22596   0.50559   0.25483   0.00000  Uiso   1.00
H183   H     0.33275   0.43266   0.02776   0.00000  Uiso   1.00
H184   H     0.33194   0.55890   0.46999   0.00000  Uiso   1.00
H185   H     0.14612   0.46074   0.10735   0.00000  Uiso   1.00
H186   H     0.18728   0.53531   0.39417   0.00000  Uiso   1.00
H187   H     0.31239   0.41962   0.45588   0.00000  Uiso   1.00
H188   H     0.01991   0.57486   0.04169   0.00000  Uiso   1.00
H189   H     0.23535   0.34646   0.25556   0.00000  Uiso   1.00
H190   H     0.09798   0.65354   0.24445   0.00000  Uiso   1.00
N191   N     0.31506   0.51401   0.26212   0.00000  Uiso   1.00
N192   N     0.01827   0.48599   0.23788   0.00000  Uiso   1.00
O193   O     0.12815   0.57142   0.24686   0.00000  Uiso   1.00
O194   O     0.20518   0.42858   0.25314   0.00000  Uiso   1.00
O195   O     0.22829   0.58086   0.25502   0.00000  Uiso   1.00
O196   O     0.10504   0.41914   0.24497   0.00000  Uiso   1.00
O197   O     0.08851   0.49263   0.30854   0.00000  Uiso   1.00
O198   O     0.24482   0.50737   0.19145   0.00000  Uiso   1.00
O199   O     0.18866   0.50207   0.31671   0.00000  Uiso   1.00
O200   O     0.14468   0.49793   0.18329   0.00000  Uiso   1.00
H201   H     0.32105   0.55866   0.12078   0.00000  Uiso   1.00
H202   H     0.01268   0.43882   0.37725   0.00000  Uiso   1.00
O203   O     0.06310   0.47254   0.08610   0.00000  Uiso   1.00
H204   H     0.01749   0.45489   0.09315   0.00000  Uiso   1.00
O205   O     0.27157   0.51593   0.41412   0.00000  Uiso   1.00
H206   H     0.25098   0.48147   0.40331   0.00000  Uiso   1.00
H207   H     0.00121   0.53839   0.28450   0.00000  Uiso   1.00
H208   H     0.33212   0.46161   0.21550   0.00000  Uiso   1.00
C209   C     0.51502   0.60003   0.25130   0.00000  Uiso   1.00
C210   C     0.48498   0.39997   0.24870   0.00000  Uiso   1.00
C211   C     0.42238   0.47038   0.04138   0.00000  Uiso   1.00
C212   C     0.57602   0.52006   0.45805   0.00000  Uiso   1.00
C213   C     0.38200   0.45112   0.01372   0.00000  Uiso   1.00
C214   C     0.61610   0.54108   0.48497   0.00000  Uiso   1.00
C215   C     0.52346   0.65601   0.25193   0.00000  Uiso   1.00
C216   C     0.47654   0.34399   0.24808   0.00000  Uiso   1.00
C217   C     0.46125   0.49563   0.33311   0.00000  Uiso   1.00
C218   C     0.53869   0.50405   0.16687   0.00000  Uiso   1.00
C219   C     0.43732   0.48704   0.38044   0.00000  Uiso   1.00
C220   C     0.56217   0.51087   0.11930   0.00000  Uiso   1.00
C221   C     0.35970   0.44263   0.44233   0.00000  Uiso   1.00
C222   C     0.63928   0.55235   0.05600   0.00000  Uiso   1.00
C223   C     0.37800   0.45470   0.39789   0.00000  Uiso   1.00
C224   C     0.62168   0.54219   0.10077   0.00000  Uiso   1.00
C225   C     0.47820   0.50624   0.40756   0.00000  Uiso   1.00
C226   C     0.52077   0.49003   0.09284   0.00000  Uiso   1.00
C227   C     0.46452   0.48846   0.45073   0.00000  Uiso   1.00
C228   C     0.53393   0.50510   0.04891   0.00000  Uiso   1.00
C229   C     0.40232   0.45981   0.46891   0.00000  Uiso   1.00
C230   C     0.59608   0.53389   0.03000   0.00000  Uiso   1.00
C231   C     0.50985   0.50003   0.47665   0.00000  Uiso   1.00
C232   C     0.48844   0.49125   0.02293   0.00000  Uiso   1.00
Cu233  Cu    0.44071   0.49441   0.24516   0.00000  Uiso   1.00
Cu234  Cu    0.55929   0.50559   0.25483   0.00000  Uiso   1.00
H235   H     0.66608   0.43266   0.02776   0.00000  Uiso   1.00
H236   H     0.66527   0.55890   0.46999   0.00000  Uiso   1.00
H237   H     0.47945   0.46074   0.10735   0.00000  Uiso   1.00
H238   H     0.52062   0.53531   0.39417   0.00000  Uiso   1.00
H239   H     0.64573   0.41962   0.45588   0.00000  Uiso   1.00
H240   H     0.35325   0.57486   0.04169   0.00000  Uiso   1.00
H241   H     0.56869   0.34646   0.25556   0.00000  Uiso   1.00
H242   H     0.43131   0.65354   0.24445   0.00000  Uiso   1.00
N243   N     0.64839   0.51401   0.26212   0.00000  Uiso   1.00
N244   N     0.35161   0.48599   0.23788   0.00000  Uiso   1.00
O245   O     0.46148   0.57142   0.24686   0.00000  Uiso   1.00
O246   O     0.53852   0.42858   0.25314   0.00000  Uiso   1.00
O247   O     0.56163   0.58086   0.25502   0.00000  Uiso   1.00
O248   O     0.43837   0.41914   0.24497   0.00000  Uiso   1.00
O249   O     0.42185   0.49263   0.30854   0.00000  Uiso   1.00
O250   O     0.57815   0.50737   0.19145   0.00000  Uiso   1.00
O251   O     0.52199   0.50207   0.31671   0.00000  Uiso   1.00
O252   O     0.47801   0.49793   0.18329   0.00000  Uiso   1.00
H253   H     0.65439   0.55866   0.12078   0.00000  Uiso   1.00
H254   H     0.34601   0.43882   0.37725   0.00000  Uiso   1.00
O255   O     0.39643   0.47254   0.08610   0.00000  Uiso   1.00
H256   H     0.35082   0.45489   0.09315   0.00000  Uiso   1.00
O257   O     0.60490   0.51593   0.41412   0.00000  Uiso   1.00
H258   H     0.58432   0.48147   0.40331   0.00000  Uiso   1.00
H259   H     0.33455   0.53839   0.28450   0.00000  Uiso   1.00
H260   H     0.66545   0.46161   0.21550   0.00000  Uiso   1.00
C261   C     0.84835   0.60003   0.25130   0.00000  Uiso   1.00
C262   C     0.81831   0.39997   0.24870   0.00000  Uiso   1.00
C263   C     0.75571   0.47038   0.04138   0.00000  Uiso   1.00
C264   C     0.90936   0.52006   0.45805   0.00000  Uiso   1.00
C265   C     0.71534   0.45112   0.01372   0.00000  Uiso   1.00
C266   C     0.94943   0.54108   0.48497   0.00000  Uiso   1.00
C267   C     0.85680   0.65601   0.25193   0.00000  Uiso   1.00
C268   C     0.80987   0.34399   0.24808   0.00000  Uiso   1.00
C269   C     0.79458   0.49563   0.33311   0.00000  Uiso   1.00
C270   C     0.87203   0.50405   0.16687   0.00000  Uiso   1.00
C271   C     0.77065   0.48704   0.38044   0.00000  Uiso   1.00
C272   C     0.89550   0.51087   0.11930   0.00000  Uiso   1.00
C273   C     0.69303   0.44263   0.44233   0.00000  Uiso   1.00
C274   C     0.97261   0.55235   0.05600   0.00000  Uiso   1.00
C275   C     0.71133   0.45470   0.39789   0.00000  Uiso   1.00
C276   C     0.95501   0.54219   0.10077   0.00000  Uiso   1.00
C277   C     0.81153   0.50624   0.40756   0.00000  Uiso   1.00
C278   C     0.85410   0.49003   0.09284   0.00000  Uiso   1.00
C279   C     0.79785   0.48846   0.45073   0.00000  Uiso   1.00
C280   C     0.86727   0.50510   0.04891   0.00000  Uiso   1.00
C281   C     0.73566   0.45981   0.46891   0.00000  Uiso   1.00
C282   C     0.92942   0.53389   0.03000   0.00000  Uiso   1.00
C283   C     0.84318   0.50003   0.47665   0.00000  Uiso   1.00
C284   C     0.82178   0.49125   0.02293   0.00000  Uiso   1.00
Cu285  Cu    0.77404   0.49441   0.24516   0.00000  Uiso   1.00
Cu286  Cu    0.89263   0.50559   0.25483   0.00000  Uiso   1.00
H287   H     0.99942   0.43266   0.02776   0.00000  Uiso   1.00
H288   H     0.99861   0.55890   0.46999   0.00000  Uiso   1.00
H289   H     0.81279   0.46074   0.10735   0.00000  Uiso   1.00
H290   H     0.85395   0.53531   0.39417   0.00000  Uiso   1.00
H291   H     0.97906   0.41962   0.45588   0.00000  Uiso   1.00
H292   H     0.68658   0.57486   0.04169   0.00000  Uiso   1.00
H293   H     0.90202   0.34646   0.25556   0.00000  Uiso   1.00
H294   H     0.76464   0.65354   0.24445   0.00000  Uiso   1.00
N295   N     0.98173   0.51401   0.26212   0.00000  Uiso   1.00
N296   N     0.68494   0.48599   0.23788   0.00000  Uiso   1.00
O297   O     0.79482   0.57142   0.24686   0.00000  Uiso   1.00
O298   O     0.87185   0.42858   0.25314   0.00000  Uiso   1.00
O299   O     0.89496   0.58086   0.25502   0.00000  Uiso   1.00
O300   O     0.77171   0.41914   0.24497   0.00000  Uiso   1.00
O301   O     0.75518   0.49263   0.30854   0.00000  Uiso   1.00
O302   O     0.91149   0.50737   0.19145   0.00000  Uiso   1.00
O303   O     0.85532   0.50207   0.31671   0.00000  Uiso   1.00
O304   O     0.81134   0.49793   0.18329   0.00000  Uiso   1.00
H305   H     0.98772   0.55866   0.12078   0.00000  Uiso   1.00
H306   H     0.67935   0.43882   0.37725   0.00000  Uiso   1.00
O307   O     0.72976   0.47254   0.08610   0.00000  Uiso   1.00
H308   H     0.68415   0.45489   0.09315   0.00000  Uiso   1.00
O309   O     0.93824   0.51593   0.41412   0.00000  Uiso   1.00
H310   H     0.91765   0.48147   0.40331   0.00000  Uiso   1.00
H311   H     0.66788   0.53839   0.28450   0.00000  Uiso   1.00
H312   H     0.99879   0.46161   0.21550   0.00000  Uiso   1.00
C313   C     0.18169   0.93337   0.25130   0.00000  Uiso   1.00
C314   C     0.15165   0.73330   0.24870   0.00000  Uiso   1.00
C315   C     0.08905   0.80372   0.04138   0.00000  Uiso   1.00
C316   C     0.24269   0.85339   0.45805   0.00000  Uiso   1.00
C317   C     0.04867   0.78446   0.01372   0.00000  Uiso   1.00
C318   C     0.28276   0.87441   0.48497   0.00000  Uiso   1.00
C319   C     0.19013   0.98934   0.25193   0.00000  Uiso   1.00
C320   C     0.14320   0.67733   0.24808   0.00000  Uiso   1.00
C321   C     0.12791   0.82896   0.33311   0.00000  Uiso   1.00
C322   C     0.20536   0.83739   0.16687   0.00000  Uiso   1.00
C323   C     0.10399   0.82037   0.38044   0.00000  Uiso   1.00
C324   C     0.22884   0.84420   0.11930   0.00000  Uiso   1.00
C325   C     0.02636   0.77596   0.44233   0.00000  Uiso   1.00
C326   C     0.30595   0.88568   0.05600   0.00000  Uiso   1.00
C327   C     0.04467   0.78804   0.39789   0.00000  Uiso   1.00
C328   C     0.28835   0.87553   0.10077   0.00000  Uiso   1.00
C329   C     0.14487   0.83958   0.40756   0.00000  Uiso   1.00
C330   C     0.18743   0.82336   0.09284   0.00000  Uiso   1.00
C331   C     0.13119   0.82179   0.45073   0.00000  Uiso   1.00
C332   C     0.20060   0.83843   0.04891   0.00000  Uiso   1.00
C333   C     0.06899   0.79314   0.46891   0.00000  Uiso   1.00
C334   C     0.26275   0.86722   0.03000   0.00000  Uiso   1.00
C335   C     0.17651   0.83336   0.47665   0.00000  Uiso   1.00
C336   C     0.15511   0.82459   0.02293   0.00000  Uiso   1.00
Cu337  Cu    0.10737   0.82775   0.24516   0.00000  Uiso   1.00
Cu338  Cu    0.22596   0.83892   0.25483   0.00000  Uiso   1.00
H339   H     0.33275   0.76599   0.02776   0.00000  Uiso   1.00
H340   H     0.33194   0.89223   0.46999   0.00000  Uiso   1.00
H341   H     0.14612   0.79408   0.10735   0.00000  Uiso   1.00
H342   H     0.18728   0.86865   0.39417   0.00000  Uiso   1.00
H343   H     0.31239   0.75295   0.45588   0.00000  Uiso   1.00
H344   H     0.01991   0.90820   0.04169   0.00000  Uiso   1.00
H345   H     0.23535   0.67979   0.25556   0.00000  Uiso   1.00
H346   H     0.09798   0.98687   0.24445   0.00000  Uiso   1.00
N347   N     0.31506   0.84735   0.26212   0.00000  Uiso   1.00
N348   N     0.01827   0.81932   0.23788   0.00000  Uiso   1.00
O349   O     0.12815   0.90476   0.24686   0.00000  Uiso   1.00
O350   O     0.20518   0.76191   0.25314   0.00000  Uiso   1.00
O351   O     0.22829   0.91420   0.25502   0.00000  Uiso   1.00
O352   O     0.10504   0.75247   0.24497   0.00000  Uiso   1.00
O353   O     0.08851   0.82597   0.30854   0.00000  Uiso   1.00
O354   O     0.24482   0.84070   0.19145   0.00000  Uiso   1.00
O355   O     0.18866   0.83540   0.31671   0.00000  Uiso   1.00
O356   O     0.14468   0.83126   0.18329   0.00000  Uiso   1.00
H357   H     0.32105   0.89199   0.12078   0.00000  Uiso   1.00
H358   H     0.01268   0.77216   0.37725   0.00000  Uiso   1.00
O359   O     0.06310   0.80588   0.08610   0.00000  Uiso   1.00
H360   H     0.01749   0.78822   0.09315   0.00000  Uiso   1.00
O361   O     0.27157   0.84927   0.41412   0.00000  Uiso   1.00
H362   H     0.25098   0.81481   0.40331   0.00000  Uiso   1.00
H363   H     0.00121   0.87172   0.28450   0.00000  Uiso   1.00
H364   H     0.33212   0.79494   0.21550   0.00000  Uiso   1.00
C365   C     0.51502   0.93337   0.25130   0.00000  Uiso   1.00
C366   C     0.48498   0.73330   0.24870   0.00000  Uiso   1.00
C367   C     0.42238   0.80372   0.04138   0.00000  Uiso   1.00
C368   C     0.57602   0.85339   0.45805   0.00000  Uiso   1.00
C369   C     0.38200   0.78446   0.01372   0.00000  Uiso   1.00
C370   C     0.61610   0.87441   0.48497   0.00000  Uiso   1.00
C371   C     0.52346   0.98934   0.25193   0.00000  Uiso   1.00
C372   C     0.47654   0.67733   0.24808   0.00000  Uiso   1.00
C373   C     0.46125   0.82896   0.33311   0.00000  Uiso   1.00
C374   C     0.53869   0.83739   0.16687   0.00000  Uiso   1.00
C375   C     0.43732   0.82037   0.38044   0.00000  Uiso   1.00
C376   C     0.56217   0.84420   0.11930   0.00000  Uiso   1.00
C377   C     0.35970   0.77596   0.44233   0.00000  Uiso   1.00
C378   C     0.63928   0.88568   0.05600   0.00000  Uiso   1.00
C379   C     0.37800   0.78804   0.39789   0.00000  Uiso   1.00
C380   C     0.62168   0.87553   0.10077   0.00000  Uiso   1.00
C381   C     0.47820   0.83958   0.40756   0.00000  Uiso   1.00
C382   C     0.52077   0.82336   0.09284   0.00000  Uiso   1.00
C383   C     0.46452   0.82179   0.45073   0.00000  Uiso   1.00
C384   C     0.53393   0.83843   0.04891   0.00000  Uiso   1.00
C385   C     0.40232   0.79314   0.46891   0.00000  Uiso   1.00
C386   C     0.59608   0.86722   0.03000   0.00000  Uiso   1.00
C387   C     0.50985   0.83336   0.47665   0.00000  Uiso   1.00
C388   C     0.48844   0.82459   0.02293   0.00000  Uiso   1.00
Cu389  Cu    0.44071   0.82775   0.24516   0.00000  Uiso   1.00
Cu390  Cu    0.55929   0.83892   0.25483   0.00000  Uiso   1.00
H391   H     0.66608   0.76599   0.02776   0.00000  Uiso   1.00
H392   H     0.66527   0.89223   0.46999   0.00000  Uiso   1.00
H393   H     0.47945   0.79408   0.10735   0.00000  Uiso   1.00
H394   H     0.52062   0.86865   0.39417   0.00000  Uiso   1.00
H395   H     0.64573   0.75295   0.45588   0.00000  Uiso   1.00
H396   H     0.35325   0.90820   0.04169   0.00000  Uiso   1.00
H397   H     0.56869   0.67979   0.25556   0.00000  Uiso   1.00
H398   H     0.43131   0.98687   0.24445   0.00000  Uiso   1.00
N399   N     0.64839   0.84735   0.26212   0.00000  Uiso   1.00
N400   N     0.35161   0.81932   0.23788   0.00000  Uiso   1.00
O401   O     0.46148   0.90476   0.24686   0.00000  Uiso   1.00
O402   O     0.53852   0.76191   0.25314   0.00000  Uiso   1.00
O403   O     0.56163   0.91420   0.25502   0.00000  Uiso   1.00
O404   O     0.43837   0.75247   0.24497   0.00000  Uiso   1.00
O405   O     0.42185   0.82597   0.30854   0.00000  Uiso   1.00
O406   O     0.57815   0.84070   0.19145   0.00000  Uiso   1.00
O407   O     0.52199   0.83540   0.31671   0.00000  Uiso   1.00
O408   O     0.47801   0.83126   0.18329   0.00000  Uiso   1.00
H409   H     0.65439   0.89199   0.12078   0.00000  Uiso   1.00
H410   H     0.34601   0.77216   0.37725   0.00000  Uiso   1.00
O411   O     0.39643   0.80588   0.08610   0.00000  Uiso   1.00
H412   H     0.35082   0.78822   0.09315   0.00000  Uiso   1.00
O413   O     0.60490   0.84927   0.41412   0.00000  Uiso   1.00
H414   H     0.58432   0.81481   0.40331   0.00000  Uiso   1.00
H415   H     0.33455   0.87172   0.28450   0.00000  Uiso   1.00
H416   H     0.66545   0.79494   0.21550   0.00000  Uiso   1.00
C417   C     0.84835   0.93337   0.25130   0.00000  Uiso   1.00
C418   C     0.81831   0.73330   0.24870   0.00000  Uiso   1.00
C419   C     0.75571   0.80372   0.04138   0.00000  Uiso   1.00
C420   C     0.90936   0.85339   0.45805   0.00000  Uiso   1.00
C421   C     0.71534   0.78446   0.01372   0.00000  Uiso   1.00
C422   C     0.94943   0.87441   0.48497   0.00000  Uiso   1.00
C423   C     0.85680   0.98934   0.25193   0.00000  Uiso   1.00
C424   C     0.80987   0.67733   0.24808   0.00000  Uiso   1.00
C425   C     0.79458   0.82896   0.33311   0.00000  Uiso   1.00
C426   C     0.87203   0.83739   0.16687   0.00000  Uiso   1.00
C427   C     0.77065   0.82037   0.38044   0.00000  Uiso   1.00
C428   C     0.89550   0.84420   0.11930   0.00000  Uiso   1.00
C429   C     0.69303   0.77596   0.44233   0.00000  Uiso   1.00
C430   C     0.97261   0.88568   0.05600   0.00000  Uiso   1.00
C431   C     0.71133   0.78804   0.39789   0.00000  Uiso   1.00
C432   C     0.95501   0.87553   0.10077   0.00000  Uiso   1.00
C433   C     0.81153   0.83958   0.40756   0.00000  Uiso   1.00
C434   C     0.85410   0.82336   0.09284   0.00000  Uiso   1.00
C435   C     0.79785   0.82179   0.45073   0.00000  Uiso   1.00
C436   C     0.86727   0.83843   0.04891   0.00000  Uiso   1.00
C437   C     0.73566   0.79314   0.46891   0.00000  Uiso   1.00
C438   C     0.92942   0.86722   0.03000   0.00000  Uiso   1.00
C439   C     0.84318   0.83336   0.47665   0.00000  Uiso   1.00
C440   C     0.82178   0.82459   0.02293   0.00000  Uiso   1.00
Cu441  Cu    0.77404   0.82775   0.24516   0.00000  Uiso   1.00
Cu442  Cu    0.89263   0.83892   0.25483   0.00000  Uiso   1.00
H443   H     0.99942   0.76599   0.02776   0.00000  Uiso   1.00
H444   H     0.99861   0.89223   0.46999   0.00000  Uiso   1.00
H445   H     0.81279   0.79408   0.10735   0.00000  Uiso   1.00
H446   H     0.85395   0.86865   0.39417   0.00000  Uiso   1.00
H447   H     0.97906   0.75295   0.45588   0.00000  Uiso   1.00
H448   H     0.68658   0.90820   0.04169   0.00000  Uiso   1.00
H449   H     0.90202   0.67979   0.25556   0.00000  Uiso   1.00
H450   H     0.76464   0.98687   0.24445   0.00000  Uiso   1.00
N451   N     0.98173   0.84735   0.26212   0.00000  Uiso   1.00
N452   N     0.68494   0.81932   0.23788   0.00000  Uiso   1.00
O453   O     0.79482   0.90476   0.24686   0.00000  Uiso   1.00
O454   O     0.87185   0.76191   0.25314   0.00000  Uiso   1.00
O455   O     0.89496   0.91420   0.25502   0.00000  Uiso   1.00
O456   O     0.77171   0.75247   0.24497   0.00000  Uiso   1.00
O457   O     0.75518   0.82597   0.30854   0.00000  Uiso   1.00
O458   O     0.91149   0.84070   0.19145   0.00000  Uiso   1.00
O459   O     0.85532   0.83540   0.31671   0.00000  Uiso   1.00
O460   O     0.81134   0.83126   0.18329   0.00000  Uiso   1.00
H461   H     0.98772   0.89199   0.12078   0.00000  Uiso   1.00
H462   H     0.67935   0.77216   0.37725   0.00000  Uiso   1.00
O463   O     0.72976   0.80588   0.08610   0.00000  Uiso   1.00
H464   H     0.68415   0.78822   0.09315   0.00000  Uiso   1.00
O465   O     0.93824   0.84927   0.41412   0.00000  Uiso   1.00
H466   H     0.91765   0.81481   0.40331   0.00000  Uiso   1.00
H467   H     0.66788   0.87172   0.28450   0.00000  Uiso   1.00
H468   H     0.99879   0.79494   0.21550   0.00000  Uiso   1.00
C469   C     0.18169   0.26670   0.75130   0.00000  Uiso   1.00
C470   C     0.15165   0.06663   0.74870   0.00000  Uiso   1.00
C471   C     0.08905   0.13705   0.54138   0.00000  Uiso   1.00
C472   C     0.24269   0.18673   0.95805   0.00000  Uiso   1.00
C473   C     0.04867   0.11779   0.51372   0.00000  Uiso   1.00
C474   C     0.28276   0.20774   0.98497   0.00000  Uiso   1.00
C475   C     0.19013   0.32268   0.75193   0.00000  Uiso   1.00
C476   C     0.14320   0.01066   0.74808   0.00000  Uiso   1.00
C477   C     0.12791   0.16230   0.83311   0.00000  Uiso   1.00
C478   C     0.20536   0.17072   0.66687   0.00000  Uiso   1.00
C479   C     0.10399   0.15371   0.88044   0.00000  Uiso   1.00
C480   C     0.22884   0.17754   0.61930   0.00000  Uiso   1.00
C481   C     0.02636   0.10930   0.94233   0.00000  Uiso   1.00
C482   C     0.30595   0.21901   0.55600   0.00000  Uiso   1.00
C483   C     0.04467   0.12137   0.89789   0.00000  Uiso   1.00
C484   C     0.28835   0.20886   0.60077   0.00000  Uiso   1.00
C485   C     0.14487   0.17291   0.90756   0.00000  Uiso   1.00
C486   C     0.18743   0.15669   0.59284   0.00000  Uiso   1.00
C487   C     0.13119   0.15512   0.95073   0.00000  Uiso   1.00
C488   C     0.20060   0.17177   0.54891   0.00000  Uiso   1.00
C489   C     0.06899   0.12647   0.96891   0.00000  Uiso   1.00
C490   C     0.26275   0.20055   0.53000   0.00000  Uiso   1.00
C491   C     0.17651   0.16670   0.97665   0.00000  Uiso   1.00
C492   C     0.15511   0.15792   0.52293   0.00000  Uiso   1.00
Cu493  Cu    0.10737   0.16108   0.74516   0.00000  Uiso   1.00
Cu494  Cu    0.22596   0.17225   0.75483   0.00000  Uiso   1.00
H495   H     0.33275   0.09932   0.52776   0.00000  Uiso   1.00
H496   H     0.33194   0.22556   0.96999   0.00000  Uiso   1.00
H497   H     0.14612   0.12741   0.60735   0.00000  Uiso   1.00
H498   H     0.18728   0.20198   0.89417   0.00000  Uiso   1.00
H499   H     0.31239   0.08629   0.95588   0.00000  Uiso   1.00
H500   H     0.01991   0.24153   0.54169   0.00000  Uiso   1.00
H501   H     0.23535   0.01313   0.75556   0.00000  Uiso   1.00
H502   H     0.09798   0.32021   0.74445   0.00000  Uiso   1.00
N503   N     0.31506   0.18068   0.76212   0.00000  Uiso   1.00
N504   N     0.01827   0.15265   0.73788   0.00000  Uiso   1.00
O505   O     0.12815   0.23809   0.74686   0.00000  Uiso   1.00
O506   O     0.20518   0.09524   0.75314   0.00000  Uiso   1.00
O507   O     0.22829   0.24753   0.75502   0.00000  Uiso   1.00
O508   O     0.10504   0.08580   0.74497   0.00000  Uiso   1.00
O509   O     0.08851   0.15930   0.80854   0.00000  Uiso   1.00
O510   O     0.24482   0.17403   0.69145   0.00000  Uiso   1.00
O511   O     0.18866   0.16874   0.81671   0.00000  Uiso   1.00
O512   O     0.14468   0.16460   0.68329   0.00000  Uiso   1.00
H513   H     0.32105   0.22533   0.62078   0.00000  Uiso   1.00
H514   H     0.01268   0.10549   0.87725   0.00000  Uiso   1.00
O515   O     0.06310   0.13921   0.58610   0.00000  Uiso   1.00
H516   H     0.01749   0.12156   0.59315   0.00000  Uiso   1.00
O517   O     0.27157   0.18260   0.91412   0.00000  Uiso   1.00
H518   H     0.25098   0.14814   0.90331   0.00000  Uiso   1.00
H519   H     0.00121   0.20506   0.78450   0.00000  Uiso   1.00
H520   H     0.33212   0.12828   0.71550   0.00000  Uiso   1.00
C521   C     0.51502   0.26670   0.75130   0.00000  Uiso   1.00
C522   C     0.48498   0.06663   0.74870   0.00000  Uiso   1.00
C523   C     0.42238   0.13705   0.54138   0.00000  Uiso   1.00
C524   C     0.57602   0.18673   0.95805   0.00000  Uiso   1.00
C525   C     0.38200   0.11779   0.51372   0.00000  Uiso   1.00
C526   C     0.61610   0.20774   0.98497   0.00000  Uiso   1.00
C527   C     0.52346   0.32268   0.75193   0.00000  Uiso   1.00
C528   C     0.47654   0.01066   0.74808   0.00000  Uiso   1.00
C529   C     0.46125   0.16230   0.83311   0.00000  Uiso   1.00
C530   C     0.53869   0.17072   0.66687   0.00000  Uiso   1.00
C531   C     0.43732   0.15371   0.88044   0.00000  Uiso   1.00
C532   C     0.56217   0.17754   0.61930   0.00000  Uiso   1.00
C533   C     0.35970   0.10930   0.94233   0.00000  Uiso   1.00
C534   C     0.63928   0.21901   0.55600   0.00000  Uiso   1.00
C535   C     0.37800   0.12137   0.89789   0.00000  Uiso   1.00
C536   C     0.62168   0.20886   0.60077   0.00000  Uiso   1.00
C537   C     0.47820   0.17291   0.90756   0.00000  Uiso   1.00
C538   C     0.52077   0.15669   0.59284   0.00000  Uiso   1.00
C539   C     0.46452   0.15512   0.95073   0.00000  Uiso   1.00
C540   C     0.53393   0.17177   0.54891   0.00000  Uiso   1.00
C541   C     0.40232   0.12647   0.96891   0.00000  Uiso   1.00
C542   C     0.59608   0.20055   0.53000   0.00000  Uiso   1.00
C543   C     0.50985   0.16670   0.97665   0.00000  Uiso   1.00
C544   C     0.48844   0.15792   0.52293   0.00000  Uiso   1.00
Cu545  Cu    0.44071   0.16108   0.74516   0.00000  Uiso   1.00
Cu546  Cu    0.55929   0.17225   0.75483   0.00000  Uiso   1.00
H547   H     0.66608   0.09932   0.52776   0.00000  Uiso   1.00
H548   H     0.66527   0.22556   0.96999   0.00000  Uiso   1.00
H549   H     0.47945   0.12741   0.60735   0.00000  Uiso   1.00
H550   H     0.52062   0.20198   0.89417   0.00000  Uiso   1.00
H551   H     0.64573   0.08629   0.95588   0.00000  Uiso   1.00
H552   H     0.35325   0.24153   0.54169   0.00000  Uiso   1.00
H553   H     0.56869   0.01313   0.75556   0.00000  Uiso   1.00
H554   H     0.43131   0.32021   0.74445   0.00000  Uiso   1.00
N555   N     0.64839   0.18068   0.76212   0.00000  Uiso   1.00
N556   N     0.35161   0.15265   0.73788   0.00000  Uiso   1.00
O557   O     0.46148   0.23809   0.74686   0.00000  Uiso   1.00
O558   O     0.53852   0.09524   0.75314   0.00000  Uiso   1.00
O559   O     0.56163   0.24753   0.75502   0.00000  Uiso   1.00
O560   O     0.43837   0.08580   0.74497   0.00000  Uiso   1.00
O561   O     0.42185   0.15930   0.80854   0.00000  Uiso   1.00
O562   O     0.57815   0.17403   0.69145   0.00000  Uiso   1.00
O563   O     0.52199   0.16874   0.81671   0.00000  Uiso   1.00
O564   O     0.47801   0.16460   0.68329   0.00000  Uiso   1.00
H565   H     0.65439   0.22533   0.62078   0.00000  Uiso   1.00
H566   H     0.34601   0.10549   0.87725   0.00000  Uiso   1.00
O567   O     0.39643   0.13921   0.58610   0.00000  Uiso   1.00
H568   H     0.35082   0.12156   0.59315   0.00000  Uiso   1.00
O569   O     0.60490   0.18260   0.91412   0.00000  Uiso   1.00
H570   H     0.58432   0.14814   0.90331   0.00000  Uiso   1.00
H571   H     0.33455   0.20506   0.78450   0.00000  Uiso   1.00
H572   H     0.66545   0.12828   0.71550   0.00000  Uiso   1.00
C573   C     0.84835   0.26670   0.75130   0.00000  Uiso   1.00
C574   C     0.81831   0.06663   0.74870   0.00000  Uiso   1.00
C575   C     0.75571   0.13705   0.54138   0.00000  Uiso   1.00
C576   C     0.90936   0.18673   0.95805   0.00000  Uiso   1.00
C577   C     0.71534   0.11779   0.51372   0.00000  Uiso   1.00
C578   C     0.94943   0.20774   0.98497   0.00000  Uiso   1.00
C579   C     0.85680   0.32268   0.75193   0.00000  Uiso   1.00
C580   C     0.80987   0.01066   0.74808   0.00000  Uiso   1.00
C581   C     0.79458   0.16230   0.83311   0.00000  Uiso   1.00
C582   C     0.87203   0.17072   0.66687   0.00000  Uiso   1.00
C583   C     0.77065   0.15371   0.88044   0.00000  Uiso   1.00
C584   C     0.89550   0.17754   0.61930   0.00000  Uiso   1.00
C585   C     0.69303   0.10930   0.94233   0.00000  Uiso   1.00
C586   C     0.97261   0.21901   0.55600   0.00000  Uiso   1.00
C587   C     0.71133   0.12137   0.89789   0.00000  Uiso   1.00
C588   C     0.95501   0.20886   0.60077   0.00000  Uiso   1.00
C589   C     0.81153   0.17291   0.90756   0.00000  Uiso   1.00
C590   C     0.85410   0.15669   0.59284   0.00000  Uiso   1.00
C591   C     0.79785   0.15512   0.95073   0.00000  Uiso   1.00
C592   C     0.86727   0.17177   0.54891   0.00000  Uiso   1.00
C593   C     0.73566   0.12647   0.96891   0.00000  Uiso   1.00
C594   C     0.92942   0.20055   0.53000   0.00000  Uiso   1.00
C595   C     0.84318   0.16670   0.97665   0.00000  Uiso   1.00
C596   C     0.82178   0.15792   0.52293   0.00000  Uiso   1.00
Cu597  Cu    0.77404   0.16108   0.74516   0.00000  Uiso   1.00
Cu598  Cu    0.89263   0.17225   0.75483   0.00000  Uiso   1.00
H599   H     0.99942   0.09932   0.52776   0.00000  Uiso   1.00
H600   H     0.99861   0.22556   0.96999   0.00000  Uiso   1.00
H601   H     0.81279   0.12741   0.60735   0.00000  Uiso   1.00
H602   H     0.85395   0.20198   0.89417   0.00000  Uiso   1.00
H603   H     0.97906   0.08629   0.95588   0.00000  Uiso   1.00
H604   H     0.68658   0.24153   0.54169   0.00000  Uiso   1.00
H605   H     0.90202   0.01313   0.75556   0.00000  Uiso   1.00
H606   H     0.76464   0.32021   0.74445   0.00000  Uiso   1.00
N607   N     0.98173   0.18068   0.76212   0.00000  Uiso   1.00
N608   N     0.68494   0.15265   0.73788   0.00000  Uiso   1.00
O609   O     0.79482   0.23809   0.74686   0.00000  Uiso   1.00
O610   O     0.87185   0.09524   0.75314   0.00000  Uiso   1.00
O611   O     0.89496   0.24753   0.75502   0.00000  Uiso   1.00
O612   O     0.77171   0.08580   0.74497   0.00000  Uiso   1.00
O613   O     0.75518   0.15930   0.80854   0.00000  Uiso   1.00
O614   O     0.91149   0.17403   0.69145   0.00000  Uiso   1.00
O615   O     0.85532   0.16874   0.81671   0.00000  Uiso   1.00
O616   O     0.81134   0.16460   0.68329   0.00000  Uiso   1.00
H617   H     0.98772   0.22533   0.62078   0.00000  Uiso   1.00
H618   H     0.67935   0.10549   0.87725   0.00000  Uiso   1.00
O619   O     0.72976   0.13921   0.58610   0.00000  Uiso   1.00
H620   H     0.68415   0.12156   0.59315   0.00000  Uiso   1.00
O621   O     0.93824   0.18260   0.91412   0.00000  Uiso   1.00
H622   H     0.91765   0.14814   0.90331   0.00000  Uiso   1.00
H623   H     0.66788   0.20506   0.78450   0.00000  Uiso   1.00
H624   H     0.99879   0.12828   0.71550   0.00000  Uiso   1.00
C625   C     0.18169   0.60003   0.75130   0.00000  Uiso   1.00
C626   C     0.15165   0.39997   0.74870   0.00000  Uiso   1.00
C627   C     0.08905   0.47038   0.54138   0.00000  Uiso   1.00
C628   C     0.24269   0.52006   0.95805   0.00000  Uiso   1.00
C629   C     0.04867   0.45112   0.51372   0.00000  Uiso   1.00
C630   C     0.28276   0.54108   0.98497   0.00000  Uiso   1.00
C631   C     0.19013   0.65601   0.75193   0.00000  Uiso   1.00
C632   C     0.14320   0.34399   0.74808   0.00000  Uiso   1.00
C633   C     0.12791   0.49563   0.83311   0.00000  Uiso   1.00
C634   C     0.20536   0.50405   0.66687   0.00000  Uiso   1.00
C635   C     0.10399   0.48704   0.88044   0.00000  Uiso   1.00
C636   C     0.22884   0.51087   0.61930   0.00000  Uiso   1.00
C637   C     0.02636   0.44263   0.94233   0.00000  Uiso   1.00
C638   C     0.30595   0.55235   0.55600   0.00000  Uiso   1.00
C639   C     0.04467   0.45470   0.89789   0.00000  Uiso   1.00
C640   C     0.28835   0.54219   0.60077   0.00000  Uiso   1.00
C641   C     0.14487   0.50624   0.90756   0.00000  Uiso   1.00
C642   C     0.18743   0.49003   0.59284   0.00000  Uiso   1.00
C643   C     0.13119   0.48846   0.95073   0.00000  Uiso   1.00
C644   C     0.20060   0.50510   0.54891   0.00000  Uiso   1.00
C645   C     0.06899   0.45981   0.96891   0.00000  Uiso   1.00
C646   C     0.26275   0.53389   0.53000   0.00000  Uiso   1.00
C647   C     0.17651   0.50003   0.97665   0.00000  Uiso   1.00
C648   C     0.15511   0.49125   0.52293   0.00000  Uiso   1.00
Cu649  Cu    0.10737   0.49441   0.74516   0.00000  Uiso   1.00
Cu650  Cu    0.22596   0.50559   0.75483   0.00000  Uiso   1.00
H651   H     0.33275   0.43266   0.52776   0.00000  Uiso   1.00
H652   H     0.33194   0.55890   0.96999   0.00000  Uiso   1.00
H653   H     0.14612   0.46074   0.60735   0.00000  Uiso   1.00
H654   H     0.18728   0.53531   0.89417   0.00000  Uiso   1.00
H655   H     0.31239   0.41962   0.95588   0.00000  Uiso   1.00
H656   H     0.01991   0.57486   0.54169   0.00000  Uiso   1.00
H657   H     0.23535   0.34646   0.75556   0.00000  Uiso   1.00
H658   H     0.09798   0.65354   0.74445   0.00000  Uiso   1.00
N659   N     0.31506   0.51401   0.76212   0.00000  Uiso   1.00
N660   N     0.01827   0.48599   0.73788   0.00000  Uiso   1.00
O661   O     0.12815   0.57142   0.74686   0.00000  Uiso   1.00
O662   O     0.20518   0.42858   0.75314   0.00000  Uiso   1.00
O663   O     0.22829   0.58086   0.75502   0.00000  Uiso   1.00
O664   O     0.10504   0.41914   0.74497   0.00000  Uiso   1.00
O665   O     0.08851   0.49263   0.80854   0.00000  Uiso   1.00
O666   O     0.24482   0.50737   0.69145   0.00000  Uiso   1.00
O667   O     0.18866   0.50207   0.81671   0.00000  Uiso   1.00
O668   O     0.14468   0.49793   0.68329   0.00000  Uiso   1.00
H669   H     0.32105   0.55866   0.62078   0.00000  Uiso   1.00
H670   H     0.01268   0.43882   0.87725   0.00000  Uiso   1.00
O671   O     0.06310   0.47254   0.58610   0.00000  Uiso   1.00
H672   H     0.01749   0.45489   0.59315   0.00000  Uiso   1.00
O673   O     0.27157   0.51593   0.91412   0.00000  Uiso   1.00
H674   H     0.25098   0.48147   0.90331   0.00000  Uiso   1.00
H675   H     0.00121   0.53839   0.78450   0.00000  Uiso   1.00
H676   H     0.33212   0.46161   0.71550   0.00000  Uiso   1.00
C677   C     0.51502   0.60003   0.75130   0.00000  Uiso   1.00
C678   C     0.48498   0.39997   0.74870   0.00000  Uiso   1.00
C679   C     0.42238   0.47038   0.54138   0.00000  Uiso   1.00
C680   C     0.57602   0.52006   0.95805   0.00000  Uiso   1.00
C681   C     0.38200   0.45112   0.51372   0.00000  Uiso   1.00
C682   C     0.61610   0.54108   0.98497   0.00000  Uiso   1.00
C683   C     0.52346   0.65601   0.75193   0.00000  Uiso   1.00
C684   C     0.47654   0.34399   0.74808   0.00000  Uiso   1.00
C685   C     0.46125   0.49563   0.83311   0.00000  Uiso   1.00
C686   C     0.53869   0.50405   0.66687   0.00000  Uiso   1.00
C687   C     0.43732   0.48704   0.88044   0.00000  Uiso   1.00
C688   C     0.56217   0.51087   0.61930   0.00000  Uiso   1.00
C689   C     0.35970   0.44263   0.94233   0.00000  Uiso   1.00
C690   C     0.63928   0.55235   0.55600   0.00000  Uiso   1.00
C691   C     0.37800   0.45470   0.89789   0.00000  Uiso   1.00
C692   C     0.62168   0.54219   0.60077   0.00000  Uiso   1.00
C693   C     0.47820   0.50624   0.90756   0.00000  Uiso   1.00
C694   C     0.52077   0.49003   0.59284   0.00000  Uiso   1.00
C695   C     0.46452   0.48846   0.95073   0.00000  Uiso   1.00
C696   C     0.53393   0.50510   0.54891   0.00000  Uiso   1.00
C697   C     0.40232   0.45981   0.96891   0.00000  Uiso   1.00
C698   C     0.59608   0.53389   0.53000   0.00000  Uiso   1.00
C699   C     0.50985   0.50003   0.97665   0.00000  Uiso   1.00
C700   C     0.48844   0.49125   0.52293   0.00000  Uiso   1.00
Cu701  Cu    0.44071   0.49441   0.74516   0.00000  Uiso   1.00
Cu702  Cu    0.55929   0.50559   0.75483   0.00000  Uiso   1.00
H703   H     0.66608   0.43266   0.52776   0.00000  Uiso   1.00
H704   H     0.66527   0.55890   0.96999   0.00000  Uiso   1.00
H705   H     0.47945   0.46074   0.60735   0.00000  Uiso   1.00
H706   H     0.52062   0.53531   0.89417   0.00000  Uiso   1.00
H707   H     0.64573   0.41962   0.95588   0.00000  Uiso   1.00
H708   H     0.35325   0.57486   0.54169   0.00000  Uiso   1.00
H709   H     0.56869   0.34646   0.75556   0.00000  Uiso   1.00
H710   H     0.43131   0.65354   0.74445   0.00000  Uiso   1.00
N711   N     0.64839   0.51401   0.76212   0.00000  Uiso   1.00
N712   N     0.35161   0.48599   0.73788   0.00000  Uiso   1.00
O713   O     0.46148   0.57142   0.74686   0.00000  Uiso   1.00
O714   O     0.53852   0.42858   0.75314   0.00000  Uiso   1.00
O715   O     0.56163   0.58086   0.75502   0.00000  Uiso   1.00
O716   O     0.43837   0.41914   0.74497   0.00000  Uiso   1.00
O717   O     0.42185   0.49263   0.80854   0.00000  Uiso   1.00
O718   O     0.57815   0.50737   0.69145   0.00000  Uiso   1.00
O719   O     0.52199   0.50207   0.81671   0.00000  Uiso   1.00
O720   O     0.47801   0.49793   0.68329   0.00000  Uiso   1.00
H721   H     0.65439   0.55866   0.62078   0.00000  Uiso   1.00
H722   H     0.34601   0.43882   0.87725   0.00000  Uiso   1.00
O723   O     0.39643   0.47254   0.58610   0.00000  Uiso   1.00
H724   H     0.35082   0.45489   0.59315   0.00000  Uiso   1.00
O725   O     0.60490   0.51593   0.91412   0.00000  Uiso   1.00
H726   H     0.58432   0.48147   0.90331   0.00000  Uiso   1.00
H727   H     0.33455   0.53839   0.78450   0.00000  Uiso   1.00
H728   H     0.66545   0.46161   0.71550   0.00000  Uiso   1.00
C729   C     0.84835   0.60003   0.75130   0.00000  Uiso   1.00
C730   C     0.81831   0.39997   0.74870   0.00000  Uiso   1.00
C731   C     0.75571   0.47038   0.54138   0.00000  Uiso   1.00
C732   C     0.90936   0.52006   0.95805   0.00000  Uiso   1.00
C733   C     0.71534   0.45112   0.51372   0.00000  Uiso   1.00
C734   C     0.94943   0.54108   0.98497   0.00000  Uiso   1.00
C735   C     0.85680   0.65601   0.75193   0.00000  Uiso   1.00
C736   C     0.80987   0.34399   0.74808   0.00000  Uiso   1.00
C737   C     0.79458   0.49563   0.83311   0.00000  Uiso   1.00
C738   C     0.87203   0.50405   0.66687   0.00000  Uiso   1.00
C739   C     0.77065   0.48704   0.88044   0.00000  Uiso   1.00
C740   C     0.89550   0.51087   0.61930   0.00000  Uiso   1.00
C741   C     0.69303   0.44263   0.94233   0.00000  Uiso   1.00
C742   C     0.97261   0.55235   0.55600   0.00000  Uiso   1.00
C743   C     0.71133   0.45470   0.89789   0.00000  Uiso   1.00
C744   C     0.95501   0.54219   0.60077   0.00000  Uiso   1.00
C745   C     0.81153   0.50624   0.90756   0.00000  Uiso   1.00
C746   C     0.85410   0.49003   0.59284   0.00000  Uiso   1.00
C747   C     0.79785   0.48846   0.95073   0.00000  Uiso   1.00
C748   C     0.86727   0.50510   0.54891   0.00000  Uiso   1.00
C749   C     0.73566   0.45981   0.96891   0.00000  Uiso   1.00
C750   C     0.92942   0.53389   0.53000   0.00000  Uiso   1.00
C751   C     0.84318   0.50003   0.97665   0.00000  Uiso   1.00
C752   C     0.82178   0.49125   0.52293   0.00000  Uiso   1.00
Cu753  Cu    0.77404   0.49441   0.74516   0.00000  Uiso   1.00
Cu754  Cu    0.89263   0.50559   0.75483   0.00000  Uiso   1.00
H755   H     0.99942   0.43266   0.52776   0.00000  Uiso   1.00
H756   H     0.99861   0.55890   0.96999   0.00000  Uiso   1.00
H757   H     0.81279   0.46074   0.60735   0.00000  Uiso   1.00
H758   H     0.85395   0.53531   0.89417   0.00000  Uiso   1.00
H759   H     0.97906   0.41962   0.95588   0.00000  Uiso   1.00
H760   H     0.68658   0.57486   0.54169   0.00000  Uiso   1.00
H761   H     0.90202   0.34646   0.75556   0.00000  Uiso   1.00
H762   H     0.76464   0.65354   0.74445   0.00000  Uiso   1.00
N763   N     0.98173   0.51401   0.76212   0.00000  Uiso   1.00
N764   N     0.68494   0.48599   0.73788   0.00000  Uiso   1.00
O765   O     0.79482   0.57142   0.74686   0.00000  Uiso   1.00
O766   O     0.87185   0.42858   0.75314   0.00000  Uiso   1.00
O767   O     0.89496   0.58086   0.75502   0.00000  Uiso   1.00
O768   O     0.77171   0.41914   0.74497   0.00000  Uiso   1.00
O769   O     0.75518   0.49263   0.80854   0.00000  Uiso   1.00
O770   O     0.91149   0.50737   0.69145   0.00000  Uiso   1.00
O771   O     0.85532   0.50207   0.81671   0.00000  Uiso   1.00
O772   O     0.81134   0.49793   0.68329   0.00000  Uiso   1.00
H773   H     0.98772   0.55866   0.62078   0.00000  Uiso   1.00
H774   H     0.67935   0.43882   0.87725   0.00000  Uiso   1.00
O775   O     0.72976   0.47254   0.58610   0.00000  Uiso   1.00
H776   H     0.68415   0.45489   0.59315   0.00000  Uiso   1.00
O777   O     0.93824   0.51593   0.91412   0.00000  Uiso   1.00
H778   H     0.91765   0.48147   0.90331   0.00000  Uiso   1.00
H779   H     0.66788   0.53839   0.78450   0.00000  Uiso   1.00
H780   H     0.99879   0.46161   0.71550   0.00000  Uiso   1.00
C781   C     0.18169   0.93337   0.75130   0.00000  Uiso   1.00
C782   C     0.15165   0.73330   0.74870   0.00000  Uiso   1.00
C783   C     0.08905   0.80372   0.54138   0.00000  Uiso   1.00
C784   C     0.24269   0.85339   0.95805   0.00000  Uiso   1.00
C785   C     0.04867   0.78446   0.51372   0.00000  Uiso   1.00
C786   C     0.28276   0.87441   0.98497   0.00000  Uiso   1.00
C787   C     0.19013   0.98934   0.75193   0.00000  Uiso   1.00
C788   C     0.14320   0.67733   0.74808   0.00000  Uiso   1.00
C789   C     0.12791   0.82896   0.83311   0.00000  Uiso   1.00
C790   C     0.20536   0.83739   0.66687   0.00000  Uiso   1.00
C791   C     0.10399   0.82037   0.88044   0.00000  Uiso   1.00
C792   C     0.22884   0.84420   0.61930   0.00000  Uiso   1.00
C793   C     0.02636   0.77596   0.94233   0.00000  Uiso   1.00
C794   C     0.30595   0.88568   0.55600   0.00000  Uiso   1.00
C795   C     0.04467   0.78804   0.89789   0.00000  Uiso   1.00
C796   C     0.28835   0.87553   0.60077   0.00000  Uiso   1.00
C797   C     0.14487   0.83958   0.90756   0.00000  Uiso   1.00
C798   C     0.18743   0.82336   0.59284   0.00000  Uiso   1.00
C799   C     0.13119   0.82179   0.95073   0.00000  Uiso   1.00
C800   C     0.20060   0.83843   0.54891   0.00000  Uiso   1.00
C801   C     0.06899   0.79314   0.96891   0.00000  Uiso   1.00
C802   C     0.26275   0.86722   0.53000   0.00000  Uiso   1.00
C803   C     0.17651   0.83336   0.97665   0.00000  Uiso   1.00
C804   C     0.15511   0.82459   0.52293   0.00000  Uiso   1.00
Cu805  Cu    0.10737   0.82775   0.74516   0.00000  Uiso   1.00
Cu806  Cu    0.22596   0.83892   0.75483   0.00000  Uiso   1.00
H807   H     0.33275   0.76599   0.52776   0.00000  Uiso   1.00
H808   H     0.33194   0.89223   0.96999   0.00000  Uiso   1.00
H809   H     0.14612   0.79408   0.60735   0.00000  Uiso   1.00
H810   H     0.18728   0.86865   0.89417   0.00000  Uiso   1.00
H811   H     0.31239   0.75295   0.95588   0.00000  Uiso   1.00
H812   H     0.01991   0.90820   0.54169   0.00000  Uiso   1.00
H813   H     0.23535   0.67979   0.75556   0.00000  Uiso   1.00
H814   H     0.09798   0.98687   0.74445   0.00000  Uiso   1.00
N815   N     0.31506   0.84735   0.76212   0.00000  Uiso   1.00
N816   N     0.01827   0.81932   0.73788   0.00000  Uiso   1.00
O817   O     0.12815   0.90476   0.74686   0.00000  Uiso   1.00
O818   O     0.20518   0.76191   0.75314   0.00000  Uiso   1.00
O819   O     0.22829   0.91420   0.75502   0.00000  Uiso   1.00
O820   O     0.10504   0.75247   0.74497   0.00000  Uiso   1.00
O821   O     0.08851   0.82597   0.80854   0.00000  Uiso   1.00
O822   O     0.24482   0.84070   0.69145   0.00000  Uiso   1.00
O823   O     0.18866   0.83540   0.81671   0.00000  Uiso   1.00
O824   O     0.14468   0.83126   0.68329   0.00000  Uiso   1.00
H825   H     0.32105   0.89199   0.62078   0.00000  Uiso   1.00
H826   H     0.01268   0.77216   0.87725   0.00000  Uiso   1.00
O827   O     0.06310   0.80588   0.58610   0.00000  Uiso   1.00
H828   H     0.01749   0.78822   0.59315   0.00000  Uiso   1.00
O829   O     0.27157   0.84927   0.91412   0.00000  Uiso   1.00
H830   H     0.25098   0.81481   0.90331   0.00000  Uiso   1.00
H831   H     0.00121   0.87172   0.78450   0.00000  Uiso   1.00
H832   H     0.33212   0.79494   0.71550   0.00000  Uiso   1.00
C833   C     0.51502   0.93337   0.75130   0.00000  Uiso   1.00
C834   C     0.48498   0.73330   0.74870   0.00000  Uiso   1.00
C835   C     0.42238   0.80372   0.54138   0.00000  Uiso   1.00
C836   C     0.57602   0.85339   0.95805   0.00000  Uiso   1.00
C837   C     0.38200   0.78446   0.51372   0.00000  Uiso   1.00
C838   C     0.61610   0.87441   0.98497   0.00000  Uiso   1.00
C839   C     0.52346   0.98934   0.75193   0.00000  Uiso   1.00
C840   C     0.47654   0.67733   0.74808   0.00000  Uiso   1.00
C841   C     0.46125   0.82896   0.83311   0.00000  Uiso   1.00
C842   C     0.53869   0.83739   0.66687   0.00000  Uiso   1.00
C843   C     0.43732   0.82037   0.88044   0.00000  Uiso   1.00
C844   C     0.56217   0.84420   0.61930   0.00000  Uiso   1.00
C845   C     0.35970   0.77596   0.94233   0.00000  Uiso   1.00
C846   C     0.63928   0.88568   0.55600   0.00000  Uiso   1.00
C847   C     0.37800   0.78804   0.89789   0.00000  Uiso   1.00
C848   C     0.62168   0.87553   0.60077   0.00000  Uiso   1.00
C849   C     0.47820   0.83958   0.90756   0.00000  Uiso   1.00
C850   C     0.52077   0.82336   0.59284   0.00000  Uiso   1.00
C851   C     0.46452   0.82179   0.95073   0.00000  Uiso   1.00
C852   C     0.53393   0.83843   0.54891   0.00000  Uiso   1.00
C853   C     0.40232   0.79314   0.96891   0.00000  Uiso   1.00
C854   C     0.59608   0.86722   0.53000   0.00000  Uiso   1.00
C855   C     0.50985   0.83336   0.97665   0.00000  Uiso   1.00
C856   C     0.48844   0.82459   0.52293   0.00000  Uiso   1.00
Cu857  Cu    0.44071   0.82775   0.74516   0.00000  Uiso   1.00
Cu858  Cu    0.55929   0.83892   0.75483   0.00000  Uiso   1.00
H859   H     0.66608   0.76599   0.52776   0.00000  Uiso   1.00
H860   H     0.66527   0.89223   0.96999   0.00000  Uiso   1.00
H861   H     0.47945   0.79408   0.60735   0.00000  Uiso   1.00
H862   H     0.52062   0.86865   0.89417   0.00000  Uiso   1.00
H863   H     0.64573   0.75295   0.95588   0.00000  Uiso   1.00
H864   H     0.35325   0.90820   0.54169   0.00000  Uiso   1.00
H865   H     0.56869   0.67979   0.75556   0.00000  Uiso   1.00
H866   H     0.43131   0.98687   0.74445   0.00000  Uiso   1.00
N867   N     0.64839   0.84735   0.76212   0.00000  Uiso   1.00
N868   N     0.35161   0.81932   0.73788   0.00000  Uiso   1.00
O869   O     0.46148   0.90476   0.74686   0.00000  Uiso   1.00
O870   O     0.53852   0.76191   0.75314   0.00000  Uiso   1.00
O871   O     0.56163   0.91420   0.75502   0.00000  Uiso   1.00
O872   O     0.43837   0.75247   0.74497   0.00000  Uiso   1.00
O873   O     0.42185   0.82597   0.80854   0.00000  Uiso   1.00
O874   O     0.57815   0.84070   0.69145   0.00000  Uiso   1.00
O875   O     0.52199   0.83540   0.81671   0.00000  Uiso   1.00
O876   O     0.47801   0.83126   0.68329   0.00000  Uiso   1.00
H877   H     0.65439   0.89199   0.62078   0.00000  Uiso   1.00
H878   H     0.34601   0.77216   0.87725   0.00000  Uiso   1.00
O879   O     0.39643   0.80588   0.58610   0.00000  Uiso   1.00
H880   H     0.35082   0.78822   0.59315   0.00000  Uiso   1.00
O881   O     0.60490   0.84927   0.91412   0.00000  Uiso   1.00
H882   H     0.58432   0.81481   0.90331   0.00000  Uiso   1.00
H883   H     0.33455   0.87172   0.78450   0.00000  Uiso   1.00
H884   H     0.66545   0.79494   0.71550   0.00000  Uiso   1.00
C885   C     0.84835   0.93337   0.75130   0.00000  Uiso   1.00
C886   C     0.81831   0.73330   0.74870   0.00000  Uiso   1.00
C887   C     0.75571   0.80372   0.54138   0.00000  Uiso   1.00
C888   C     0.90936   0.85339   0.95805   0.00000  Uiso   1.00
C889   C     0.71534   0.78446   0.51372   0.00000  Uiso   1.00
C890   C     0.94943   0.87441   0.98497   0.00000  Uiso   1.00
C891   C     0.85680   0.98934   0.75193   0.00000  Uiso   1.00
C892   C     0.80987   0.67733   0.74808   0.00000  Uiso   1.00
C893   C     0.79458   0.82896   0.83311   0.00000  Uiso   1.00
C894   C     0.87203   0.83739   0.66687   0.00000  Uiso   1.00
C895   C     0.77065   0.82037   0.88044   0.00000  Uiso   1.00
C896   C     0.89550   0.84420   0.61930   0.00000  Uiso   1.00
C897   C     0.69303   0.77596   0.94233   0.00000  Uiso   1.00
C898   C     0.97261   0.88568   0.55600   0.00000  Uiso   1.00
C899   C     0.71133   0.78804   0.89789   0.00000  Uiso   1.00
C900   C     0.95501   0.87553   0.60077   0.00000  Uiso   1.00
C901   C     0.81153   0.83958   0.90756   0.00000  Uiso   1.00
C902   C     0.85410   0.82336   0.59284   0.00000  Uiso   1.00
C903   C     0.79785   0.82179   0.95073   0.00000  Uiso   1.00
C904   C     0.86727   0.83843   0.54891   0.00000  Uiso   1.00
C905   C     0.73566   0.79314   0.96891   0.00000  Uiso   1.00
C906   C     0.92942   0.86722   0.53000   0.00000  Uiso   1.00
C907   C     0.84318   0.83336   0.97665   0.00000  Uiso   1.00
C908   C     0.82178   0.82459   0.52293   0.00000  Uiso   1.00
Cu909  Cu    0.77404   0.82775   0.74516   0.00000  Uiso   1.00
Cu910  Cu    0.89263   0.83892   0.75483   0.00000  Uiso   1.00
H911   H     0.99942   0.76599   0.52776   0.00000  Uiso   1.00
H912   H     0.99861   0.89223   0.96999   0.00000  Uiso   1.00
H913   H     0.81279   0.79408   0.60735   0.00000  Uiso   1.00
H914   H     0.85395   0.86865   0.89417   0.00000  Uiso   1.00
H915   H     0.97906   0.75295   0.95588   0.00000  Uiso   1.00
H916   H     0.68658   0.90820   0.54169   0.00000  Uiso   1.00
H917   H     0.90202   0.67979   0.75556   0.00000  Uiso   1.00
H918   H     0.76464   0.98687   0.74445   0.00000  Uiso   1.00
N919   N     0.98173   0.84735   0.76212   0.00000  Uiso   1.00
N920   N     0.68494   0.81932   0.73788   0.00000  Uiso   1.00
O921   O     0.79482   0.90476   0.74686   0.00000  Uiso   1.00
O922   O     0.87185   0.76191   0.75314   0.00000  Uiso   1.00
O923   O     0.89496   0.91420   0.75502   0.00000  Uiso   1.00
O924   O     0.77171   0.75247   0.74497   0.00000  Uiso   1.00
O925   O     0.75518   0.82597   0.80854   0.00000  Uiso   1.00
O926   O     0.91149   0.84070   0.69145   0.00000  Uiso   1.00
O927   O     0.85532   0.83540   0.81671   0.00000  Uiso   1.00
O928   O     0.81134   0.83126   0.68329   0.00000  Uiso   1.00
H929   H     0.98772   0.89199   0.62078   0.00000  Uiso   1.00
H930   H     0.67935   0.77216   0.87725   0.00000  Uiso   1.00
O931   O     0.72976   0.80588   0.58610   0.00000  Uiso   1.00
H932   H     0.68415   0.78822   0.59315   0.00000  Uiso   1.00
O933   O     0.93824   0.84927   0.91412   0.00000  Uiso   1.00
H934   H     0.91765   0.81481   0.90331   0.00000  Uiso   1.00
H935   H     0.66788   0.87172   0.78450   0.00000  Uiso   1.00
H936   H     0.99879   0.79494   0.71550   0.00000  Uiso   1.00
loop_
_geom_bond_atom_site_label_1
_geom_bond_atom_site_label_2
_geom_bond_distance
_geom_bond_site_symmetry_2
_ccdc_geom_bond_type
C1     O37     1.293   .     A
C1     C7      1.428   .     S
C1     O39     1.287   .     A
C2     O38     1.293   .     A
C2     O40     1.287   .     A
C2     C8      1.428   .     S
C3     C24     1.432   .     A
C3     O47     1.382   .     S
C3     C5      1.402   .     A
C4     O49     1.376   .     S
C4     C6      1.388   .     A
C4     C23     1.431   .     A
C5     C489    1.387   1_554 S
C5     H131    1.085   1_455 S
C6     H28     1.085   .     S
C6     C490    1.388   .     S
C7     C164    1.328   .     S
C7     H189    1.088   .     S
C8     C319    1.328   1_545 S
C8     H346    1.088   1_545 S
C9     C11     1.465   .     S
C9     O41     1.302   .     A
C9     O43     1.297   .     A
C10    O42     1.303   .     A
C10    O44     1.297   .     A
C10    C12     1.466   .     S
C11    C15     1.397   .     A
C11    C17     1.397   .     A
C12    C18     1.397   .     A
C12    C16     1.397   .     A
C13    C21     1.405   .     A
C13    C15     1.394   .     A
C13    H135    1.084   1_455 S
C14    C22     1.406   .     A
C14    C16     1.393   .     A
C14    H84     1.084   .     S
C15    H46     1.083   .     S
C16    H45     1.083   .     S
C17    C19     1.406   .     A
C17    H30     1.079   .     S
C18    H29     1.076   .     S
C18    C20     1.407   .     A
C19    C23     1.428   .     A
C19    C21     1.413   .     A
C20    C22     1.418   .     A
C20    C24     1.434   .     A
C21    C473    1.387   .     S
C22    C474    1.388   1_554 S
C23    C492    1.432   .     S
C24    C491    1.432   1_554 S
Cu25   O44     1.914   .     S
Cu25   O40     1.952   .     S
Cu25   N36     2.024   .     S
Cu25   O41     1.936   .     S
Cu25   O37     1.956   .     S
Cu25   Cu26    2.693   .     S
Cu26   O43     1.914   .     S
Cu26   O39     1.952   .     S
Cu26   N35     2.024   .     S
Cu26   O42     1.936   .     S
Cu26   O38     1.956   .     S
H27    C57     1.085   .     S
H31    C65     1.084   .     S
H32    C118    1.084   1_455 S
H33    C319    1.088   1_545 S
H34    C164    1.088   .     S
N35    N88     1.285   .     S
N35    H103    1.029   .     S
N36    N139    1.285   1_455 S
N36    H156    1.029   1_455 S
O47    H48     0.992   .     S
O49    H50     0.992   .     S
H51    N139    1.029   1_455 S
H52    N88     1.029   .     S
C53    O89     1.293   .     A
C53    C59     1.428   .     S
C53    O91     1.287   .     A
C54    O90     1.293   .     A
C54    O92     1.287   .     A
C54    C60     1.428   .     S
C55    C76     1.432   .     A
C55    O99     1.382   .     S
C55    C57     1.402   .     A
C56    O101    1.376   .     S
C56    C58     1.388   .     A
C56    C75     1.431   .     A
C57    C541    1.387   1_554 S
C58    H80     1.085   .     S
C58    C542    1.388   .     S
C59    C216    1.328   .     S
C59    H241    1.088   .     S
C60    C371    1.328   1_545 S
C60    H398    1.088   1_545 S
C61    C63     1.465   .     S
C61    O93     1.302   .     A
C61    O95     1.297   .     A
C62    O94     1.303   .     A
C62    O96     1.297   .     A
C62    C64     1.466   .     S
C63    C67     1.397   .     A
C63    C69     1.397   .     A
C64    C70     1.397   .     A
C64    C68     1.397   .     A
C65    C73     1.405   .     A
C65    C67     1.394   .     A
C66    C74     1.406   .     A
C66    C68     1.393   .     A
C66    H136    1.084   .     S
C67    H98     1.083   .     S
C68    H97     1.083   .     S
C69    C71     1.406   .     A
C69    H82     1.079   .     S
C70    H81     1.076   .     S
C70    C72     1.407   .     A
C71    C75     1.428   .     A
C71    C73     1.413   .     A
C72    C74     1.418   .     A
C72    C76     1.434   .     A
C73    C525    1.387   .     S
C74    C526    1.388   1_554 S
C75    C544    1.432   .     S
C76    C543    1.432   1_554 S
Cu77   O96     1.914   .     S
Cu77   O92     1.952   .     S
Cu77   N88     2.024   .     S
Cu77   O93     1.936   .     S
Cu77   O89     1.956   .     S
Cu77   Cu78    2.693   .     S
Cu78   O95     1.914   .     S
Cu78   O91     1.952   .     S
Cu78   N87     2.024   .     S
Cu78   O94     1.936   .     S
Cu78   O90     1.956   .     S
H79    C109    1.085   .     S
H83    C117    1.084   .     S
H85    C371    1.088   1_545 S
H86    C216    1.088   .     S
N87    N140    1.285   .     S
N87    H155    1.029   .     S
O99    H100    0.992   .     S
O101   H102    0.992   .     S
H104   N140    1.029   .     S
C105   O141    1.293   .     A
C105   C111    1.428   .     S
C105   O143    1.287   .     A
C106   O142    1.293   .     A
C106   O144    1.287   .     A
C106   C112    1.428   .     S
C107   C128    1.432   .     A
C107   O151    1.382   .     S
C107   C109    1.402   .     A
C108   O153    1.376   .     S
C108   C110    1.388   .     A
C108   C127    1.431   .     A
C109   C593    1.387   1_554 S
C110   H132    1.085   .     S
C110   C594    1.388   .     S
C111   C268    1.328   .     S
C111   H293    1.088   .     S
C112   C423    1.328   1_545 S
C112   H450    1.088   1_545 S
C113   C115    1.465   .     S
C113   O145    1.302   .     A
C113   O147    1.297   .     A
C114   O146    1.303   .     A
C114   O148    1.297   .     A
C114   C116    1.466   .     S
C115   C119    1.397   .     A
C115   C121    1.397   .     A
C116   C122    1.397   .     A
C116   C120    1.397   .     A
C117   C125    1.405   .     A
C117   C119    1.394   .     A
C118   C126    1.406   .     A
C118   C120    1.393   .     A
C118   H32     1.084   1_655 S
C119   H150    1.083   .     S
C120   H149    1.083   .     S
C121   C123    1.406   .     A
C121   H134    1.079   .     S
C122   H133    1.076   .     S
C122   C124    1.407   .     A
C123   C127    1.428   .     A
C123   C125    1.413   .     A
C124   C126    1.418   .     A
C124   C128    1.434   .     A
C125   C577    1.387   .     S
C126   C578    1.388   1_554 S
C127   C596    1.432   .     S
C128   C595    1.432   1_554 S
Cu129  O148    1.914   .     S
Cu129  O144    1.952   .     S
Cu129  N140    2.024   .     S
Cu129  O145    1.936   .     S
Cu129  O141    1.956   .     S
Cu129  Cu130   2.693   .     S
Cu130  O147    1.914   .     S
Cu130  O143    1.952   .     S
Cu130  N139    2.024   .     S
Cu130  O146    1.936   .     S
Cu130  O142    1.956   .     S
H131   C5      1.085   1_655 S
H135   C13     1.084   1_655 S
H137   C423    1.088   1_545 S
H138   C268    1.088   .     S
N139   N36     1.285   1_655 S
N139   H51     1.029   1_655 S
O151   H152    0.992   .     S
O153   H154    0.992   .     S
H156   N36     1.029   1_655 S
C157   O193    1.293   .     A
C157   C163    1.428   .     S
C157   O195    1.287   .     A
C158   O194    1.293   .     A
C158   O196    1.287   .     A
C158   C164    1.428   .     S
C159   C180    1.432   .     A
C159   O203    1.382   .     S
C159   C161    1.402   .     A
C160   O205    1.376   .     S
C160   C162    1.388   .     A
C160   C179    1.431   .     A
C161   C645    1.387   1_554 S
C161   H287    1.085   1_455 S
C162   H184    1.085   .     S
C162   C646    1.388   .     S
C163   C320    1.328   .     S
C163   H345    1.088   .     S
C165   C167    1.465   .     S
C165   O197    1.302   .     A
C165   O199    1.297   .     A
C166   O198    1.303   .     A
C166   O200    1.297   .     A
C166   C168    1.466   .     S
C167   C171    1.397   .     A
C167   C173    1.397   .     A
C168   C174    1.397   .     A
C168   C172    1.397   .     A
C169   C177    1.405   .     A
C169   C171    1.394   .     A
C169   H291    1.084   1_455 S
C170   C178    1.406   .     A
C170   C172    1.393   .     A
C170   H240    1.084   .     S
C171   H202    1.083   .     S
C172   H201    1.083   .     S
C173   C175    1.406   .     A
C173   H186    1.079   .     S
C174   H185    1.076   .     S
C174   C176    1.407   .     A
C175   C179    1.428   .     A
C175   C177    1.413   .     A
C176   C178    1.418   .     A
C176   C180    1.434   .     A
C177   C629    1.387   .     S
C178   C630    1.388   1_554 S
C179   C648    1.432   .     S
C180   C647    1.432   1_554 S
Cu181  O200    1.914   .     S
Cu181  O196    1.952   .     S
Cu181  N192    2.024   .     S
Cu181  O197    1.936   .     S
Cu181  O193    1.956   .     S
Cu181  Cu182   2.693   .     S
Cu182  O199    1.914   .     S
Cu182  O195    1.952   .     S
Cu182  N191    2.024   .     S
Cu182  O198    1.936   .     S
Cu182  O194    1.956   .     S
H183   C213    1.085   .     S
H187   C221    1.084   .     S
H188   C274    1.084   1_455 S
H190   C320    1.088   .     S
N191   N244    1.285   .     S
N191   H259    1.029   .     S
N192   N295    1.285   1_455 S
N192   H312    1.029   1_455 S
O203   H204    0.992   .     S
O205   H206    0.992   .     S
H207   N295    1.029   1_455 S
H208   N244    1.029   .     S
C209   O245    1.293   .     A
C209   C215    1.428   .     S
C209   O247    1.287   .     A
C210   O246    1.293   .     A
C210   O248    1.287   .     A
C210   C216    1.428   .     S
C211   C232    1.432   .     A
C211   O255    1.382   .     S
C211   C213    1.402   .     A
C212   O257    1.376   .     S
C212   C214    1.388   .     A
C212   C231    1.431   .     A
C213   C697    1.387   1_554 S
C214   H236    1.085   .     S
C214   C698    1.388   .     S
C215   C372    1.328   .     S
C215   H397    1.088   .     S
C217   C219    1.465   .     S
C217   O249    1.302   .     A
C217   O251    1.297   .     A
C218   O250    1.303   .     A
C218   O252    1.297   .     A
C218   C220    1.466   .     S
C219   C223    1.397   .     A
C219   C225    1.397   .     A
C220   C226    1.397   .     A
C220   C224    1.397   .     A
C221   C229    1.405   .     A
C221   C223    1.394   .     A
C222   C230    1.406   .     A
C222   C224    1.393   .     A
C222   H292    1.084   .     S
C223   H254    1.083   .     S
C224   H253    1.083   .     S
C225   C227    1.406   .     A
C225   H238    1.079   .     S
C226   H237    1.076   .     S
C226   C228    1.407   .     A
C227   C231    1.428   .     A
C227   C229    1.413   .     A
C228   C230    1.418   .     A
C228   C232    1.434   .     A
C229   C681    1.387   .     S
C230   C682    1.388   1_554 S
C231   C700    1.432   .     S
C232   C699    1.432   1_554 S
Cu233  O252    1.914   .     S
Cu233  O248    1.952   .     S
Cu233  N244    2.024   .     S
Cu233  O249    1.936   .     S
Cu233  O245    1.956   .     S
Cu233  Cu234   2.693   .     S
Cu234  O251    1.914   .     S
Cu234  O247    1.952   .     S
Cu234  N243    2.024   .     S
Cu234  O250    1.936   .     S
Cu234  O246    1.956   .     S
H235   C265    1.085   .     S
H239   C273    1.084   .     S
H242   C372    1.088   .     S
N243   N296    1.285   .     S
N243   H311    1.029   .     S
O255   H256    0.992   .     S
O257   H258    0.992   .     S
H260   N296    1.029   .     S
C261   O297    1.293   .     A
C261   C267    1.428   .     S
C261   O299    1.287   .     A
C262   O298    1.293   .     A
C262   O300    1.287   .     A
C262   C268    1.428   .     S
C263   C284    1.432   .     A
C263   O307    1.382   .     S
C263   C265    1.402   .     A
C264   O309    1.376   .     S
C264   C266    1.388   .     A
C264   C283    1.431   .     A
C265   C749    1.387   1_554 S
C266   H288    1.085   .     S
C266   C750    1.388   .     S
C267   C424    1.328   .     S
C267   H449    1.088   .     S
C269   C271    1.465   .     S
C269   O301    1.302   .     A
C269   O303    1.297   .     A
C270   O302    1.303   .     A
C270   O304    1.297   .     A
C270   C272    1.466   .     S
C271   C275    1.397   .     A
C271   C277    1.397   .     A
C272   C278    1.397   .     A
C272   C276    1.397   .     A
C273   C281    1.405   .     A
C273   C275    1.394   .     A
C274   C282    1.406   .     A
C274   C276    1.393   .     A
C274   H188    1.084   1_655 S
C275   H306    1.083   .     S
C276   H305    1.083   .     S
C277   C279    1.406   .     A
C277   H290    1.079   .     S
C278   H289    1.076   .     S
C278   C280    1.407   .     A
C279   C283    1.428   .     A
C279   C281    1.413   .     A
C280   C282    1.418   .     A
C280   C284    1.434   .     A
C281   C733    1.387   .     S
C282   C734    1.388   1_554 S
C283   C752    1.432   .     S
C284   C751    1.432   1_554 S
Cu285  O304    1.914   .     S
Cu285  O300    1.952   .     S
Cu285  N296    2.024   .     S
Cu285  O301    1.936   .     S
Cu285  O297    1.956   .     S
Cu285  Cu286   2.693   .     S
Cu286  O303    1.914   .     S
Cu286  O299    1.952   .     S
Cu286  N295    2.024   .     S
Cu286  O302    1.936   .     S
Cu286  O298    1.956   .     S
H287   C161    1.085   1_655 S
H291   C169    1.084   1_655 S
H294   C424    1.088   .     S
N295   N192    1.285   1_655 S
N295   H207    1.029   1_655 S
O307   H308    0.992   .     S
O309   H310    0.992   .     S
H312   N192    1.029   1_655 S
C313   O349    1.293   .     A
C313   C319    1.428   .     S
C313   O351    1.287   .     A
C314   O350    1.293   .     A
C314   O352    1.287   .     A
C314   C320    1.428   .     S
C315   C336    1.432   .     A
C315   O359    1.382   .     S
C315   C317    1.402   .     A
C316   O361    1.376   .     S
C316   C318    1.388   .     A
C316   C335    1.431   .     A
C317   C801    1.387   1_554 S
C317   H443    1.085   1_455 S
C318   H340    1.085   .     S
C318   C802    1.388   .     S
C319   C8      1.328   1_565 S
C319   H33     1.088   1_565 S
C321   C323    1.465   .     S
C321   O353    1.302   .     A
C321   O355    1.297   .     A
C322   O354    1.303   .     A
C322   O356    1.297   .     A
C322   C324    1.466   .     S
C323   C327    1.397   .     A
C323   C329    1.397   .     A
C324   C330    1.397   .     A
C324   C328    1.397   .     A
C325   C333    1.405   .     A
C325   C327    1.394   .     A
C325   H447    1.084   1_455 S
C326   C334    1.406   .     A
C326   C328    1.393   .     A
C326   H396    1.084   .     S
C327   H358    1.083   .     S
C328   H357    1.083   .     S
C329   C331    1.406   .     A
C329   H342    1.079   .     S
C330   H341    1.076   .     S
C330   C332    1.407   .     A
C331   C335    1.428   .     A
C331   C333    1.413   .     A
C332   C334    1.418   .     A
C332   C336    1.434   .     A
C333   C785    1.387   .     S
C334   C786    1.388   1_554 S
C335   C804    1.432   .     S
C336   C803    1.432   1_554 S
Cu337  O356    1.914   .     S
Cu337  O352    1.952   .     S
Cu337  N348    2.024   .     S
Cu337  O353    1.936   .     S
Cu337  O349    1.956   .     S
Cu337  Cu338   2.693   .     S
Cu338  O355    1.914   .     S
Cu338  O351    1.952   .     S
Cu338  N347    2.024   .     S
Cu338  O354    1.936   .     S
Cu338  O350    1.956   .     S
H339   C369    1.085   .     S
H343   C377    1.084   .     S
H344   C430    1.084   1_455 S
H346   C8      1.088   1_565 S
N347   N400    1.285   .     S
N347   H415    1.029   .     S
N348   N451    1.285   1_455 S
N348   H468    1.029   1_455 S
O359   H360    0.992   .     S
O361   H362    0.992   .     S
H363   N451    1.029   1_455 S
H364   N400    1.029   .     S
C365   O401    1.293   .     A
C365   C371    1.428   .     S
C365   O403    1.287   .     A
C366   O402    1.293   .     A
C366   O404    1.287   .     A
C366   C372    1.428   .     S
C367   C388    1.432   .     A
C367   O411    1.382   .     S
C367   C369    1.402   .     A
C368   O413    1.376   .     S
C368   C370    1.388   .     A
C368   C387    1.431   .     A
C369   C853    1.387   1_554 S
C370   H392    1.085   .     S
C370   C854    1.388   .     S
C371   C60     1.328   1_565 S
C371   H85     1.088   1_565 S
C373   C375    1.465   .     S
C373   O405    1.302   .     A
C373   O407    1.297   .     A
C374   O406    1.303   .     A
C374   O408    1.297   .     A
C374   C376    1.466   .     S
C375   C379    1.397   .     A
C375   C381    1.397   .     A
C376   C382    1.397   .     A
C376   C380    1.397   .     A
C377   C385    1.405   .     A
C377   C379    1.394   .     A
C378   C386    1.406   .     A
C378   C380    1.393   .     A
C378   H448    1.084   .     S
C379   H410    1.083   .     S
C380   H409    1.083   .     S
C381   C383    1.406   .     A
C381   H394    1.079   .     S
C382   H393    1.076   .     S
C382   C384    1.407   .     A
C383   C387    1.428   .     A
C383   C385    1.413   .     A
C384   C386    1.418   .     A
C384   C388    1.434   .     A
C385   C837    1.387   .     S
C386   C838    1.388   1_554 S
C387   C856    1.432   .     S
C388   C855    1.432   1_554 S
Cu389  O408    1.914   .     S
Cu389  O404    1.952   .     S
Cu389  N400    2.024   .     S
Cu389  O405    1.936   .     S
Cu389  O401    1.956   .     S
Cu389  Cu390   2.693   .     S
Cu390  O407    1.914   .     S
Cu390  O403    1.952   .     S
Cu390  N399    2.024   .     S
Cu390  O406    1.936   .     S
Cu390  O402    1.956   .     S
H391   C421    1.085   .     S
H395   C429    1.084   .     S
H398   C60     1.088   1_565 S
N399   N452    1.285   .     S
N399   H467    1.029   .     S
O411   H412    0.992   .     S
O413   H414    0.992   .     S
H416   N452    1.029   .     S
C417   O453    1.293   .     A
C417   C423    1.428   .     S
C417   O455    1.287   .     A
C418   O454    1.293   .     A
C418   O456    1.287   .     A
C418   C424    1.428   .     S
C419   C440    1.432   .     A
C419   O463    1.382   .     S
C419   C421    1.402   .     A
C420   O465    1.376   .     S
C420   C422    1.388   .     A
C420   C439    1.431   .     A
C421   C905    1.387   1_554 S
C422   H444    1.085   .     S
C422   C906    1.388   .     S
C423   C112    1.328   1_565 S
C423   H137    1.088   1_565 S
C425   C427    1.465   .     S
C425   O457    1.302   .     A
C425   O459    1.297   .     A
C426   O458    1.303   .     A
C426   O460    1.297   .     A
C426   C428    1.466   .     S
C427   C431    1.397   .     A
C427   C433    1.397   .     A
C428   C434    1.397   .     A
C428   C432    1.397   .     A
C429   C437    1.405   .     A
C429   C431    1.394   .     A
C430   C438    1.406   .     A
C430   C432    1.393   .     A
C430   H344    1.084   1_655 S
C431   H462    1.083   .     S
C432   H461    1.083   .     S
C433   C435    1.406   .     A
C433   H446    1.079   .     S
C434   H445    1.076   .     S
C434   C436    1.407   .     A
C435   C439    1.428   .     A
C435   C437    1.413   .     A
C436   C438    1.418   .     A
C436   C440    1.434   .     A
C437   C889    1.387   .     S
C438   C890    1.388   1_554 S
C439   C908    1.432   .     S
C440   C907    1.432   1_554 S
Cu441  O460    1.914   .     S
Cu441  O456    1.952   .     S
Cu441  N452    2.024   .     S
Cu441  O457    1.936   .     S
Cu441  O453    1.956   .     S
Cu441  Cu442   2.693   .     S
Cu442  O459    1.914   .     S
Cu442  O455    1.952   .     S
Cu442  N451    2.024   .     S
Cu442  O458    1.936   .     S
Cu442  O454    1.956   .     S
H443   C317    1.085   1_655 S
H447   C325    1.084   1_655 S
H450   C112    1.088   1_565 S
N451   N348    1.285   1_655 S
N451   H363    1.029   1_655 S
O463   H464    0.992   .     S
O465   H466    0.992   .     S
H468   N348    1.029   1_655 S
C469   O505    1.293   .     A
C469   C475    1.428   .     S
C469   O507    1.287   .     A
C470   O506    1.293   .     A
C470   O508    1.287   .     A
C470   C476    1.428   .     S
C471   C492    1.432   .     A
C471   O515    1.382   .     S
C471   C473    1.402   .     A
C472   O517    1.376   .     S
C472   C474    1.388   .     A
C472   C491    1.431   .     A
C473   H599    1.085   1_455 S
C474   H496    1.085   .     S
C474   C22     1.388   1_556 S
C475   C632    1.328   .     S
C475   H657    1.088   .     S
C476   C787    1.328   1_545 S
C476   H814    1.088   1_545 S
C477   C479    1.465   .     S
C477   O509    1.302   .     A
C477   O511    1.297   .     A
C478   O510    1.303   .     A
C478   O512    1.297   .     A
C478   C480    1.466   .     S
C479   C483    1.397   .     A
C479   C485    1.397   .     A
C480   C486    1.397   .     A
C480   C484    1.397   .     A
C481   C489    1.405   .     A
C481   C483    1.394   .     A
C481   H603    1.084   1_455 S
C482   C490    1.406   .     A
C482   C484    1.393   .     A
C482   H552    1.084   .     S
C483   H514    1.083   .     S
C484   H513    1.083   .     S
C485   C487    1.406   .     A
C485   H498    1.079   .     S
C486   H497    1.076   .     S
C486   C488    1.407   .     A
C487   C491    1.428   .     A
C487   C489    1.413   .     A
C488   C490    1.418   .     A
C488   C492    1.434   .     A
C489   C5      1.387   1_556 S
C491   C24     1.432   1_556 S
Cu493  O512    1.914   .     S
Cu493  O508    1.952   .     S
Cu493  N504    2.024   .     S
Cu493  O509    1.936   .     S
Cu493  O505    1.956   .     S
Cu493  Cu494   2.693   .     S
Cu494  O511    1.914   .     S
Cu494  O507    1.952   .     S
Cu494  N503    2.024   .     S
Cu494  O510    1.936   .     S
Cu494  O506    1.956   .     S
H495   C525    1.085   .     S
H499   C533    1.084   .     S
H500   C586    1.084   1_455 S
H501   C787    1.088   1_545 S
H502   C632    1.088   .     S
N503   N556    1.285   .     S
N503   H571    1.029   .     S
N504   N607    1.285   1_455 S
N504   H624    1.029   1_455 S
O515   H516    0.992   .     S
O517   H518    0.992   .     S
H519   N607    1.029   1_455 S
H520   N556    1.029   .     S
C521   O557    1.293   .     A
C521   C527    1.428   .     S
C521   O559    1.287   .     A
C522   O558    1.293   .     A
C522   O560    1.287   .     A
C522   C528    1.428   .     S
C523   C544    1.432   .     A
C523   O567    1.382   .     S
C523   C525    1.402   .     A
C524   O569    1.376   .     S
C524   C526    1.388   .     A
C524   C543    1.431   .     A
C526   H548    1.085   .     S
C526   C74     1.388   1_556 S
C527   C684    1.328   .     S
C527   H709    1.088   .     S
C528   C839    1.328   1_545 S
C528   H866    1.088   1_545 S
C529   C531    1.465   .     S
C529   O561    1.302   .     A
C529   O563    1.297   .     A
C530   O562    1.303   .     A
C530   O564    1.297   .     A
C530   C532    1.466   .     S
C531   C535    1.397   .     A
C531   C537    1.397   .     A
C532   C538    1.397   .     A
C532   C536    1.397   .     A
C533   C541    1.405   .     A
C533   C535    1.394   .     A
C534   C542    1.406   .     A
C534   C536    1.393   .     A
C534   H604    1.084   .     S
C535   H566    1.083   .     S
C536   H565    1.083   .     S
C537   C539    1.406   .     A
C537   H550    1.079   .     S
C538   H549    1.076   .     S
C538   C540    1.407   .     A
C539   C543    1.428   .     A
C539   C541    1.413   .     A
C540   C542    1.418   .     A
C540   C544    1.434   .     A
C541   C57     1.387   1_556 S
C543   C76     1.432   1_556 S
Cu545  O564    1.914   .     S
Cu545  O560    1.952   .     S
Cu545  N556    2.024   .     S
Cu545  O561    1.936   .     S
Cu545  O557    1.956   .     S
Cu545  Cu546   2.693   .     S
Cu546  O563    1.914   .     S
Cu546  O559    1.952   .     S
Cu546  N555    2.024   .     S
Cu546  O562    1.936   .     S
Cu546  O558    1.956   .     S
H547   C577    1.085   .     S
H551   C585    1.084   .     S
H553   C839    1.088   1_545 S
H554   C684    1.088   .     S
N555   N608    1.285   .     S
N555   H623    1.029   .     S
O567   H568    0.992   .     S
O569   H570    0.992   .     S
H572   N608    1.029   .     S
C573   O609    1.293   .     A
C573   C579    1.428   .     S
C573   O611    1.287   .     A
C574   O610    1.293   .     A
C574   O612    1.287   .     A
C574   C580    1.428   .     S
C575   C596    1.432   .     A
C575   O619    1.382   .     S
C575   C577    1.402   .     A
C576   O621    1.376   .     S
C576   C578    1.388   .     A
C576   C595    1.431   .     A
C578   H600    1.085   .     S
C578   C126    1.388   1_556 S
C579   C736    1.328   .     S
C579   H761    1.088   .     S
C580   C891    1.328   1_545 S
C580   H918    1.088   1_545 S
C581   C583    1.465   .     S
C581   O613    1.302   .     A
C581   O615    1.297   .     A
C582   O614    1.303   .     A
C582   O616    1.297   .     A
C582   C584    1.466   .     S
C583   C587    1.397   .     A
C583   C589    1.397   .     A
C584   C590    1.397   .     A
C584   C588    1.397   .     A
C585   C593    1.405   .     A
C585   C587    1.394   .     A
C586   C594    1.406   .     A
C586   C588    1.393   .     A
C586   H500    1.084   1_655 S
C587   H618    1.083   .     S
C588   H617    1.083   .     S
C589   C591    1.406   .     A
C589   H602    1.079   .     S
C590   H601    1.076   .     S
C590   C592    1.407   .     A
C591   C595    1.428   .     A
C591   C593    1.413   .     A
C592   C594    1.418   .     A
C592   C596    1.434   .     A
C593   C109    1.387   1_556 S
C595   C128    1.432   1_556 S
Cu597  O616    1.914   .     S
Cu597  O612    1.952   .     S
Cu597  N608    2.024   .     S
Cu597  O613    1.936   .     S
Cu597  O609    1.956   .     S
Cu597  Cu598   2.693   .     S
Cu598  O615    1.914   .     S
Cu598  O611    1.952   .     S
Cu598  N607    2.024   .     S
Cu598  O614    1.936   .     S
Cu598  O610    1.956   .     S
H599   C473    1.085   1_655 S
H603   C481    1.084   1_655 S
H605   C891    1.088   1_545 S
H606   C736    1.088   .     S
N607   N504    1.285   1_655 S
N607   H519    1.029   1_655 S
O619   H620    0.992   .     S
O621   H622    0.992   .     S
H624   N504    1.029   1_655 S
C625   O661    1.293   .     A
C625   C631    1.428   .     S
C625   O663    1.287   .     A
C626   O662    1.293   .     A
C626   O664    1.287   .     A
C626   C632    1.428   .     S
C627   C648    1.432   .     A
C627   O671    1.382   .     S
C627   C629    1.402   .     A
C628   O673    1.376   .     S
C628   C630    1.388   .     A
C628   C647    1.431   .     A
C629   H755    1.085   1_455 S
C630   H652    1.085   .     S
C630   C178    1.388   1_556 S
C631   C788    1.328   .     S
C631   H813    1.088   .     S
C633   C635    1.465   .     S
C633   O665    1.302   .     A
C633   O667    1.297   .     A
C634   O666    1.303   .     A
C634   O668    1.297   .     A
C634   C636    1.466   .     S
C635   C639    1.397   .     A
C635   C641    1.397   .     A
C636   C642    1.397   .     A
C636   C640    1.397   .     A
C637   C645    1.405   .     A
C637   C639    1.394   .     A
C637   H759    1.084   1_455 S
C638   C646    1.406   .     A
C638   C640    1.393   .     A
C638   H708    1.084   .     S
C639   H670    1.083   .     S
C640   H669    1.083   .     S
C641   C643    1.406   .     A
C641   H654    1.079   .     S
C642   H653    1.076   .     S
C642   C644    1.407   .     A
C643   C647    1.428   .     A
C643   C645    1.413   .     A
C644   C646    1.418   .     A
C644   C648    1.434   .     A
C645   C161    1.387   1_556 S
C647   C180    1.432   1_556 S
Cu649  O668    1.914   .     S
Cu649  O664    1.952   .     S
Cu649  N660    2.024   .     S
Cu649  O665    1.936   .     S
Cu649  O661    1.956   .     S
Cu649  Cu650   2.693   .     S
Cu650  O667    1.914   .     S
Cu650  O663    1.952   .     S
Cu650  N659    2.024   .     S
Cu650  O666    1.936   .     S
Cu650  O662    1.956   .     S
H651   C681    1.085   .     S
H655   C689    1.084   .     S
H656   C742    1.084   1_455 S
H658   C788    1.088   .     S
N659   N712    1.285   .     S
N659   H727    1.029   .     S
N660   N763    1.285   1_455 S
N660   H780    1.029   1_455 S
O671   H672    0.992   .     S
O673   H674    0.992   .     S
H675   N763    1.029   1_455 S
H676   N712    1.029   .     S
C677   O713    1.293   .     A
C677   C683    1.428   .     S
C677   O715    1.287   .     A
C678   O714    1.293   .     A
C678   O716    1.287   .     A
C678   C684    1.428   .     S
C679   C700    1.432   .     A
C679   O723    1.382   .     S
C679   C681    1.402   .     A
C680   O725    1.376   .     S
C680   C682    1.388   .     A
C680   C699    1.431   .     A
C682   H704    1.085   .     S
C682   C230    1.388   1_556 S
C683   C840    1.328   .     S
C683   H865    1.088   .     S
C685   C687    1.465   .     S
C685   O717    1.302   .     A
C685   O719    1.297   .     A
C686   O718    1.303   .     A
C686   O720    1.297   .     A
C686   C688    1.466   .     S
C687   C691    1.397   .     A
C687   C693    1.397   .     A
C688   C694    1.397   .     A
C688   C692    1.397   .     A
C689   C697    1.405   .     A
C689   C691    1.394   .     A
C690   C698    1.406   .     A
C690   C692    1.393   .     A
C690   H760    1.084   .     S
C691   H722    1.083   .     S
C692   H721    1.083   .     S
C693   C695    1.406   .     A
C693   H706    1.079   .     S
C694   H705    1.076   .     S
C694   C696    1.407   .     A
C695   C699    1.428   .     A
C695   C697    1.413   .     A
C696   C698    1.418   .     A
C696   C700    1.434   .     A
C697   C213    1.387   1_556 S
C699   C232    1.432   1_556 S
Cu701  O720    1.914   .     S
Cu701  O716    1.952   .     S
Cu701  N712    2.024   .     S
Cu701  O717    1.936   .     S
Cu701  O713    1.956   .     S
Cu701  Cu702   2.693   .     S
Cu702  O719    1.914   .     S
Cu702  O715    1.952   .     S
Cu702  N711    2.024   .     S
Cu702  O718    1.936   .     S
Cu702  O714    1.956   .     S
H703   C733    1.085   .     S
H707   C741    1.084   .     S
H710   C840    1.088   .     S
N711   N764    1.285   .     S
N711   H779    1.029   .     S
O723   H724    0.992   .     S
O725   H726    0.992   .     S
H728   N764    1.029   .     S
C729   O765    1.293   .     A
C729   C735    1.428   .     S
C729   O767    1.287   .     A
C730   O766    1.293   .     A
C730   O768    1.287   .     A
C730   C736    1.428   .     S
C731   C752    1.432   .     A
C731   O775    1.382   .     S
C731   C733    1.402   .     A
C732   O777    1.376   .     S
C732   C734    1.388   .     A
C732   C751    1.431   .     A
C734   H756    1.085   .     S
C734   C282    1.388   1_556 S
C735   C892    1.328   .     S
C735   H917    1.088   .     S
C737   C739    1.465   .     S
C737   O769    1.302   .     A
C737   O771    1.297   .     A
C738   O770    1.303   .     A
C738   O772    1.297   .     A
C738   C740    1.466   .     S
C739   C743    1.397   .     A
C739   C745    1.397   .     A
C740   C746    1.397   .     A
C740   C744    1.397   .     A
C741   C749    1.405   .     A
C741   C743    1.394   .     A
C742   C750    1.406   .     A
C742   C744    1.393   .     A
C742   H656    1.084   1_655 S
C743   H774    1.083   .     S
C744   H773    1.083   .     S
C745   C747    1.406   .     A
C745   H758    1.079   .     S
C746   H757    1.076   .     S
C746   C748    1.407   .     A
C747   C751    1.428   .     A
C747   C749    1.413   .     A
C748   C750    1.418   .     A
C748   C752    1.434   .     A
C749   C265    1.387   1_556 S
C751   C284    1.432   1_556 S
Cu753  O772    1.914   .     S
Cu753  O768    1.952   .     S
Cu753  N764    2.024   .     S
Cu753  O769    1.936   .     S
Cu753  O765    1.956   .     S
Cu753  Cu754   2.693   .     S
Cu754  O771    1.914   .     S
Cu754  O767    1.952   .     S
Cu754  N763    2.024   .     S
Cu754  O770    1.936   .     S
Cu754  O766    1.956   .     S
H755   C629    1.085   1_655 S
H759   C637    1.084   1_655 S
H762   C892    1.088   .     S
N763   N660    1.285   1_655 S
N763   H675    1.029   1_655 S
O775   H776    0.992   .     S
O777   H778    0.992   .     S
H780   N660    1.029   1_655 S
C781   O817    1.293   .     A
C781   C787    1.428   .     S
C781   O819    1.287   .     A
C782   O818    1.293   .     A
C782   O820    1.287   .     A
C782   C788    1.428   .     S
C783   C804    1.432   .     A
C783   O827    1.382   .     S
C783   C785    1.402   .     A
C784   O829    1.376   .     S
C784   C786    1.388   .     A
C784   C803    1.431   .     A
C785   H911    1.085   1_455 S
C786   H808    1.085   .     S
C786   C334    1.388   1_556 S
C787   C476    1.328   1_565 S
C787   H501    1.088   1_565 S
C789   C791    1.465   .     S
C789   O821    1.302   .     A
C789   O823    1.297   .     A
C790   O822    1.303   .     A
C790   O824    1.297   .     A
C790   C792    1.466   .     S
C791   C795    1.397   .     A
C791   C797    1.397   .     A
C792   C798    1.397   .     A
C792   C796    1.397   .     A
C793   C801    1.405   .     A
C793   C795    1.394   .     A
C793   H915    1.084   1_455 S
C794   C802    1.406   .     A
C794   C796    1.393   .     A
C794   H864    1.084   .     S
C795   H826    1.083   .     S
C796   H825    1.083   .     S
C797   C799    1.406   .     A
C797   H810    1.079   .     S
C798   H809    1.076   .     S
C798   C800    1.407   .     A
C799   C803    1.428   .     A
C799   C801    1.413   .     A
C800   C802    1.418   .     A
C800   C804    1.434   .     A
C801   C317    1.387   1_556 S
C803   C336    1.432   1_556 S
Cu805  O824    1.914   .     S
Cu805  O820    1.952   .     S
Cu805  N816    2.024   .     S
Cu805  O821    1.936   .     S
Cu805  O817    1.956   .     S
Cu805  Cu806   2.693   .     S
Cu806  O823    1.914   .     S
Cu806  O819    1.952   .     S
Cu806  N815    2.024   .     S
Cu806  O822    1.936   .     S
Cu806  O818    1.956   .     S
H807   C837    1.085   .     S
H811   C845    1.084   .     S
H812   C898    1.084   1_455 S
H814   C476    1.088   1_565 S
N815   N868    1.285   .     S
N815   H883    1.029   .     S
N816   N919    1.285   1_455 S
N816   H936    1.029   1_455 S
O827   H828    0.992   .     S
O829   H830    0.992   .     S
H831   N919    1.029   1_455 S
H832   N868    1.029   .     S
C833   O869    1.293   .     A
C833   C839    1.428   .     S
C833   O871    1.287   .     A
C834   O870    1.293   .     A
C834   O872    1.287   .     A
C834   C840    1.428   .     S
C835   C856    1.432   .     A
C835   O879    1.382   .     S
C835   C837    1.402   .     A
C836   O881    1.376   .     S
C836   C838    1.388   .     A
C836   C855    1.431   .     A
C838   H860    1.085   .     S
C838   C386    1.388   1_556 S
C839   C528    1.328   1_565 S
C839   H553    1.088   1_565 S
C841   C843    1.465   .     S
C841   O873    1.302   .     A
C841   O875    1.297   .     A
C842   O874    1.303   .     A
C842   O876    1.297   .     A
C842   C844    1.466   .     S
C843   C847    1.397   .     A
C843   C849    1.397   .     A
C844   C850    1.397   .     A
C844   C848    1.397   .     A
C845   C853    1.405   .     A
C845   C847    1.394   .     A
C846   C854    1.406   .     A
C846   C848    1.393   .     A
C846   H916    1.084   .     S
C847   H878    1.083   .     S
C848   H877    1.083   .     S
C849   C851    1.406   .     A
C849   H862    1.079   .     S
C850   H861    1.076   .     S
C850   C852    1.407   .     A
C851   C855    1.428   .     A
C851   C853    1.413   .     A
C852   C854    1.418   .     A
C852   C856    1.434   .     A
C853   C369    1.387   1_556 S
C855   C388    1.432   1_556 S
Cu857  O876    1.914   .     S
Cu857  O872    1.952   .     S
Cu857  N868    2.024   .     S
Cu857  O873    1.936   .     S
Cu857  O869    1.956   .     S
Cu857  Cu858   2.693   .     S
Cu858  O875    1.914   .     S
Cu858  O871    1.952   .     S
Cu858  N867    2.024   .     S
Cu858  O874    1.936   .     S
Cu858  O870    1.956   .     S
H859   C889    1.085   .     S
H863   C897    1.084   .     S
H866   C528    1.088   1_565 S
N867   N920    1.285   .     S
N867   H935    1.029   .     S
O879   H880    0.992   .     S
O881   H882    0.992   .     S
H884   N920    1.029   .     S
C885   O921    1.293   .     A
C885   C891    1.428   .     S
C885   O923    1.287   .     A
C886   O922    1.293   .     A
C886   O924    1.287   .     A
C886   C892    1.428   .     S
C887   C908    1.432   .     A
C887   O931    1.382   .     S
C887   C889    1.402   .     A
C888   O933    1.376   .     S
C888   C890    1.388   .     A
C888   C907    1.431   .     A
C890   H912    1.085   .     S
C890   C438    1.388   1_556 S
C891   C580    1.328   1_565 S
C891   H605    1.088   1_565 S
C893   C895    1.465   .     S
C893   O925    1.302   .     A
C893   O927    1.297   .     A
C894   O926    1.303   .     A
C894   O928    1.297   .     A
C894   C896    1.466   .     S
C895   C899    1.397   .     A
C895   C901    1.397   .     A
C896   C902    1.397   .     A
C896   C900    1.397   .     A
C897   C905    1.405   .     A
C897   C899    1.394   .     A
C898   C906    1.406   .     A
C898   C900    1.393   .     A
C898   H812    1.084   1_655 S
C899   H930    1.083   .     S
C900   H929    1.083   .     S
C901   C903    1.406   .     A
C901   H914    1.079   .     S
C902   H913    1.076   .     S
C902   C904    1.407   .     A
C903   C907    1.428   .     A
C903   C905    1.413   .     A
C904   C906    1.418   .     A
C904   C908    1.434   .     A
C905   C421    1.387   1_556 S
C907   C440    1.432   1_556 S
Cu909  O928    1.914   .     S
Cu909  O924    1.952   .     S
Cu909  N920    2.024   .     S
Cu909  O925    1.936   .     S
Cu909  O921    1.956   .     S
Cu909  Cu910   2.693   .     S
Cu910  O927    1.914   .     S
Cu910  O923    1.952   .     S
Cu910  N919    2.024   .     S
Cu910  O926    1.936   .     S
Cu910  O922    1.956   .     S
H911   C785    1.085   1_655 S
H915   C793    1.084   1_655 S
H918   C580    1.088   1_565 S
N919   N816    1.285   1_655 S
N919   H831    1.029   1_655 S
O931   H932    0.992   .     S
O933   H934    0.992   .     S
H936   N816    1.029   1_655 S
