data_str_m3_o1_o18_pcu_sym.228
_audit_creation_date              2020-01-03
_audit_creation_method            'Materials Studio'
_symmetry_space_group_name_H-M    'P1'
_symmetry_Int_Tables_number       1
_symmetry_cell_setting            triclinic
loop_
_symmetry_equiv_pos_as_xyz
  x,y,z
_cell_length_a                    29.8401
_cell_length_b                    31.9999
_cell_length_c                    30.7054
_cell_angle_alpha                 90.1299
_cell_angle_beta                  69.7482
_cell_angle_gamma                 89.9970
loop_
_atom_site_label
_atom_site_type_symbol
_atom_site_fract_x
_atom_site_fract_y
_atom_site_fract_z
_atom_site_U_iso_or_equiv
_atom_site_adp_type
_atom_site_occupancy
C1     C     0.16671   0.24656   0.24990   0.00000  Uiso   1.00
C2     C     0.16670   0.08676   0.24984   0.00000  Uiso   1.00
C3     C     0.12262   0.10737   0.04311   0.00000  Uiso   1.00
C4     C     0.22902   0.14980   0.44858   0.00000  Uiso   1.00
C5     C     0.08613   0.11288   0.02455   0.00000  Uiso   1.00
C6     C     0.26295   0.14269   0.46881   0.00000  Uiso   1.00
C7     C     0.21025   0.31187   0.23194   0.00000  Uiso   1.00
C8     C     0.12326   0.02143   0.26705   0.00000  Uiso   1.00
C9     C     0.21025   0.02136   0.23192   0.00000  Uiso   1.00
C10    C     0.12327   0.31195   0.26712   0.00000  Uiso   1.00
C11    C     0.16675   0.04256   0.24958   0.00000  Uiso   1.00
C12    C     0.16676   0.29075   0.24965   0.00000  Uiso   1.00
C13    C     0.31756   0.13621   0.22733   0.00000  Uiso   1.00
C14    C     0.01586   0.19727   0.27240   0.00000  Uiso   1.00
C15    C     0.03193   0.13621   0.22735   0.00000  Uiso   1.00
C16    C     0.30149   0.19726   0.27239   0.00000  Uiso   1.00
C17    C     0.13724   0.16522   0.33780   0.00000  Uiso   1.00
C18    C     0.19621   0.16649   0.16229   0.00000  Uiso   1.00
C19    C     0.12141   0.15707   0.38777   0.00000  Uiso   1.00
C20    C     0.21395   0.16251   0.11199   0.00000  Uiso   1.00
C21    C     0.06177   0.14142   0.46178   0.00000  Uiso   1.00
C22    C     0.27656   0.16746   0.03747   0.00000  Uiso   1.00
C23    C     0.07355   0.15919   0.41753   0.00000  Uiso   1.00
C24    C     0.26024   0.17543   0.08486   0.00000  Uiso   1.00
C25    C     0.15604   0.14371   0.40560   0.00000  Uiso   1.00
C26    C     0.18369   0.14521   0.09081   0.00000  Uiso   1.00
C27    C     0.14521   0.13789   0.45288   0.00000  Uiso   1.00
C28    C     0.20004   0.13655   0.04328   0.00000  Uiso   1.00
C29    C     0.09712   0.13117   0.48038   0.00000  Uiso   1.00
C30    C     0.24780   0.14664   0.01679   0.00000  Uiso   1.00
C31    C     0.18110   0.13695   0.47278   0.00000  Uiso   1.00
C32    C     0.16827   0.12510   0.02007   0.00000  Uiso   1.00
H33    H     0.14650   0.14115   0.11137   0.00000  Uiso   1.00
H34    H     0.19165   0.13669   0.38235   0.00000  Uiso   1.00
H35    H     0.02532   0.13583   0.48154   0.00000  Uiso   1.00
H36    H     0.31006   0.18113   0.01688   0.00000  Uiso   1.00
H37    H     0.24394   0.29536   0.21785   0.00000  Uiso   1.00
H38    H     0.08955   0.03791   0.28111   0.00000  Uiso   1.00
H39    H     0.24394   0.03781   0.21783   0.00000  Uiso   1.00
H40    H     0.08956   0.29553   0.28127   0.00000  Uiso   1.00
H41    H     0.30626   0.11175   0.20905   0.00000  Uiso   1.00
H42    H     0.02729   0.22196   0.29026   0.00000  Uiso   1.00
H43    H     0.05627   0.11175   0.20908   0.00000  Uiso   1.00
H44    H     0.27725   0.22186   0.29040   0.00000  Uiso   1.00
N45    N     0.04759   0.16668   0.25001   0.00000  Uiso   1.00
N46    N     0.28574   0.16666   0.24999   0.00000  Uiso   1.00
O47    O     0.12846   0.22775   0.25001   0.00000  Uiso   1.00
O48    O     0.20488   0.10558   0.25000   0.00000  Uiso   1.00
O49    O     0.20490   0.22774   0.25000   0.00000  Uiso   1.00
O50    O     0.12843   0.10559   0.25000   0.00000  Uiso   1.00
O51    O     0.10661   0.16667   0.31613   0.00000  Uiso   1.00
O52    O     0.22672   0.16666   0.18388   0.00000  Uiso   1.00
O53    O     0.18305   0.16666   0.31612   0.00000  Uiso   1.00
O54    O     0.15028   0.16667   0.18388   0.00000  Uiso   1.00
Zn55   Zn    0.11562   0.16667   0.25000   0.00000  Uiso   1.00
Zn56   Zn    0.21771   0.16666   0.25000   0.00000  Uiso   1.00
Br57   Br    0.02234   0.09364   0.05910   0.00000  Uiso   1.00
Br58   Br    0.30274   0.09577   0.44178   0.00000  Uiso   1.00
O59    O     0.29059   0.19493   0.10398   0.00000  Uiso   1.00
C60    C     0.27688   0.23721   0.11455   0.00000  Uiso   1.00
H61    H     0.28879   0.24679   0.14360   0.00000  Uiso   1.00
H62    H     0.23744   0.24217   0.12696   0.00000  Uiso   1.00
C63    C     0.30129   0.26534   0.07274   0.00000  Uiso   1.00
H64    H     0.00711   0.25954   0.05991   0.00000  Uiso   1.00
H65    H     0.28742   0.25790   0.04440   0.00000  Uiso   1.00
C66    C     0.29190   0.31146   0.08550   0.00000  Uiso   1.00
H67    H     0.25294   0.31805   0.09786   0.00000  Uiso   1.00
H68    H     0.30972   0.33101   0.05450   0.00000  Uiso   1.00
H69    H     0.30634   0.32005   0.11315   0.00000  Uiso   1.00
O70    O     0.03749   0.17364   0.40273   0.00000  Uiso   1.00
C71    C     0.04095   0.21762   0.39677   0.00000  Uiso   1.00
H72    H     0.02394   0.22594   0.37104   0.00000  Uiso   1.00
H73    H     0.07844   0.22920   0.38230   0.00000  Uiso   1.00
C74    C     0.01427   0.24034   0.44234   0.00000  Uiso   1.00
H75    H     0.30992   0.22956   0.45587   0.00000  Uiso   1.00
H76    H     0.03138   0.23312   0.46834   0.00000  Uiso   1.00
C77    C     0.01492   0.28757   0.43534   0.00000  Uiso   1.00
H78    H     0.05226   0.29929   0.42260   0.00000  Uiso   1.00
H79    H     0.32856   0.30317   0.46884   0.00000  Uiso   1.00
H80    H     0.33076   0.29574   0.40990   0.00000  Uiso   1.00
Br81   Br    0.11222   0.06919   0.09451   0.00000  Uiso   1.00
Br82   Br    0.24872   0.19070   0.39958   0.00000  Uiso   1.00
C83    C     0.50005   0.24656   0.24990   0.00000  Uiso   1.00
C84    C     0.50004   0.08676   0.24984   0.00000  Uiso   1.00
C85    C     0.45595   0.10737   0.04311   0.00000  Uiso   1.00
C86    C     0.56235   0.14980   0.44858   0.00000  Uiso   1.00
C87    C     0.41946   0.11288   0.02455   0.00000  Uiso   1.00
C88    C     0.59628   0.14269   0.46881   0.00000  Uiso   1.00
C89    C     0.54358   0.31187   0.23194   0.00000  Uiso   1.00
C90    C     0.45659   0.02143   0.26705   0.00000  Uiso   1.00
C91    C     0.54358   0.02136   0.23192   0.00000  Uiso   1.00
C92    C     0.45660   0.31195   0.26712   0.00000  Uiso   1.00
C93    C     0.50008   0.04256   0.24958   0.00000  Uiso   1.00
C94    C     0.50009   0.29075   0.24965   0.00000  Uiso   1.00
C95    C     0.65089   0.13621   0.22733   0.00000  Uiso   1.00
C96    C     0.34919   0.19727   0.27240   0.00000  Uiso   1.00
C97    C     0.36527   0.13621   0.22735   0.00000  Uiso   1.00
C98    C     0.63483   0.19726   0.27239   0.00000  Uiso   1.00
C99    C     0.47057   0.16522   0.33780   0.00000  Uiso   1.00
C100   C     0.52954   0.16649   0.16229   0.00000  Uiso   1.00
C101   C     0.45475   0.15707   0.38777   0.00000  Uiso   1.00
C102   C     0.54729   0.16251   0.11199   0.00000  Uiso   1.00
C103   C     0.39510   0.14142   0.46178   0.00000  Uiso   1.00
C104   C     0.60990   0.16746   0.03747   0.00000  Uiso   1.00
C105   C     0.40688   0.15919   0.41753   0.00000  Uiso   1.00
C106   C     0.59357   0.17543   0.08486   0.00000  Uiso   1.00
C107   C     0.48937   0.14371   0.40560   0.00000  Uiso   1.00
C108   C     0.51702   0.14521   0.09081   0.00000  Uiso   1.00
C109   C     0.47854   0.13789   0.45288   0.00000  Uiso   1.00
C110   C     0.53337   0.13655   0.04328   0.00000  Uiso   1.00
C111   C     0.43046   0.13117   0.48038   0.00000  Uiso   1.00
C112   C     0.58114   0.14664   0.01679   0.00000  Uiso   1.00
C113   C     0.51443   0.13695   0.47278   0.00000  Uiso   1.00
C114   C     0.50160   0.12510   0.02007   0.00000  Uiso   1.00
H115   H     0.47984   0.14115   0.11137   0.00000  Uiso   1.00
H116   H     0.52498   0.13669   0.38235   0.00000  Uiso   1.00
H117   H     0.35865   0.13583   0.48154   0.00000  Uiso   1.00
H118   H     0.64340   0.18113   0.01688   0.00000  Uiso   1.00
H119   H     0.57727   0.29536   0.21785   0.00000  Uiso   1.00
H120   H     0.42288   0.03791   0.28111   0.00000  Uiso   1.00
H121   H     0.57727   0.03781   0.21783   0.00000  Uiso   1.00
H122   H     0.42289   0.29553   0.28127   0.00000  Uiso   1.00
H123   H     0.63959   0.11175   0.20905   0.00000  Uiso   1.00
H124   H     0.36062   0.22196   0.29026   0.00000  Uiso   1.00
H125   H     0.38960   0.11175   0.20908   0.00000  Uiso   1.00
H126   H     0.61059   0.22186   0.29040   0.00000  Uiso   1.00
N127   N     0.38093   0.16668   0.25001   0.00000  Uiso   1.00
N128   N     0.61907   0.16666   0.24999   0.00000  Uiso   1.00
O129   O     0.46179   0.22775   0.25001   0.00000  Uiso   1.00
O130   O     0.53821   0.10558   0.25000   0.00000  Uiso   1.00
O131   O     0.53823   0.22774   0.25000   0.00000  Uiso   1.00
O132   O     0.46177   0.10559   0.25000   0.00000  Uiso   1.00
O133   O     0.43994   0.16667   0.31613   0.00000  Uiso   1.00
O134   O     0.56006   0.16666   0.18388   0.00000  Uiso   1.00
O135   O     0.51639   0.16666   0.31612   0.00000  Uiso   1.00
O136   O     0.48361   0.16667   0.18388   0.00000  Uiso   1.00
Zn137  Zn    0.44896   0.16667   0.25000   0.00000  Uiso   1.00
Zn138  Zn    0.55104   0.16666   0.25000   0.00000  Uiso   1.00
Br139  Br    0.35567   0.09364   0.05910   0.00000  Uiso   1.00
Br140  Br    0.63607   0.09577   0.44178   0.00000  Uiso   1.00
O141   O     0.62392   0.19493   0.10398   0.00000  Uiso   1.00
C142   C     0.61021   0.23721   0.11455   0.00000  Uiso   1.00
H143   H     0.62212   0.24679   0.14360   0.00000  Uiso   1.00
H144   H     0.57077   0.24217   0.12696   0.00000  Uiso   1.00
C145   C     0.63463   0.26534   0.07274   0.00000  Uiso   1.00
H146   H     0.34044   0.25954   0.05991   0.00000  Uiso   1.00
H147   H     0.62076   0.25790   0.04440   0.00000  Uiso   1.00
C148   C     0.62524   0.31146   0.08550   0.00000  Uiso   1.00
H149   H     0.58628   0.31805   0.09786   0.00000  Uiso   1.00
H150   H     0.64306   0.33101   0.05450   0.00000  Uiso   1.00
H151   H     0.63967   0.32005   0.11315   0.00000  Uiso   1.00
O152   O     0.37082   0.17364   0.40273   0.00000  Uiso   1.00
C153   C     0.37428   0.21762   0.39677   0.00000  Uiso   1.00
H154   H     0.35727   0.22594   0.37104   0.00000  Uiso   1.00
H155   H     0.41177   0.22920   0.38230   0.00000  Uiso   1.00
C156   C     0.34760   0.24034   0.44234   0.00000  Uiso   1.00
H157   H     0.64326   0.22956   0.45587   0.00000  Uiso   1.00
H158   H     0.36471   0.23312   0.46834   0.00000  Uiso   1.00
C159   C     0.34826   0.28757   0.43534   0.00000  Uiso   1.00
H160   H     0.38559   0.29929   0.42260   0.00000  Uiso   1.00
H161   H     0.66190   0.30317   0.46884   0.00000  Uiso   1.00
H162   H     0.66410   0.29574   0.40990   0.00000  Uiso   1.00
Br163  Br    0.44555   0.06919   0.09451   0.00000  Uiso   1.00
Br164  Br    0.58205   0.19070   0.39958   0.00000  Uiso   1.00
C165   C     0.83338   0.24656   0.24990   0.00000  Uiso   1.00
C166   C     0.83337   0.08676   0.24984   0.00000  Uiso   1.00
C167   C     0.78928   0.10737   0.04311   0.00000  Uiso   1.00
C168   C     0.89568   0.14980   0.44858   0.00000  Uiso   1.00
C169   C     0.75279   0.11288   0.02455   0.00000  Uiso   1.00
C170   C     0.92961   0.14269   0.46881   0.00000  Uiso   1.00
C171   C     0.87692   0.31187   0.23194   0.00000  Uiso   1.00
C172   C     0.78993   0.02143   0.26705   0.00000  Uiso   1.00
C173   C     0.87691   0.02136   0.23192   0.00000  Uiso   1.00
C174   C     0.78993   0.31195   0.26712   0.00000  Uiso   1.00
C175   C     0.83342   0.04256   0.24958   0.00000  Uiso   1.00
C176   C     0.83343   0.29075   0.24965   0.00000  Uiso   1.00
C177   C     0.98423   0.13621   0.22733   0.00000  Uiso   1.00
C178   C     0.68253   0.19727   0.27240   0.00000  Uiso   1.00
C179   C     0.69860   0.13621   0.22735   0.00000  Uiso   1.00
C180   C     0.96816   0.19726   0.27239   0.00000  Uiso   1.00
C181   C     0.80391   0.16522   0.33780   0.00000  Uiso   1.00
C182   C     0.86288   0.16649   0.16229   0.00000  Uiso   1.00
C183   C     0.78808   0.15707   0.38777   0.00000  Uiso   1.00
C184   C     0.88062   0.16251   0.11199   0.00000  Uiso   1.00
C185   C     0.72844   0.14142   0.46178   0.00000  Uiso   1.00
C186   C     0.94323   0.16746   0.03747   0.00000  Uiso   1.00
C187   C     0.74022   0.15919   0.41753   0.00000  Uiso   1.00
C188   C     0.92691   0.17543   0.08486   0.00000  Uiso   1.00
C189   C     0.82270   0.14371   0.40560   0.00000  Uiso   1.00
C190   C     0.85036   0.14521   0.09081   0.00000  Uiso   1.00
C191   C     0.81188   0.13789   0.45288   0.00000  Uiso   1.00
C192   C     0.86670   0.13655   0.04328   0.00000  Uiso   1.00
C193   C     0.76379   0.13117   0.48038   0.00000  Uiso   1.00
C194   C     0.91447   0.14664   0.01679   0.00000  Uiso   1.00
C195   C     0.84776   0.13695   0.47278   0.00000  Uiso   1.00
C196   C     0.83493   0.12510   0.02007   0.00000  Uiso   1.00
H197   H     0.81317   0.14115   0.11137   0.00000  Uiso   1.00
H198   H     0.85831   0.13669   0.38235   0.00000  Uiso   1.00
H199   H     0.69199   0.13583   0.48154   0.00000  Uiso   1.00
H200   H     0.97673   0.18113   0.01688   0.00000  Uiso   1.00
H201   H     0.91061   0.29536   0.21785   0.00000  Uiso   1.00
H202   H     0.75621   0.03791   0.28111   0.00000  Uiso   1.00
H203   H     0.91061   0.03781   0.21783   0.00000  Uiso   1.00
H204   H     0.75623   0.29553   0.28127   0.00000  Uiso   1.00
H205   H     0.97293   0.11175   0.20905   0.00000  Uiso   1.00
H206   H     0.69396   0.22196   0.29026   0.00000  Uiso   1.00
H207   H     0.72294   0.11175   0.20908   0.00000  Uiso   1.00
H208   H     0.94392   0.22186   0.29040   0.00000  Uiso   1.00
N209   N     0.71426   0.16668   0.25001   0.00000  Uiso   1.00
N210   N     0.95241   0.16666   0.24999   0.00000  Uiso   1.00
O211   O     0.79512   0.22775   0.25001   0.00000  Uiso   1.00
O212   O     0.87154   0.10558   0.25000   0.00000  Uiso   1.00
O213   O     0.87157   0.22774   0.25000   0.00000  Uiso   1.00
O214   O     0.79510   0.10559   0.25000   0.00000  Uiso   1.00
O215   O     0.77328   0.16667   0.31613   0.00000  Uiso   1.00
O216   O     0.89339   0.16666   0.18388   0.00000  Uiso   1.00
O217   O     0.84972   0.16666   0.31612   0.00000  Uiso   1.00
O218   O     0.81695   0.16667   0.18388   0.00000  Uiso   1.00
Zn219  Zn    0.78229   0.16667   0.25000   0.00000  Uiso   1.00
Zn220  Zn    0.88438   0.16666   0.25000   0.00000  Uiso   1.00
Br221  Br    0.68901   0.09364   0.05910   0.00000  Uiso   1.00
Br222  Br    0.96941   0.09577   0.44178   0.00000  Uiso   1.00
O223   O     0.95726   0.19493   0.10398   0.00000  Uiso   1.00
C224   C     0.94355   0.23721   0.11455   0.00000  Uiso   1.00
H225   H     0.95546   0.24679   0.14360   0.00000  Uiso   1.00
H226   H     0.90411   0.24217   0.12696   0.00000  Uiso   1.00
C227   C     0.96796   0.26534   0.07274   0.00000  Uiso   1.00
H228   H     0.67378   0.25954   0.05991   0.00000  Uiso   1.00
H229   H     0.95409   0.25790   0.04440   0.00000  Uiso   1.00
C230   C     0.95857   0.31146   0.08550   0.00000  Uiso   1.00
H231   H     0.91961   0.31805   0.09786   0.00000  Uiso   1.00
H232   H     0.97639   0.33101   0.05450   0.00000  Uiso   1.00
H233   H     0.97301   0.32005   0.11315   0.00000  Uiso   1.00
O234   O     0.70415   0.17364   0.40273   0.00000  Uiso   1.00
C235   C     0.70762   0.21762   0.39677   0.00000  Uiso   1.00
H236   H     0.69061   0.22594   0.37104   0.00000  Uiso   1.00
H237   H     0.74510   0.22920   0.38230   0.00000  Uiso   1.00
C238   C     0.68094   0.24034   0.44234   0.00000  Uiso   1.00
H239   H     0.97659   0.22956   0.45587   0.00000  Uiso   1.00
H240   H     0.69804   0.23312   0.46834   0.00000  Uiso   1.00
C241   C     0.68159   0.28757   0.43534   0.00000  Uiso   1.00
H242   H     0.71893   0.29929   0.42260   0.00000  Uiso   1.00
H243   H     0.99523   0.30317   0.46884   0.00000  Uiso   1.00
H244   H     0.99743   0.29574   0.40990   0.00000  Uiso   1.00
Br245  Br    0.77889   0.06919   0.09451   0.00000  Uiso   1.00
Br246  Br    0.91539   0.19070   0.39958   0.00000  Uiso   1.00
C247   C     0.16671   0.57990   0.24990   0.00000  Uiso   1.00
C248   C     0.16670   0.42009   0.24984   0.00000  Uiso   1.00
C249   C     0.12262   0.44071   0.04311   0.00000  Uiso   1.00
C250   C     0.22902   0.48313   0.44858   0.00000  Uiso   1.00
C251   C     0.08613   0.44621   0.02455   0.00000  Uiso   1.00
C252   C     0.26295   0.47602   0.46881   0.00000  Uiso   1.00
C253   C     0.21025   0.64520   0.23194   0.00000  Uiso   1.00
C254   C     0.12326   0.35476   0.26705   0.00000  Uiso   1.00
C255   C     0.21025   0.35470   0.23192   0.00000  Uiso   1.00
C256   C     0.12327   0.64529   0.26712   0.00000  Uiso   1.00
C257   C     0.16675   0.37590   0.24958   0.00000  Uiso   1.00
C258   C     0.16676   0.62408   0.24965   0.00000  Uiso   1.00
C259   C     0.31756   0.46954   0.22733   0.00000  Uiso   1.00
C260   C     0.01586   0.53060   0.27240   0.00000  Uiso   1.00
C261   C     0.03193   0.46954   0.22735   0.00000  Uiso   1.00
C262   C     0.30149   0.53059   0.27239   0.00000  Uiso   1.00
C263   C     0.13724   0.49855   0.33780   0.00000  Uiso   1.00
C264   C     0.19621   0.49982   0.16229   0.00000  Uiso   1.00
C265   C     0.12141   0.49041   0.38777   0.00000  Uiso   1.00
C266   C     0.21395   0.49584   0.11199   0.00000  Uiso   1.00
C267   C     0.06177   0.47475   0.46178   0.00000  Uiso   1.00
C268   C     0.27656   0.50080   0.03747   0.00000  Uiso   1.00
C269   C     0.07355   0.49252   0.41753   0.00000  Uiso   1.00
C270   C     0.26024   0.50876   0.08486   0.00000  Uiso   1.00
C271   C     0.15604   0.47705   0.40560   0.00000  Uiso   1.00
C272   C     0.18369   0.47854   0.09081   0.00000  Uiso   1.00
C273   C     0.14521   0.47122   0.45288   0.00000  Uiso   1.00
C274   C     0.20004   0.46988   0.04328   0.00000  Uiso   1.00
C275   C     0.09712   0.46450   0.48038   0.00000  Uiso   1.00
C276   C     0.24780   0.47997   0.01679   0.00000  Uiso   1.00
C277   C     0.18110   0.47029   0.47278   0.00000  Uiso   1.00
C278   C     0.16827   0.45843   0.02007   0.00000  Uiso   1.00
H279   H     0.14650   0.47448   0.11137   0.00000  Uiso   1.00
H280   H     0.19165   0.47003   0.38235   0.00000  Uiso   1.00
H281   H     0.02532   0.46917   0.48154   0.00000  Uiso   1.00
H282   H     0.31006   0.51447   0.01688   0.00000  Uiso   1.00
H283   H     0.24394   0.62869   0.21785   0.00000  Uiso   1.00
H284   H     0.08955   0.37124   0.28111   0.00000  Uiso   1.00
H285   H     0.24394   0.37114   0.21783   0.00000  Uiso   1.00
H286   H     0.08956   0.62886   0.28127   0.00000  Uiso   1.00
H287   H     0.30626   0.44508   0.20905   0.00000  Uiso   1.00
H288   H     0.02729   0.55529   0.29026   0.00000  Uiso   1.00
H289   H     0.05627   0.44509   0.20908   0.00000  Uiso   1.00
H290   H     0.27725   0.55519   0.29040   0.00000  Uiso   1.00
N291   N     0.04759   0.50001   0.25001   0.00000  Uiso   1.00
N292   N     0.28574   0.49999   0.24999   0.00000  Uiso   1.00
O293   O     0.12846   0.56108   0.25001   0.00000  Uiso   1.00
O294   O     0.20488   0.43892   0.25000   0.00000  Uiso   1.00
O295   O     0.20490   0.56107   0.25000   0.00000  Uiso   1.00
O296   O     0.12843   0.43893   0.25000   0.00000  Uiso   1.00
O297   O     0.10661   0.50001   0.31613   0.00000  Uiso   1.00
O298   O     0.22672   0.49999   0.18388   0.00000  Uiso   1.00
O299   O     0.18305   0.50000   0.31612   0.00000  Uiso   1.00
O300   O     0.15028   0.50000   0.18388   0.00000  Uiso   1.00
Zn301  Zn    0.11562   0.50001   0.25000   0.00000  Uiso   1.00
Zn302  Zn    0.21771   0.49999   0.25000   0.00000  Uiso   1.00
Br303  Br    0.02234   0.42697   0.05910   0.00000  Uiso   1.00
Br304  Br    0.30274   0.42910   0.44178   0.00000  Uiso   1.00
O305   O     0.29059   0.52826   0.10398   0.00000  Uiso   1.00
C306   C     0.27688   0.57054   0.11455   0.00000  Uiso   1.00
H307   H     0.28879   0.58012   0.14360   0.00000  Uiso   1.00
H308   H     0.23744   0.57550   0.12696   0.00000  Uiso   1.00
C309   C     0.30129   0.59868   0.07274   0.00000  Uiso   1.00
H310   H     0.00711   0.59287   0.05991   0.00000  Uiso   1.00
H311   H     0.28742   0.59123   0.04440   0.00000  Uiso   1.00
C312   C     0.29190   0.64479   0.08550   0.00000  Uiso   1.00
H313   H     0.25294   0.65138   0.09786   0.00000  Uiso   1.00
H314   H     0.30972   0.66434   0.05450   0.00000  Uiso   1.00
H315   H     0.30634   0.65339   0.11315   0.00000  Uiso   1.00
O316   O     0.03749   0.50697   0.40273   0.00000  Uiso   1.00
C317   C     0.04095   0.55095   0.39677   0.00000  Uiso   1.00
H318   H     0.02394   0.55927   0.37104   0.00000  Uiso   1.00
H319   H     0.07844   0.56254   0.38230   0.00000  Uiso   1.00
C320   C     0.01427   0.57367   0.44234   0.00000  Uiso   1.00
H321   H     0.30992   0.56289   0.45587   0.00000  Uiso   1.00
H322   H     0.03138   0.56645   0.46834   0.00000  Uiso   1.00
C323   C     0.01492   0.62090   0.43534   0.00000  Uiso   1.00
H324   H     0.05226   0.63263   0.42260   0.00000  Uiso   1.00
H325   H     0.32856   0.63650   0.46884   0.00000  Uiso   1.00
H326   H     0.33076   0.62908   0.40990   0.00000  Uiso   1.00
Br327  Br    0.11222   0.40252   0.09451   0.00000  Uiso   1.00
Br328  Br    0.24872   0.52403   0.39958   0.00000  Uiso   1.00
C329   C     0.50005   0.57990   0.24990   0.00000  Uiso   1.00
C330   C     0.50004   0.42009   0.24984   0.00000  Uiso   1.00
C331   C     0.45595   0.44071   0.04311   0.00000  Uiso   1.00
C332   C     0.56235   0.48313   0.44858   0.00000  Uiso   1.00
C333   C     0.41946   0.44621   0.02455   0.00000  Uiso   1.00
C334   C     0.59628   0.47602   0.46881   0.00000  Uiso   1.00
C335   C     0.54358   0.64520   0.23194   0.00000  Uiso   1.00
C336   C     0.45659   0.35476   0.26705   0.00000  Uiso   1.00
C337   C     0.54358   0.35470   0.23192   0.00000  Uiso   1.00
C338   C     0.45660   0.64529   0.26712   0.00000  Uiso   1.00
C339   C     0.50008   0.37590   0.24958   0.00000  Uiso   1.00
C340   C     0.50009   0.62408   0.24965   0.00000  Uiso   1.00
C341   C     0.65089   0.46954   0.22733   0.00000  Uiso   1.00
C342   C     0.34919   0.53060   0.27240   0.00000  Uiso   1.00
C343   C     0.36527   0.46954   0.22735   0.00000  Uiso   1.00
C344   C     0.63483   0.53059   0.27239   0.00000  Uiso   1.00
C345   C     0.47057   0.49855   0.33780   0.00000  Uiso   1.00
C346   C     0.52954   0.49982   0.16229   0.00000  Uiso   1.00
C347   C     0.45475   0.49041   0.38777   0.00000  Uiso   1.00
C348   C     0.54729   0.49584   0.11199   0.00000  Uiso   1.00
C349   C     0.39510   0.47475   0.46178   0.00000  Uiso   1.00
C350   C     0.60990   0.50080   0.03747   0.00000  Uiso   1.00
C351   C     0.40688   0.49252   0.41753   0.00000  Uiso   1.00
C352   C     0.59357   0.50876   0.08486   0.00000  Uiso   1.00
C353   C     0.48937   0.47705   0.40560   0.00000  Uiso   1.00
C354   C     0.51702   0.47854   0.09081   0.00000  Uiso   1.00
C355   C     0.47854   0.47122   0.45288   0.00000  Uiso   1.00
C356   C     0.53337   0.46988   0.04328   0.00000  Uiso   1.00
C357   C     0.43046   0.46450   0.48038   0.00000  Uiso   1.00
C358   C     0.58114   0.47997   0.01679   0.00000  Uiso   1.00
C359   C     0.51443   0.47029   0.47278   0.00000  Uiso   1.00
C360   C     0.50160   0.45843   0.02007   0.00000  Uiso   1.00
H361   H     0.47984   0.47448   0.11137   0.00000  Uiso   1.00
H362   H     0.52498   0.47003   0.38235   0.00000  Uiso   1.00
H363   H     0.35865   0.46917   0.48154   0.00000  Uiso   1.00
H364   H     0.64340   0.51447   0.01688   0.00000  Uiso   1.00
H365   H     0.57727   0.62869   0.21785   0.00000  Uiso   1.00
H366   H     0.42288   0.37124   0.28111   0.00000  Uiso   1.00
H367   H     0.57727   0.37114   0.21783   0.00000  Uiso   1.00
H368   H     0.42289   0.62886   0.28127   0.00000  Uiso   1.00
H369   H     0.63959   0.44508   0.20905   0.00000  Uiso   1.00
H370   H     0.36062   0.55529   0.29026   0.00000  Uiso   1.00
H371   H     0.38960   0.44509   0.20908   0.00000  Uiso   1.00
H372   H     0.61059   0.55519   0.29040   0.00000  Uiso   1.00
N373   N     0.38093   0.50001   0.25001   0.00000  Uiso   1.00
N374   N     0.61907   0.49999   0.24999   0.00000  Uiso   1.00
O375   O     0.46179   0.56108   0.25001   0.00000  Uiso   1.00
O376   O     0.53821   0.43892   0.25000   0.00000  Uiso   1.00
O377   O     0.53823   0.56107   0.25000   0.00000  Uiso   1.00
O378   O     0.46177   0.43893   0.25000   0.00000  Uiso   1.00
O379   O     0.43994   0.50001   0.31613   0.00000  Uiso   1.00
O380   O     0.56006   0.49999   0.18388   0.00000  Uiso   1.00
O381   O     0.51639   0.50000   0.31612   0.00000  Uiso   1.00
O382   O     0.48361   0.50000   0.18388   0.00000  Uiso   1.00
Zn383  Zn    0.44896   0.50001   0.25000   0.00000  Uiso   1.00
Zn384  Zn    0.55104   0.49999   0.25000   0.00000  Uiso   1.00
Br385  Br    0.35567   0.42697   0.05910   0.00000  Uiso   1.00
Br386  Br    0.63607   0.42910   0.44178   0.00000  Uiso   1.00
O387   O     0.62392   0.52826   0.10398   0.00000  Uiso   1.00
C388   C     0.61021   0.57054   0.11455   0.00000  Uiso   1.00
H389   H     0.62212   0.58012   0.14360   0.00000  Uiso   1.00
H390   H     0.57077   0.57550   0.12696   0.00000  Uiso   1.00
C391   C     0.63463   0.59868   0.07274   0.00000  Uiso   1.00
H392   H     0.34044   0.59287   0.05991   0.00000  Uiso   1.00
H393   H     0.62076   0.59123   0.04440   0.00000  Uiso   1.00
C394   C     0.62524   0.64479   0.08550   0.00000  Uiso   1.00
H395   H     0.58628   0.65138   0.09786   0.00000  Uiso   1.00
H396   H     0.64306   0.66434   0.05450   0.00000  Uiso   1.00
H397   H     0.63967   0.65339   0.11315   0.00000  Uiso   1.00
O398   O     0.37082   0.50697   0.40273   0.00000  Uiso   1.00
C399   C     0.37428   0.55095   0.39677   0.00000  Uiso   1.00
H400   H     0.35727   0.55927   0.37104   0.00000  Uiso   1.00
H401   H     0.41177   0.56254   0.38230   0.00000  Uiso   1.00
C402   C     0.34760   0.57367   0.44234   0.00000  Uiso   1.00
H403   H     0.64326   0.56289   0.45587   0.00000  Uiso   1.00
H404   H     0.36471   0.56645   0.46834   0.00000  Uiso   1.00
C405   C     0.34826   0.62090   0.43534   0.00000  Uiso   1.00
H406   H     0.38559   0.63263   0.42260   0.00000  Uiso   1.00
H407   H     0.66190   0.63650   0.46884   0.00000  Uiso   1.00
H408   H     0.66410   0.62908   0.40990   0.00000  Uiso   1.00
Br409  Br    0.44555   0.40252   0.09451   0.00000  Uiso   1.00
Br410  Br    0.58205   0.52403   0.39958   0.00000  Uiso   1.00
C411   C     0.83338   0.57990   0.24990   0.00000  Uiso   1.00
C412   C     0.83337   0.42009   0.24984   0.00000  Uiso   1.00
C413   C     0.78928   0.44071   0.04311   0.00000  Uiso   1.00
C414   C     0.89568   0.48313   0.44858   0.00000  Uiso   1.00
C415   C     0.75279   0.44621   0.02455   0.00000  Uiso   1.00
C416   C     0.92961   0.47602   0.46881   0.00000  Uiso   1.00
C417   C     0.87692   0.64520   0.23194   0.00000  Uiso   1.00
C418   C     0.78993   0.35476   0.26705   0.00000  Uiso   1.00
C419   C     0.87691   0.35470   0.23192   0.00000  Uiso   1.00
C420   C     0.78993   0.64529   0.26712   0.00000  Uiso   1.00
C421   C     0.83342   0.37590   0.24958   0.00000  Uiso   1.00
C422   C     0.83343   0.62408   0.24965   0.00000  Uiso   1.00
C423   C     0.98423   0.46954   0.22733   0.00000  Uiso   1.00
C424   C     0.68253   0.53060   0.27240   0.00000  Uiso   1.00
C425   C     0.69860   0.46954   0.22735   0.00000  Uiso   1.00
C426   C     0.96816   0.53059   0.27239   0.00000  Uiso   1.00
C427   C     0.80391   0.49855   0.33780   0.00000  Uiso   1.00
C428   C     0.86288   0.49982   0.16229   0.00000  Uiso   1.00
C429   C     0.78808   0.49041   0.38777   0.00000  Uiso   1.00
C430   C     0.88062   0.49584   0.11199   0.00000  Uiso   1.00
C431   C     0.72844   0.47475   0.46178   0.00000  Uiso   1.00
C432   C     0.94323   0.50080   0.03747   0.00000  Uiso   1.00
C433   C     0.74022   0.49252   0.41753   0.00000  Uiso   1.00
C434   C     0.92691   0.50876   0.08486   0.00000  Uiso   1.00
C435   C     0.82270   0.47705   0.40560   0.00000  Uiso   1.00
C436   C     0.85036   0.47854   0.09081   0.00000  Uiso   1.00
C437   C     0.81188   0.47122   0.45288   0.00000  Uiso   1.00
C438   C     0.86670   0.46988   0.04328   0.00000  Uiso   1.00
C439   C     0.76379   0.46450   0.48038   0.00000  Uiso   1.00
C440   C     0.91447   0.47997   0.01679   0.00000  Uiso   1.00
C441   C     0.84776   0.47029   0.47278   0.00000  Uiso   1.00
C442   C     0.83493   0.45843   0.02007   0.00000  Uiso   1.00
H443   H     0.81317   0.47448   0.11137   0.00000  Uiso   1.00
H444   H     0.85831   0.47003   0.38235   0.00000  Uiso   1.00
H445   H     0.69199   0.46917   0.48154   0.00000  Uiso   1.00
H446   H     0.97673   0.51447   0.01688   0.00000  Uiso   1.00
H447   H     0.91061   0.62869   0.21785   0.00000  Uiso   1.00
H448   H     0.75621   0.37124   0.28111   0.00000  Uiso   1.00
H449   H     0.91061   0.37114   0.21783   0.00000  Uiso   1.00
H450   H     0.75623   0.62886   0.28127   0.00000  Uiso   1.00
H451   H     0.97293   0.44508   0.20905   0.00000  Uiso   1.00
H452   H     0.69396   0.55529   0.29026   0.00000  Uiso   1.00
H453   H     0.72294   0.44509   0.20908   0.00000  Uiso   1.00
H454   H     0.94392   0.55519   0.29040   0.00000  Uiso   1.00
N455   N     0.71426   0.50001   0.25001   0.00000  Uiso   1.00
N456   N     0.95241   0.49999   0.24999   0.00000  Uiso   1.00
O457   O     0.79512   0.56108   0.25001   0.00000  Uiso   1.00
O458   O     0.87154   0.43892   0.25000   0.00000  Uiso   1.00
O459   O     0.87157   0.56107   0.25000   0.00000  Uiso   1.00
O460   O     0.79510   0.43893   0.25000   0.00000  Uiso   1.00
O461   O     0.77328   0.50001   0.31613   0.00000  Uiso   1.00
O462   O     0.89339   0.49999   0.18388   0.00000  Uiso   1.00
O463   O     0.84972   0.50000   0.31612   0.00000  Uiso   1.00
O464   O     0.81695   0.50000   0.18388   0.00000  Uiso   1.00
Zn465  Zn    0.78229   0.50001   0.25000   0.00000  Uiso   1.00
Zn466  Zn    0.88438   0.49999   0.25000   0.00000  Uiso   1.00
Br467  Br    0.68901   0.42697   0.05910   0.00000  Uiso   1.00
Br468  Br    0.96941   0.42910   0.44178   0.00000  Uiso   1.00
O469   O     0.95726   0.52826   0.10398   0.00000  Uiso   1.00
C470   C     0.94355   0.57054   0.11455   0.00000  Uiso   1.00
H471   H     0.95546   0.58012   0.14360   0.00000  Uiso   1.00
H472   H     0.90411   0.57550   0.12696   0.00000  Uiso   1.00
C473   C     0.96796   0.59868   0.07274   0.00000  Uiso   1.00
H474   H     0.67378   0.59287   0.05991   0.00000  Uiso   1.00
H475   H     0.95409   0.59123   0.04440   0.00000  Uiso   1.00
C476   C     0.95857   0.64479   0.08550   0.00000  Uiso   1.00
H477   H     0.91961   0.65138   0.09786   0.00000  Uiso   1.00
H478   H     0.97639   0.66434   0.05450   0.00000  Uiso   1.00
H479   H     0.97301   0.65339   0.11315   0.00000  Uiso   1.00
O480   O     0.70415   0.50697   0.40273   0.00000  Uiso   1.00
C481   C     0.70762   0.55095   0.39677   0.00000  Uiso   1.00
H482   H     0.69061   0.55927   0.37104   0.00000  Uiso   1.00
H483   H     0.74510   0.56254   0.38230   0.00000  Uiso   1.00
C484   C     0.68094   0.57367   0.44234   0.00000  Uiso   1.00
H485   H     0.97659   0.56289   0.45587   0.00000  Uiso   1.00
H486   H     0.69804   0.56645   0.46834   0.00000  Uiso   1.00
C487   C     0.68159   0.62090   0.43534   0.00000  Uiso   1.00
H488   H     0.71893   0.63263   0.42260   0.00000  Uiso   1.00
H489   H     0.99523   0.63650   0.46884   0.00000  Uiso   1.00
H490   H     0.99743   0.62908   0.40990   0.00000  Uiso   1.00
Br491  Br    0.77889   0.40252   0.09451   0.00000  Uiso   1.00
Br492  Br    0.91539   0.52403   0.39958   0.00000  Uiso   1.00
C493   C     0.16671   0.91323   0.24990   0.00000  Uiso   1.00
C494   C     0.16670   0.75343   0.24984   0.00000  Uiso   1.00
C495   C     0.12262   0.77404   0.04311   0.00000  Uiso   1.00
C496   C     0.22902   0.81646   0.44858   0.00000  Uiso   1.00
C497   C     0.08613   0.77955   0.02455   0.00000  Uiso   1.00
C498   C     0.26295   0.80935   0.46881   0.00000  Uiso   1.00
C499   C     0.21025   0.97853   0.23194   0.00000  Uiso   1.00
C500   C     0.12326   0.68809   0.26705   0.00000  Uiso   1.00
C501   C     0.21025   0.68803   0.23192   0.00000  Uiso   1.00
C502   C     0.12327   0.97862   0.26712   0.00000  Uiso   1.00
C503   C     0.16675   0.70923   0.24958   0.00000  Uiso   1.00
C504   C     0.16676   0.95742   0.24965   0.00000  Uiso   1.00
C505   C     0.31756   0.80287   0.22733   0.00000  Uiso   1.00
C506   C     0.01586   0.86394   0.27240   0.00000  Uiso   1.00
C507   C     0.03193   0.80288   0.22735   0.00000  Uiso   1.00
C508   C     0.30149   0.86393   0.27239   0.00000  Uiso   1.00
C509   C     0.13724   0.83188   0.33780   0.00000  Uiso   1.00
C510   C     0.19621   0.83315   0.16229   0.00000  Uiso   1.00
C511   C     0.12141   0.82374   0.38777   0.00000  Uiso   1.00
C512   C     0.21395   0.82917   0.11199   0.00000  Uiso   1.00
C513   C     0.06177   0.80809   0.46178   0.00000  Uiso   1.00
C514   C     0.27656   0.83413   0.03747   0.00000  Uiso   1.00
C515   C     0.07355   0.82585   0.41753   0.00000  Uiso   1.00
C516   C     0.26024   0.84210   0.08486   0.00000  Uiso   1.00
C517   C     0.15604   0.81038   0.40560   0.00000  Uiso   1.00
C518   C     0.18369   0.81188   0.09081   0.00000  Uiso   1.00
C519   C     0.14521   0.80456   0.45288   0.00000  Uiso   1.00
C520   C     0.20004   0.80322   0.04328   0.00000  Uiso   1.00
C521   C     0.09712   0.79783   0.48038   0.00000  Uiso   1.00
C522   C     0.24780   0.81330   0.01679   0.00000  Uiso   1.00
C523   C     0.18110   0.80362   0.47278   0.00000  Uiso   1.00
C524   C     0.16827   0.79177   0.02007   0.00000  Uiso   1.00
H525   H     0.14650   0.80781   0.11137   0.00000  Uiso   1.00
H526   H     0.19165   0.80336   0.38235   0.00000  Uiso   1.00
H527   H     0.02532   0.80250   0.48154   0.00000  Uiso   1.00
H528   H     0.31006   0.84780   0.01688   0.00000  Uiso   1.00
H529   H     0.24394   0.96203   0.21785   0.00000  Uiso   1.00
H530   H     0.08955   0.70457   0.28111   0.00000  Uiso   1.00
H531   H     0.24394   0.70447   0.21783   0.00000  Uiso   1.00
H532   H     0.08956   0.96220   0.28127   0.00000  Uiso   1.00
H533   H     0.30626   0.77842   0.20905   0.00000  Uiso   1.00
H534   H     0.02729   0.88862   0.29026   0.00000  Uiso   1.00
H535   H     0.05627   0.77842   0.20908   0.00000  Uiso   1.00
H536   H     0.27725   0.88853   0.29040   0.00000  Uiso   1.00
N537   N     0.04759   0.83334   0.25001   0.00000  Uiso   1.00
N538   N     0.28574   0.83332   0.24999   0.00000  Uiso   1.00
O539   O     0.12846   0.89442   0.25001   0.00000  Uiso   1.00
O540   O     0.20488   0.77225   0.25000   0.00000  Uiso   1.00
O541   O     0.20490   0.89441   0.25000   0.00000  Uiso   1.00
O542   O     0.12843   0.77226   0.25000   0.00000  Uiso   1.00
O543   O     0.10661   0.83334   0.31613   0.00000  Uiso   1.00
O544   O     0.22672   0.83333   0.18388   0.00000  Uiso   1.00
O545   O     0.18305   0.83333   0.31612   0.00000  Uiso   1.00
O546   O     0.15028   0.83334   0.18388   0.00000  Uiso   1.00
Zn547  Zn    0.11562   0.83334   0.25000   0.00000  Uiso   1.00
Zn548  Zn    0.21771   0.83333   0.25000   0.00000  Uiso   1.00
Br549  Br    0.02234   0.76031   0.05910   0.00000  Uiso   1.00
Br550  Br    0.30274   0.76244   0.44178   0.00000  Uiso   1.00
O551   O     0.29059   0.86159   0.10398   0.00000  Uiso   1.00
C552   C     0.27688   0.90387   0.11455   0.00000  Uiso   1.00
H553   H     0.28879   0.91346   0.14360   0.00000  Uiso   1.00
H554   H     0.23744   0.90883   0.12696   0.00000  Uiso   1.00
C555   C     0.30129   0.93201   0.07274   0.00000  Uiso   1.00
H556   H     0.00711   0.92621   0.05991   0.00000  Uiso   1.00
H557   H     0.28742   0.92456   0.04440   0.00000  Uiso   1.00
C558   C     0.29190   0.97812   0.08550   0.00000  Uiso   1.00
H559   H     0.25294   0.98471   0.09786   0.00000  Uiso   1.00
H560   H     0.30972   0.99768   0.05450   0.00000  Uiso   1.00
H561   H     0.30634   0.98672   0.11315   0.00000  Uiso   1.00
O562   O     0.03749   0.84030   0.40273   0.00000  Uiso   1.00
C563   C     0.04095   0.88428   0.39677   0.00000  Uiso   1.00
H564   H     0.02394   0.89261   0.37104   0.00000  Uiso   1.00
H565   H     0.07844   0.89587   0.38230   0.00000  Uiso   1.00
C566   C     0.01427   0.90700   0.44234   0.00000  Uiso   1.00
H567   H     0.30992   0.89623   0.45587   0.00000  Uiso   1.00
H568   H     0.03138   0.89978   0.46834   0.00000  Uiso   1.00
C569   C     0.01492   0.95423   0.43534   0.00000  Uiso   1.00
H570   H     0.05226   0.96596   0.42260   0.00000  Uiso   1.00
H571   H     0.32856   0.96984   0.46884   0.00000  Uiso   1.00
H572   H     0.33076   0.96241   0.40990   0.00000  Uiso   1.00
Br573  Br    0.11222   0.73586   0.09451   0.00000  Uiso   1.00
Br574  Br    0.24872   0.85736   0.39958   0.00000  Uiso   1.00
C575   C     0.50005   0.91323   0.24990   0.00000  Uiso   1.00
C576   C     0.50004   0.75343   0.24984   0.00000  Uiso   1.00
C577   C     0.45595   0.77404   0.04311   0.00000  Uiso   1.00
C578   C     0.56235   0.81646   0.44858   0.00000  Uiso   1.00
C579   C     0.41946   0.77955   0.02455   0.00000  Uiso   1.00
C580   C     0.59628   0.80935   0.46881   0.00000  Uiso   1.00
C581   C     0.54358   0.97853   0.23194   0.00000  Uiso   1.00
C582   C     0.45659   0.68809   0.26705   0.00000  Uiso   1.00
C583   C     0.54358   0.68803   0.23192   0.00000  Uiso   1.00
C584   C     0.45660   0.97862   0.26712   0.00000  Uiso   1.00
C585   C     0.50008   0.70923   0.24958   0.00000  Uiso   1.00
C586   C     0.50009   0.95742   0.24965   0.00000  Uiso   1.00
C587   C     0.65089   0.80287   0.22733   0.00000  Uiso   1.00
C588   C     0.34919   0.86394   0.27240   0.00000  Uiso   1.00
C589   C     0.36527   0.80288   0.22735   0.00000  Uiso   1.00
C590   C     0.63483   0.86393   0.27239   0.00000  Uiso   1.00
C591   C     0.47057   0.83188   0.33780   0.00000  Uiso   1.00
C592   C     0.52954   0.83315   0.16229   0.00000  Uiso   1.00
C593   C     0.45475   0.82374   0.38777   0.00000  Uiso   1.00
C594   C     0.54729   0.82917   0.11199   0.00000  Uiso   1.00
C595   C     0.39510   0.80809   0.46178   0.00000  Uiso   1.00
C596   C     0.60990   0.83413   0.03747   0.00000  Uiso   1.00
C597   C     0.40688   0.82585   0.41753   0.00000  Uiso   1.00
C598   C     0.59357   0.84210   0.08486   0.00000  Uiso   1.00
C599   C     0.48937   0.81038   0.40560   0.00000  Uiso   1.00
C600   C     0.51702   0.81188   0.09081   0.00000  Uiso   1.00
C601   C     0.47854   0.80456   0.45288   0.00000  Uiso   1.00
C602   C     0.53337   0.80322   0.04328   0.00000  Uiso   1.00
C603   C     0.43046   0.79783   0.48038   0.00000  Uiso   1.00
C604   C     0.58114   0.81330   0.01679   0.00000  Uiso   1.00
C605   C     0.51443   0.80362   0.47278   0.00000  Uiso   1.00
C606   C     0.50160   0.79177   0.02007   0.00000  Uiso   1.00
H607   H     0.47984   0.80781   0.11137   0.00000  Uiso   1.00
H608   H     0.52498   0.80336   0.38235   0.00000  Uiso   1.00
H609   H     0.35865   0.80250   0.48154   0.00000  Uiso   1.00
H610   H     0.64340   0.84780   0.01688   0.00000  Uiso   1.00
H611   H     0.57727   0.96203   0.21785   0.00000  Uiso   1.00
H612   H     0.42288   0.70457   0.28111   0.00000  Uiso   1.00
H613   H     0.57727   0.70447   0.21783   0.00000  Uiso   1.00
H614   H     0.42289   0.96220   0.28127   0.00000  Uiso   1.00
H615   H     0.63959   0.77842   0.20905   0.00000  Uiso   1.00
H616   H     0.36062   0.88862   0.29026   0.00000  Uiso   1.00
H617   H     0.38960   0.77842   0.20908   0.00000  Uiso   1.00
H618   H     0.61059   0.88853   0.29040   0.00000  Uiso   1.00
N619   N     0.38093   0.83334   0.25001   0.00000  Uiso   1.00
N620   N     0.61907   0.83332   0.24999   0.00000  Uiso   1.00
O621   O     0.46179   0.89442   0.25001   0.00000  Uiso   1.00
O622   O     0.53821   0.77225   0.25000   0.00000  Uiso   1.00
O623   O     0.53823   0.89441   0.25000   0.00000  Uiso   1.00
O624   O     0.46177   0.77226   0.25000   0.00000  Uiso   1.00
O625   O     0.43994   0.83334   0.31613   0.00000  Uiso   1.00
O626   O     0.56006   0.83333   0.18388   0.00000  Uiso   1.00
O627   O     0.51639   0.83333   0.31612   0.00000  Uiso   1.00
O628   O     0.48361   0.83334   0.18388   0.00000  Uiso   1.00
Zn629  Zn    0.44896   0.83334   0.25000   0.00000  Uiso   1.00
Zn630  Zn    0.55104   0.83333   0.25000   0.00000  Uiso   1.00
Br631  Br    0.35567   0.76031   0.05910   0.00000  Uiso   1.00
Br632  Br    0.63607   0.76244   0.44178   0.00000  Uiso   1.00
O633   O     0.62392   0.86159   0.10398   0.00000  Uiso   1.00
C634   C     0.61021   0.90387   0.11455   0.00000  Uiso   1.00
H635   H     0.62212   0.91346   0.14360   0.00000  Uiso   1.00
H636   H     0.57077   0.90883   0.12696   0.00000  Uiso   1.00
C637   C     0.63463   0.93201   0.07274   0.00000  Uiso   1.00
H638   H     0.34044   0.92621   0.05991   0.00000  Uiso   1.00
H639   H     0.62076   0.92456   0.04440   0.00000  Uiso   1.00
C640   C     0.62524   0.97812   0.08550   0.00000  Uiso   1.00
H641   H     0.58628   0.98471   0.09786   0.00000  Uiso   1.00
H642   H     0.64306   0.99768   0.05450   0.00000  Uiso   1.00
H643   H     0.63967   0.98672   0.11315   0.00000  Uiso   1.00
O644   O     0.37082   0.84030   0.40273   0.00000  Uiso   1.00
C645   C     0.37428   0.88428   0.39677   0.00000  Uiso   1.00
H646   H     0.35727   0.89261   0.37104   0.00000  Uiso   1.00
H647   H     0.41177   0.89587   0.38230   0.00000  Uiso   1.00
C648   C     0.34760   0.90700   0.44234   0.00000  Uiso   1.00
H649   H     0.64326   0.89623   0.45587   0.00000  Uiso   1.00
H650   H     0.36471   0.89978   0.46834   0.00000  Uiso   1.00
C651   C     0.34826   0.95423   0.43534   0.00000  Uiso   1.00
H652   H     0.38559   0.96596   0.42260   0.00000  Uiso   1.00
H653   H     0.66190   0.96984   0.46884   0.00000  Uiso   1.00
H654   H     0.66410   0.96241   0.40990   0.00000  Uiso   1.00
Br655  Br    0.44555   0.73586   0.09451   0.00000  Uiso   1.00
Br656  Br    0.58205   0.85736   0.39958   0.00000  Uiso   1.00
C657   C     0.83338   0.91323   0.24990   0.00000  Uiso   1.00
C658   C     0.83337   0.75343   0.24984   0.00000  Uiso   1.00
C659   C     0.78928   0.77404   0.04311   0.00000  Uiso   1.00
C660   C     0.89568   0.81646   0.44858   0.00000  Uiso   1.00
C661   C     0.75279   0.77955   0.02455   0.00000  Uiso   1.00
C662   C     0.92961   0.80935   0.46881   0.00000  Uiso   1.00
C663   C     0.87692   0.97853   0.23194   0.00000  Uiso   1.00
C664   C     0.78993   0.68809   0.26705   0.00000  Uiso   1.00
C665   C     0.87691   0.68803   0.23192   0.00000  Uiso   1.00
C666   C     0.78993   0.97862   0.26712   0.00000  Uiso   1.00
C667   C     0.83342   0.70923   0.24958   0.00000  Uiso   1.00
C668   C     0.83343   0.95742   0.24965   0.00000  Uiso   1.00
C669   C     0.98423   0.80287   0.22733   0.00000  Uiso   1.00
C670   C     0.68253   0.86394   0.27240   0.00000  Uiso   1.00
C671   C     0.69860   0.80288   0.22735   0.00000  Uiso   1.00
C672   C     0.96816   0.86393   0.27239   0.00000  Uiso   1.00
C673   C     0.80391   0.83188   0.33780   0.00000  Uiso   1.00
C674   C     0.86288   0.83315   0.16229   0.00000  Uiso   1.00
C675   C     0.78808   0.82374   0.38777   0.00000  Uiso   1.00
C676   C     0.88062   0.82917   0.11199   0.00000  Uiso   1.00
C677   C     0.72844   0.80809   0.46178   0.00000  Uiso   1.00
C678   C     0.94323   0.83413   0.03747   0.00000  Uiso   1.00
C679   C     0.74022   0.82585   0.41753   0.00000  Uiso   1.00
C680   C     0.92691   0.84210   0.08486   0.00000  Uiso   1.00
C681   C     0.82270   0.81038   0.40560   0.00000  Uiso   1.00
C682   C     0.85036   0.81188   0.09081   0.00000  Uiso   1.00
C683   C     0.81188   0.80456   0.45288   0.00000  Uiso   1.00
C684   C     0.86670   0.80322   0.04328   0.00000  Uiso   1.00
C685   C     0.76379   0.79783   0.48038   0.00000  Uiso   1.00
C686   C     0.91447   0.81330   0.01679   0.00000  Uiso   1.00
C687   C     0.84776   0.80362   0.47278   0.00000  Uiso   1.00
C688   C     0.83493   0.79177   0.02007   0.00000  Uiso   1.00
H689   H     0.81317   0.80781   0.11137   0.00000  Uiso   1.00
H690   H     0.85831   0.80336   0.38235   0.00000  Uiso   1.00
H691   H     0.69199   0.80250   0.48154   0.00000  Uiso   1.00
H692   H     0.97673   0.84780   0.01688   0.00000  Uiso   1.00
H693   H     0.91061   0.96203   0.21785   0.00000  Uiso   1.00
H694   H     0.75621   0.70457   0.28111   0.00000  Uiso   1.00
H695   H     0.91061   0.70447   0.21783   0.00000  Uiso   1.00
H696   H     0.75623   0.96220   0.28127   0.00000  Uiso   1.00
H697   H     0.97293   0.77842   0.20905   0.00000  Uiso   1.00
H698   H     0.69396   0.88862   0.29026   0.00000  Uiso   1.00
H699   H     0.72294   0.77842   0.20908   0.00000  Uiso   1.00
H700   H     0.94392   0.88853   0.29040   0.00000  Uiso   1.00
N701   N     0.71426   0.83334   0.25001   0.00000  Uiso   1.00
N702   N     0.95241   0.83332   0.24999   0.00000  Uiso   1.00
O703   O     0.79512   0.89442   0.25001   0.00000  Uiso   1.00
O704   O     0.87154   0.77225   0.25000   0.00000  Uiso   1.00
O705   O     0.87157   0.89441   0.25000   0.00000  Uiso   1.00
O706   O     0.79510   0.77226   0.25000   0.00000  Uiso   1.00
O707   O     0.77328   0.83334   0.31613   0.00000  Uiso   1.00
O708   O     0.89339   0.83333   0.18388   0.00000  Uiso   1.00
O709   O     0.84972   0.83333   0.31612   0.00000  Uiso   1.00
O710   O     0.81695   0.83334   0.18388   0.00000  Uiso   1.00
Zn711  Zn    0.78229   0.83334   0.25000   0.00000  Uiso   1.00
Zn712  Zn    0.88438   0.83333   0.25000   0.00000  Uiso   1.00
Br713  Br    0.68901   0.76031   0.05910   0.00000  Uiso   1.00
Br714  Br    0.96941   0.76244   0.44178   0.00000  Uiso   1.00
O715   O     0.95726   0.86159   0.10398   0.00000  Uiso   1.00
C716   C     0.94355   0.90387   0.11455   0.00000  Uiso   1.00
H717   H     0.95546   0.91346   0.14360   0.00000  Uiso   1.00
H718   H     0.90411   0.90883   0.12696   0.00000  Uiso   1.00
C719   C     0.96796   0.93201   0.07274   0.00000  Uiso   1.00
H720   H     0.67378   0.92621   0.05991   0.00000  Uiso   1.00
H721   H     0.95409   0.92456   0.04440   0.00000  Uiso   1.00
C722   C     0.95857   0.97812   0.08550   0.00000  Uiso   1.00
H723   H     0.91961   0.98471   0.09786   0.00000  Uiso   1.00
H724   H     0.97639   0.99768   0.05450   0.00000  Uiso   1.00
H725   H     0.97301   0.98672   0.11315   0.00000  Uiso   1.00
O726   O     0.70415   0.84030   0.40273   0.00000  Uiso   1.00
C727   C     0.70762   0.88428   0.39677   0.00000  Uiso   1.00
H728   H     0.69061   0.89261   0.37104   0.00000  Uiso   1.00
H729   H     0.74510   0.89587   0.38230   0.00000  Uiso   1.00
C730   C     0.68094   0.90700   0.44234   0.00000  Uiso   1.00
H731   H     0.97659   0.89623   0.45587   0.00000  Uiso   1.00
H732   H     0.69804   0.89978   0.46834   0.00000  Uiso   1.00
C733   C     0.68159   0.95423   0.43534   0.00000  Uiso   1.00
H734   H     0.71893   0.96596   0.42260   0.00000  Uiso   1.00
H735   H     0.99523   0.96984   0.46884   0.00000  Uiso   1.00
H736   H     0.99743   0.96241   0.40990   0.00000  Uiso   1.00
Br737  Br    0.77889   0.73586   0.09451   0.00000  Uiso   1.00
Br738  Br    0.91539   0.85736   0.39958   0.00000  Uiso   1.00
C739   C     0.16671   0.24656   0.74990   0.00000  Uiso   1.00
C740   C     0.16670   0.08676   0.74984   0.00000  Uiso   1.00
C741   C     0.12262   0.10737   0.54311   0.00000  Uiso   1.00
C742   C     0.22902   0.14980   0.94858   0.00000  Uiso   1.00
C743   C     0.08613   0.11288   0.52455   0.00000  Uiso   1.00
C744   C     0.26295   0.14269   0.96881   0.00000  Uiso   1.00
C745   C     0.21025   0.31187   0.73194   0.00000  Uiso   1.00
C746   C     0.12326   0.02143   0.76705   0.00000  Uiso   1.00
C747   C     0.21025   0.02136   0.73192   0.00000  Uiso   1.00
C748   C     0.12327   0.31195   0.76712   0.00000  Uiso   1.00
C749   C     0.16675   0.04256   0.74958   0.00000  Uiso   1.00
C750   C     0.16676   0.29075   0.74965   0.00000  Uiso   1.00
C751   C     0.31756   0.13621   0.72733   0.00000  Uiso   1.00
C752   C     0.01586   0.19727   0.77240   0.00000  Uiso   1.00
C753   C     0.03193   0.13621   0.72735   0.00000  Uiso   1.00
C754   C     0.30149   0.19726   0.77239   0.00000  Uiso   1.00
C755   C     0.13724   0.16522   0.83780   0.00000  Uiso   1.00
C756   C     0.19621   0.16649   0.66229   0.00000  Uiso   1.00
C757   C     0.12141   0.15707   0.88777   0.00000  Uiso   1.00
C758   C     0.21395   0.16251   0.61199   0.00000  Uiso   1.00
C759   C     0.06177   0.14142   0.96178   0.00000  Uiso   1.00
C760   C     0.27656   0.16746   0.53747   0.00000  Uiso   1.00
C761   C     0.07355   0.15919   0.91753   0.00000  Uiso   1.00
C762   C     0.26024   0.17543   0.58486   0.00000  Uiso   1.00
C763   C     0.15604   0.14371   0.90560   0.00000  Uiso   1.00
C764   C     0.18369   0.14521   0.59081   0.00000  Uiso   1.00
C765   C     0.14521   0.13789   0.95288   0.00000  Uiso   1.00
C766   C     0.20004   0.13655   0.54328   0.00000  Uiso   1.00
C767   C     0.09712   0.13117   0.98038   0.00000  Uiso   1.00
C768   C     0.24780   0.14664   0.51679   0.00000  Uiso   1.00
C769   C     0.18110   0.13695   0.97278   0.00000  Uiso   1.00
C770   C     0.16827   0.12510   0.52007   0.00000  Uiso   1.00
H771   H     0.14650   0.14115   0.61137   0.00000  Uiso   1.00
H772   H     0.19165   0.13669   0.88235   0.00000  Uiso   1.00
H773   H     0.02532   0.13583   0.98154   0.00000  Uiso   1.00
H774   H     0.31006   0.18113   0.51688   0.00000  Uiso   1.00
H775   H     0.24394   0.29536   0.71785   0.00000  Uiso   1.00
H776   H     0.08955   0.03791   0.78111   0.00000  Uiso   1.00
H777   H     0.24394   0.03781   0.71783   0.00000  Uiso   1.00
H778   H     0.08956   0.29553   0.78127   0.00000  Uiso   1.00
H779   H     0.30626   0.11175   0.70905   0.00000  Uiso   1.00
H780   H     0.02729   0.22196   0.79026   0.00000  Uiso   1.00
H781   H     0.05627   0.11175   0.70908   0.00000  Uiso   1.00
H782   H     0.27725   0.22186   0.79040   0.00000  Uiso   1.00
N783   N     0.04759   0.16668   0.75001   0.00000  Uiso   1.00
N784   N     0.28574   0.16666   0.74999   0.00000  Uiso   1.00
O785   O     0.12846   0.22775   0.75001   0.00000  Uiso   1.00
O786   O     0.20488   0.10558   0.75000   0.00000  Uiso   1.00
O787   O     0.20490   0.22774   0.75000   0.00000  Uiso   1.00
O788   O     0.12843   0.10559   0.75000   0.00000  Uiso   1.00
O789   O     0.10661   0.16667   0.81613   0.00000  Uiso   1.00
O790   O     0.22672   0.16666   0.68388   0.00000  Uiso   1.00
O791   O     0.18305   0.16666   0.81612   0.00000  Uiso   1.00
O792   O     0.15028   0.16667   0.68388   0.00000  Uiso   1.00
Zn793  Zn    0.11562   0.16667   0.75000   0.00000  Uiso   1.00
Zn794  Zn    0.21771   0.16666   0.75000   0.00000  Uiso   1.00
Br795  Br    0.02234   0.09364   0.55910   0.00000  Uiso   1.00
Br796  Br    0.30274   0.09577   0.94178   0.00000  Uiso   1.00
O797   O     0.29059   0.19493   0.60398   0.00000  Uiso   1.00
C798   C     0.27688   0.23721   0.61455   0.00000  Uiso   1.00
H799   H     0.28879   0.24679   0.64360   0.00000  Uiso   1.00
H800   H     0.23744   0.24217   0.62696   0.00000  Uiso   1.00
C801   C     0.30129   0.26534   0.57274   0.00000  Uiso   1.00
H802   H     0.00711   0.25954   0.55991   0.00000  Uiso   1.00
H803   H     0.28742   0.25790   0.54440   0.00000  Uiso   1.00
C804   C     0.29190   0.31146   0.58550   0.00000  Uiso   1.00
H805   H     0.25294   0.31805   0.59786   0.00000  Uiso   1.00
H806   H     0.30972   0.33101   0.55450   0.00000  Uiso   1.00
H807   H     0.30634   0.32005   0.61315   0.00000  Uiso   1.00
O808   O     0.03749   0.17364   0.90273   0.00000  Uiso   1.00
C809   C     0.04095   0.21762   0.89677   0.00000  Uiso   1.00
H810   H     0.02394   0.22594   0.87104   0.00000  Uiso   1.00
H811   H     0.07844   0.22920   0.88230   0.00000  Uiso   1.00
C812   C     0.01427   0.24034   0.94234   0.00000  Uiso   1.00
H813   H     0.30992   0.22956   0.95587   0.00000  Uiso   1.00
H814   H     0.03138   0.23312   0.96834   0.00000  Uiso   1.00
C815   C     0.01492   0.28757   0.93534   0.00000  Uiso   1.00
H816   H     0.05226   0.29929   0.92260   0.00000  Uiso   1.00
H817   H     0.32856   0.30317   0.96884   0.00000  Uiso   1.00
H818   H     0.33076   0.29574   0.90990   0.00000  Uiso   1.00
Br819  Br    0.11222   0.06919   0.59451   0.00000  Uiso   1.00
Br820  Br    0.24872   0.19070   0.89958   0.00000  Uiso   1.00
C821   C     0.50005   0.24656   0.74990   0.00000  Uiso   1.00
C822   C     0.50004   0.08676   0.74984   0.00000  Uiso   1.00
C823   C     0.45595   0.10737   0.54311   0.00000  Uiso   1.00
C824   C     0.56235   0.14980   0.94858   0.00000  Uiso   1.00
C825   C     0.41946   0.11288   0.52455   0.00000  Uiso   1.00
C826   C     0.59628   0.14269   0.96881   0.00000  Uiso   1.00
C827   C     0.54358   0.31187   0.73194   0.00000  Uiso   1.00
C828   C     0.45659   0.02143   0.76705   0.00000  Uiso   1.00
C829   C     0.54358   0.02136   0.73192   0.00000  Uiso   1.00
C830   C     0.45660   0.31195   0.76712   0.00000  Uiso   1.00
C831   C     0.50008   0.04256   0.74958   0.00000  Uiso   1.00
C832   C     0.50009   0.29075   0.74965   0.00000  Uiso   1.00
C833   C     0.65089   0.13621   0.72733   0.00000  Uiso   1.00
C834   C     0.34919   0.19727   0.77240   0.00000  Uiso   1.00
C835   C     0.36527   0.13621   0.72735   0.00000  Uiso   1.00
C836   C     0.63483   0.19726   0.77239   0.00000  Uiso   1.00
C837   C     0.47057   0.16522   0.83780   0.00000  Uiso   1.00
C838   C     0.52954   0.16649   0.66229   0.00000  Uiso   1.00
C839   C     0.45475   0.15707   0.88777   0.00000  Uiso   1.00
C840   C     0.54729   0.16251   0.61199   0.00000  Uiso   1.00
C841   C     0.39510   0.14142   0.96178   0.00000  Uiso   1.00
C842   C     0.60990   0.16746   0.53747   0.00000  Uiso   1.00
C843   C     0.40688   0.15919   0.91753   0.00000  Uiso   1.00
C844   C     0.59357   0.17543   0.58486   0.00000  Uiso   1.00
C845   C     0.48937   0.14371   0.90560   0.00000  Uiso   1.00
C846   C     0.51702   0.14521   0.59081   0.00000  Uiso   1.00
C847   C     0.47854   0.13789   0.95288   0.00000  Uiso   1.00
C848   C     0.53337   0.13655   0.54328   0.00000  Uiso   1.00
C849   C     0.43046   0.13117   0.98038   0.00000  Uiso   1.00
C850   C     0.58114   0.14664   0.51679   0.00000  Uiso   1.00
C851   C     0.51443   0.13695   0.97278   0.00000  Uiso   1.00
C852   C     0.50160   0.12510   0.52007   0.00000  Uiso   1.00
H853   H     0.47984   0.14115   0.61137   0.00000  Uiso   1.00
H854   H     0.52498   0.13669   0.88235   0.00000  Uiso   1.00
H855   H     0.35865   0.13583   0.98154   0.00000  Uiso   1.00
H856   H     0.64340   0.18113   0.51688   0.00000  Uiso   1.00
H857   H     0.57727   0.29536   0.71785   0.00000  Uiso   1.00
H858   H     0.42288   0.03791   0.78111   0.00000  Uiso   1.00
H859   H     0.57727   0.03781   0.71783   0.00000  Uiso   1.00
H860   H     0.42289   0.29553   0.78127   0.00000  Uiso   1.00
H861   H     0.63959   0.11175   0.70905   0.00000  Uiso   1.00
H862   H     0.36062   0.22196   0.79026   0.00000  Uiso   1.00
H863   H     0.38960   0.11175   0.70908   0.00000  Uiso   1.00
H864   H     0.61059   0.22186   0.79040   0.00000  Uiso   1.00
N865   N     0.38093   0.16668   0.75001   0.00000  Uiso   1.00
N866   N     0.61907   0.16666   0.74999   0.00000  Uiso   1.00
O867   O     0.46179   0.22775   0.75001   0.00000  Uiso   1.00
O868   O     0.53821   0.10558   0.75000   0.00000  Uiso   1.00
O869   O     0.53823   0.22774   0.75000   0.00000  Uiso   1.00
O870   O     0.46177   0.10559   0.75000   0.00000  Uiso   1.00
O871   O     0.43994   0.16667   0.81613   0.00000  Uiso   1.00
O872   O     0.56006   0.16666   0.68388   0.00000  Uiso   1.00
O873   O     0.51639   0.16666   0.81612   0.00000  Uiso   1.00
O874   O     0.48361   0.16667   0.68388   0.00000  Uiso   1.00
Zn875  Zn    0.44896   0.16667   0.75000   0.00000  Uiso   1.00
Zn876  Zn    0.55104   0.16666   0.75000   0.00000  Uiso   1.00
Br877  Br    0.35567   0.09364   0.55910   0.00000  Uiso   1.00
Br878  Br    0.63607   0.09577   0.94178   0.00000  Uiso   1.00
O879   O     0.62392   0.19493   0.60398   0.00000  Uiso   1.00
C880   C     0.61021   0.23721   0.61455   0.00000  Uiso   1.00
H881   H     0.62212   0.24679   0.64360   0.00000  Uiso   1.00
H882   H     0.57077   0.24217   0.62696   0.00000  Uiso   1.00
C883   C     0.63463   0.26534   0.57274   0.00000  Uiso   1.00
H884   H     0.34044   0.25954   0.55991   0.00000  Uiso   1.00
H885   H     0.62076   0.25790   0.54440   0.00000  Uiso   1.00
C886   C     0.62524   0.31146   0.58550   0.00000  Uiso   1.00
H887   H     0.58628   0.31805   0.59786   0.00000  Uiso   1.00
H888   H     0.64306   0.33101   0.55450   0.00000  Uiso   1.00
H889   H     0.63967   0.32005   0.61315   0.00000  Uiso   1.00
O890   O     0.37082   0.17364   0.90273   0.00000  Uiso   1.00
C891   C     0.37428   0.21762   0.89677   0.00000  Uiso   1.00
H892   H     0.35727   0.22594   0.87104   0.00000  Uiso   1.00
H893   H     0.41177   0.22920   0.88230   0.00000  Uiso   1.00
C894   C     0.34760   0.24034   0.94234   0.00000  Uiso   1.00
H895   H     0.64326   0.22956   0.95587   0.00000  Uiso   1.00
H896   H     0.36471   0.23312   0.96834   0.00000  Uiso   1.00
C897   C     0.34826   0.28757   0.93534   0.00000  Uiso   1.00
H898   H     0.38559   0.29929   0.92260   0.00000  Uiso   1.00
H899   H     0.66190   0.30317   0.96884   0.00000  Uiso   1.00
H900   H     0.66410   0.29574   0.90990   0.00000  Uiso   1.00
Br901  Br    0.44555   0.06919   0.59451   0.00000  Uiso   1.00
Br902  Br    0.58205   0.19070   0.89958   0.00000  Uiso   1.00
C903   C     0.83338   0.24656   0.74990   0.00000  Uiso   1.00
C904   C     0.83337   0.08676   0.74984   0.00000  Uiso   1.00
C905   C     0.78928   0.10737   0.54311   0.00000  Uiso   1.00
C906   C     0.89568   0.14980   0.94858   0.00000  Uiso   1.00
C907   C     0.75279   0.11288   0.52455   0.00000  Uiso   1.00
C908   C     0.92961   0.14269   0.96881   0.00000  Uiso   1.00
C909   C     0.87692   0.31187   0.73194   0.00000  Uiso   1.00
C910   C     0.78993   0.02143   0.76705   0.00000  Uiso   1.00
C911   C     0.87691   0.02136   0.73192   0.00000  Uiso   1.00
C912   C     0.78993   0.31195   0.76712   0.00000  Uiso   1.00
C913   C     0.83342   0.04256   0.74958   0.00000  Uiso   1.00
C914   C     0.83343   0.29075   0.74965   0.00000  Uiso   1.00
C915   C     0.98423   0.13621   0.72733   0.00000  Uiso   1.00
C916   C     0.68253   0.19727   0.77240   0.00000  Uiso   1.00
C917   C     0.69860   0.13621   0.72735   0.00000  Uiso   1.00
C918   C     0.96816   0.19726   0.77239   0.00000  Uiso   1.00
C919   C     0.80391   0.16522   0.83780   0.00000  Uiso   1.00
C920   C     0.86288   0.16649   0.66229   0.00000  Uiso   1.00
C921   C     0.78808   0.15707   0.88777   0.00000  Uiso   1.00
C922   C     0.88062   0.16251   0.61199   0.00000  Uiso   1.00
C923   C     0.72844   0.14142   0.96178   0.00000  Uiso   1.00
C924   C     0.94323   0.16746   0.53747   0.00000  Uiso   1.00
C925   C     0.74022   0.15919   0.91753   0.00000  Uiso   1.00
C926   C     0.92691   0.17543   0.58486   0.00000  Uiso   1.00
C927   C     0.82270   0.14371   0.90560   0.00000  Uiso   1.00
C928   C     0.85036   0.14521   0.59081   0.00000  Uiso   1.00
C929   C     0.81188   0.13789   0.95288   0.00000  Uiso   1.00
C930   C     0.86670   0.13655   0.54328   0.00000  Uiso   1.00
C931   C     0.76379   0.13117   0.98038   0.00000  Uiso   1.00
C932   C     0.91447   0.14664   0.51679   0.00000  Uiso   1.00
C933   C     0.84776   0.13695   0.97278   0.00000  Uiso   1.00
C934   C     0.83493   0.12510   0.52007   0.00000  Uiso   1.00
H935   H     0.81317   0.14115   0.61137   0.00000  Uiso   1.00
H936   H     0.85831   0.13669   0.88235   0.00000  Uiso   1.00
H937   H     0.69199   0.13583   0.98154   0.00000  Uiso   1.00
H938   H     0.97673   0.18113   0.51688   0.00000  Uiso   1.00
H939   H     0.91061   0.29536   0.71785   0.00000  Uiso   1.00
H940   H     0.75621   0.03791   0.78111   0.00000  Uiso   1.00
H941   H     0.91061   0.03781   0.71783   0.00000  Uiso   1.00
H942   H     0.75623   0.29553   0.78127   0.00000  Uiso   1.00
H943   H     0.97293   0.11175   0.70905   0.00000  Uiso   1.00
H944   H     0.69396   0.22196   0.79026   0.00000  Uiso   1.00
H945   H     0.72294   0.11175   0.70908   0.00000  Uiso   1.00
H946   H     0.94392   0.22186   0.79040   0.00000  Uiso   1.00
N947   N     0.71426   0.16668   0.75001   0.00000  Uiso   1.00
N948   N     0.95241   0.16666   0.74999   0.00000  Uiso   1.00
O949   O     0.79512   0.22775   0.75001   0.00000  Uiso   1.00
O950   O     0.87154   0.10558   0.75000   0.00000  Uiso   1.00
O951   O     0.87157   0.22774   0.75000   0.00000  Uiso   1.00
O952   O     0.79510   0.10559   0.75000   0.00000  Uiso   1.00
O953   O     0.77328   0.16667   0.81613   0.00000  Uiso   1.00
O954   O     0.89339   0.16666   0.68388   0.00000  Uiso   1.00
O955   O     0.84972   0.16666   0.81612   0.00000  Uiso   1.00
O956   O     0.81695   0.16667   0.68388   0.00000  Uiso   1.00
Zn957  Zn    0.78229   0.16667   0.75000   0.00000  Uiso   1.00
Zn958  Zn    0.88438   0.16666   0.75000   0.00000  Uiso   1.00
Br959  Br    0.68901   0.09364   0.55910   0.00000  Uiso   1.00
Br960  Br    0.96941   0.09577   0.94178   0.00000  Uiso   1.00
O961   O     0.95726   0.19493   0.60398   0.00000  Uiso   1.00
C962   C     0.94355   0.23721   0.61455   0.00000  Uiso   1.00
H963   H     0.95546   0.24679   0.64360   0.00000  Uiso   1.00
H964   H     0.90411   0.24217   0.62696   0.00000  Uiso   1.00
C965   C     0.96796   0.26534   0.57274   0.00000  Uiso   1.00
H966   H     0.67378   0.25954   0.55991   0.00000  Uiso   1.00
H967   H     0.95409   0.25790   0.54440   0.00000  Uiso   1.00
C968   C     0.95857   0.31146   0.58550   0.00000  Uiso   1.00
H969   H     0.91961   0.31805   0.59786   0.00000  Uiso   1.00
H970   H     0.97639   0.33101   0.55450   0.00000  Uiso   1.00
H971   H     0.97301   0.32005   0.61315   0.00000  Uiso   1.00
O972   O     0.70415   0.17364   0.90273   0.00000  Uiso   1.00
C973   C     0.70762   0.21762   0.89677   0.00000  Uiso   1.00
H974   H     0.69061   0.22594   0.87104   0.00000  Uiso   1.00
H975   H     0.74510   0.22920   0.88230   0.00000  Uiso   1.00
C976   C     0.68094   0.24034   0.94234   0.00000  Uiso   1.00
H977   H     0.97659   0.22956   0.95587   0.00000  Uiso   1.00
H978   H     0.69804   0.23312   0.96834   0.00000  Uiso   1.00
C979   C     0.68159   0.28757   0.93534   0.00000  Uiso   1.00
H980   H     0.71893   0.29929   0.92260   0.00000  Uiso   1.00
H981   H     0.99523   0.30317   0.96884   0.00000  Uiso   1.00
H982   H     0.99743   0.29574   0.90990   0.00000  Uiso   1.00
Br983  Br    0.77889   0.06919   0.59451   0.00000  Uiso   1.00
Br984  Br    0.91539   0.19070   0.89958   0.00000  Uiso   1.00
C985   C     0.16671   0.57990   0.74990   0.00000  Uiso   1.00
C986   C     0.16670   0.42009   0.74984   0.00000  Uiso   1.00
C987   C     0.12262   0.44071   0.54311   0.00000  Uiso   1.00
C988   C     0.22902   0.48313   0.94858   0.00000  Uiso   1.00
C989   C     0.08613   0.44621   0.52455   0.00000  Uiso   1.00
C990   C     0.26295   0.47602   0.96881   0.00000  Uiso   1.00
C991   C     0.21025   0.64520   0.73194   0.00000  Uiso   1.00
C992   C     0.12326   0.35476   0.76705   0.00000  Uiso   1.00
C993   C     0.21025   0.35470   0.73192   0.00000  Uiso   1.00
C994   C     0.12327   0.64529   0.76712   0.00000  Uiso   1.00
C995   C     0.16675   0.37590   0.74958   0.00000  Uiso   1.00
C996   C     0.16676   0.62408   0.74965   0.00000  Uiso   1.00
C997   C     0.31756   0.46954   0.72733   0.00000  Uiso   1.00
C998   C     0.01586   0.53060   0.77240   0.00000  Uiso   1.00
C999   C     0.03193   0.46954   0.72735   0.00000  Uiso   1.00
C1000  C     0.30149   0.53059   0.77239   0.00000  Uiso   1.00
C1001  C     0.13724   0.49855   0.83780   0.00000  Uiso   1.00
C1002  C     0.19621   0.49982   0.66229   0.00000  Uiso   1.00
C1003  C     0.12141   0.49041   0.88777   0.00000  Uiso   1.00
C1004  C     0.21395   0.49584   0.61199   0.00000  Uiso   1.00
C1005  C     0.06177   0.47475   0.96178   0.00000  Uiso   1.00
C1006  C     0.27656   0.50080   0.53747   0.00000  Uiso   1.00
C1007  C     0.07355   0.49252   0.91753   0.00000  Uiso   1.00
C1008  C     0.26024   0.50876   0.58486   0.00000  Uiso   1.00
C1009  C     0.15604   0.47705   0.90560   0.00000  Uiso   1.00
C1010  C     0.18369   0.47854   0.59081   0.00000  Uiso   1.00
C1011  C     0.14521   0.47122   0.95288   0.00000  Uiso   1.00
C1012  C     0.20004   0.46988   0.54328   0.00000  Uiso   1.00
C1013  C     0.09712   0.46450   0.98038   0.00000  Uiso   1.00
C1014  C     0.24780   0.47997   0.51679   0.00000  Uiso   1.00
C1015  C     0.18110   0.47029   0.97278   0.00000  Uiso   1.00
C1016  C     0.16827   0.45843   0.52007   0.00000  Uiso   1.00
H1017  H     0.14650   0.47448   0.61137   0.00000  Uiso   1.00
H1018  H     0.19165   0.47003   0.88235   0.00000  Uiso   1.00
H1019  H     0.02532   0.46917   0.98154   0.00000  Uiso   1.00
H1020  H     0.31006   0.51447   0.51688   0.00000  Uiso   1.00
H1021  H     0.24394   0.62869   0.71785   0.00000  Uiso   1.00
H1022  H     0.08955   0.37124   0.78111   0.00000  Uiso   1.00
H1023  H     0.24394   0.37114   0.71783   0.00000  Uiso   1.00
H1024  H     0.08956   0.62886   0.78127   0.00000  Uiso   1.00
H1025  H     0.30626   0.44508   0.70905   0.00000  Uiso   1.00
H1026  H     0.02729   0.55529   0.79026   0.00000  Uiso   1.00
H1027  H     0.05627   0.44509   0.70908   0.00000  Uiso   1.00
H1028  H     0.27725   0.55519   0.79040   0.00000  Uiso   1.00
N1029  N     0.04759   0.50001   0.75001   0.00000  Uiso   1.00
N1030  N     0.28574   0.49999   0.74999   0.00000  Uiso   1.00
O1031  O     0.12846   0.56108   0.75001   0.00000  Uiso   1.00
O1032  O     0.20488   0.43892   0.75000   0.00000  Uiso   1.00
O1033  O     0.20490   0.56107   0.75000   0.00000  Uiso   1.00
O1034  O     0.12843   0.43893   0.75000   0.00000  Uiso   1.00
O1035  O     0.10661   0.50001   0.81613   0.00000  Uiso   1.00
O1036  O     0.22672   0.49999   0.68388   0.00000  Uiso   1.00
O1037  O     0.18305   0.50000   0.81612   0.00000  Uiso   1.00
O1038  O     0.15028   0.50000   0.68388   0.00000  Uiso   1.00
Zn1039 Zn    0.11562   0.50001   0.75000   0.00000  Uiso   1.00
Zn1040 Zn    0.21771   0.49999   0.75000   0.00000  Uiso   1.00
Br1041 Br    0.02234   0.42697   0.55910   0.00000  Uiso   1.00
Br1042 Br    0.30274   0.42910   0.94178   0.00000  Uiso   1.00
O1043  O     0.29059   0.52826   0.60398   0.00000  Uiso   1.00
C1044  C     0.27688   0.57054   0.61455   0.00000  Uiso   1.00
H1045  H     0.28879   0.58012   0.64360   0.00000  Uiso   1.00
H1046  H     0.23744   0.57550   0.62696   0.00000  Uiso   1.00
C1047  C     0.30129   0.59868   0.57274   0.00000  Uiso   1.00
H1048  H     0.00711   0.59287   0.55991   0.00000  Uiso   1.00
H1049  H     0.28742   0.59123   0.54440   0.00000  Uiso   1.00
C1050  C     0.29190   0.64479   0.58550   0.00000  Uiso   1.00
H1051  H     0.25294   0.65138   0.59786   0.00000  Uiso   1.00
H1052  H     0.30972   0.66434   0.55450   0.00000  Uiso   1.00
H1053  H     0.30634   0.65339   0.61315   0.00000  Uiso   1.00
O1054  O     0.03749   0.50697   0.90273   0.00000  Uiso   1.00
C1055  C     0.04095   0.55095   0.89677   0.00000  Uiso   1.00
H1056  H     0.02394   0.55927   0.87104   0.00000  Uiso   1.00
H1057  H     0.07844   0.56254   0.88230   0.00000  Uiso   1.00
C1058  C     0.01427   0.57367   0.94234   0.00000  Uiso   1.00
H1059  H     0.30992   0.56289   0.95587   0.00000  Uiso   1.00
H1060  H     0.03138   0.56645   0.96834   0.00000  Uiso   1.00
C1061  C     0.01492   0.62090   0.93534   0.00000  Uiso   1.00
H1062  H     0.05226   0.63263   0.92260   0.00000  Uiso   1.00
H1063  H     0.32856   0.63650   0.96884   0.00000  Uiso   1.00
H1064  H     0.33076   0.62908   0.90990   0.00000  Uiso   1.00
Br1065 Br    0.11222   0.40252   0.59451   0.00000  Uiso   1.00
Br1066 Br    0.24872   0.52403   0.89958   0.00000  Uiso   1.00
C1067  C     0.50005   0.57990   0.74990   0.00000  Uiso   1.00
C1068  C     0.50004   0.42009   0.74984   0.00000  Uiso   1.00
C1069  C     0.45595   0.44071   0.54311   0.00000  Uiso   1.00
C1070  C     0.56235   0.48313   0.94858   0.00000  Uiso   1.00
C1071  C     0.41946   0.44621   0.52455   0.00000  Uiso   1.00
C1072  C     0.59628   0.47602   0.96881   0.00000  Uiso   1.00
C1073  C     0.54358   0.64520   0.73194   0.00000  Uiso   1.00
C1074  C     0.45659   0.35476   0.76705   0.00000  Uiso   1.00
C1075  C     0.54358   0.35470   0.73192   0.00000  Uiso   1.00
C1076  C     0.45660   0.64529   0.76712   0.00000  Uiso   1.00
C1077  C     0.50008   0.37590   0.74958   0.00000  Uiso   1.00
C1078  C     0.50009   0.62408   0.74965   0.00000  Uiso   1.00
C1079  C     0.65089   0.46954   0.72733   0.00000  Uiso   1.00
C1080  C     0.34919   0.53060   0.77240   0.00000  Uiso   1.00
C1081  C     0.36527   0.46954   0.72735   0.00000  Uiso   1.00
C1082  C     0.63483   0.53059   0.77239   0.00000  Uiso   1.00
C1083  C     0.47057   0.49855   0.83780   0.00000  Uiso   1.00
C1084  C     0.52954   0.49982   0.66229   0.00000  Uiso   1.00
C1085  C     0.45475   0.49041   0.88777   0.00000  Uiso   1.00
C1086  C     0.54729   0.49584   0.61199   0.00000  Uiso   1.00
C1087  C     0.39510   0.47475   0.96178   0.00000  Uiso   1.00
C1088  C     0.60990   0.50080   0.53747   0.00000  Uiso   1.00
C1089  C     0.40688   0.49252   0.91753   0.00000  Uiso   1.00
C1090  C     0.59357   0.50876   0.58486   0.00000  Uiso   1.00
C1091  C     0.48937   0.47705   0.90560   0.00000  Uiso   1.00
C1092  C     0.51702   0.47854   0.59081   0.00000  Uiso   1.00
C1093  C     0.47854   0.47122   0.95288   0.00000  Uiso   1.00
C1094  C     0.53337   0.46988   0.54328   0.00000  Uiso   1.00
C1095  C     0.43046   0.46450   0.98038   0.00000  Uiso   1.00
C1096  C     0.58114   0.47997   0.51679   0.00000  Uiso   1.00
C1097  C     0.51443   0.47029   0.97278   0.00000  Uiso   1.00
C1098  C     0.50160   0.45843   0.52007   0.00000  Uiso   1.00
H1099  H     0.47984   0.47448   0.61137   0.00000  Uiso   1.00
H1100  H     0.52498   0.47003   0.88235   0.00000  Uiso   1.00
H1101  H     0.35865   0.46917   0.98154   0.00000  Uiso   1.00
H1102  H     0.64340   0.51447   0.51688   0.00000  Uiso   1.00
H1103  H     0.57727   0.62869   0.71785   0.00000  Uiso   1.00
H1104  H     0.42288   0.37124   0.78111   0.00000  Uiso   1.00
H1105  H     0.57727   0.37114   0.71783   0.00000  Uiso   1.00
H1106  H     0.42289   0.62886   0.78127   0.00000  Uiso   1.00
H1107  H     0.63959   0.44508   0.70905   0.00000  Uiso   1.00
H1108  H     0.36062   0.55529   0.79026   0.00000  Uiso   1.00
H1109  H     0.38960   0.44509   0.70908   0.00000  Uiso   1.00
H1110  H     0.61059   0.55519   0.79040   0.00000  Uiso   1.00
N1111  N     0.38093   0.50001   0.75001   0.00000  Uiso   1.00
N1112  N     0.61907   0.49999   0.74999   0.00000  Uiso   1.00
O1113  O     0.46179   0.56108   0.75001   0.00000  Uiso   1.00
O1114  O     0.53821   0.43892   0.75000   0.00000  Uiso   1.00
O1115  O     0.53823   0.56107   0.75000   0.00000  Uiso   1.00
O1116  O     0.46177   0.43893   0.75000   0.00000  Uiso   1.00
O1117  O     0.43994   0.50001   0.81613   0.00000  Uiso   1.00
O1118  O     0.56006   0.49999   0.68388   0.00000  Uiso   1.00
O1119  O     0.51639   0.50000   0.81612   0.00000  Uiso   1.00
O1120  O     0.48361   0.50000   0.68388   0.00000  Uiso   1.00
Zn1121 Zn    0.44896   0.50001   0.75000   0.00000  Uiso   1.00
Zn1122 Zn    0.55104   0.49999   0.75000   0.00000  Uiso   1.00
Br1123 Br    0.35567   0.42697   0.55910   0.00000  Uiso   1.00
Br1124 Br    0.63607   0.42910   0.94178   0.00000  Uiso   1.00
O1125  O     0.62392   0.52826   0.60398   0.00000  Uiso   1.00
C1126  C     0.61021   0.57054   0.61455   0.00000  Uiso   1.00
H1127  H     0.62212   0.58012   0.64360   0.00000  Uiso   1.00
H1128  H     0.57077   0.57550   0.62696   0.00000  Uiso   1.00
C1129  C     0.63463   0.59868   0.57274   0.00000  Uiso   1.00
H1130  H     0.34044   0.59287   0.55991   0.00000  Uiso   1.00
H1131  H     0.62076   0.59123   0.54440   0.00000  Uiso   1.00
C1132  C     0.62524   0.64479   0.58550   0.00000  Uiso   1.00
H1133  H     0.58628   0.65138   0.59786   0.00000  Uiso   1.00
H1134  H     0.64306   0.66434   0.55450   0.00000  Uiso   1.00
H1135  H     0.63967   0.65339   0.61315   0.00000  Uiso   1.00
O1136  O     0.37082   0.50697   0.90273   0.00000  Uiso   1.00
C1137  C     0.37428   0.55095   0.89677   0.00000  Uiso   1.00
H1138  H     0.35727   0.55927   0.87104   0.00000  Uiso   1.00
H1139  H     0.41177   0.56254   0.88230   0.00000  Uiso   1.00
C1140  C     0.34760   0.57367   0.94234   0.00000  Uiso   1.00
H1141  H     0.64326   0.56289   0.95587   0.00000  Uiso   1.00
H1142  H     0.36471   0.56645   0.96834   0.00000  Uiso   1.00
C1143  C     0.34826   0.62090   0.93534   0.00000  Uiso   1.00
H1144  H     0.38559   0.63263   0.92260   0.00000  Uiso   1.00
H1145  H     0.66190   0.63650   0.96884   0.00000  Uiso   1.00
H1146  H     0.66410   0.62908   0.90990   0.00000  Uiso   1.00
Br1147 Br    0.44555   0.40252   0.59451   0.00000  Uiso   1.00
Br1148 Br    0.58205   0.52403   0.89958   0.00000  Uiso   1.00
C1149  C     0.83338   0.57990   0.74990   0.00000  Uiso   1.00
C1150  C     0.83337   0.42009   0.74984   0.00000  Uiso   1.00
C1151  C     0.78928   0.44071   0.54311   0.00000  Uiso   1.00
C1152  C     0.89568   0.48313   0.94858   0.00000  Uiso   1.00
C1153  C     0.75279   0.44621   0.52455   0.00000  Uiso   1.00
C1154  C     0.92961   0.47602   0.96881   0.00000  Uiso   1.00
C1155  C     0.87692   0.64520   0.73194   0.00000  Uiso   1.00
C1156  C     0.78993   0.35476   0.76705   0.00000  Uiso   1.00
C1157  C     0.87691   0.35470   0.73192   0.00000  Uiso   1.00
C1158  C     0.78993   0.64529   0.76712   0.00000  Uiso   1.00
C1159  C     0.83342   0.37590   0.74958   0.00000  Uiso   1.00
C1160  C     0.83343   0.62408   0.74965   0.00000  Uiso   1.00
C1161  C     0.98423   0.46954   0.72733   0.00000  Uiso   1.00
C1162  C     0.68253   0.53060   0.77240   0.00000  Uiso   1.00
C1163  C     0.69860   0.46954   0.72735   0.00000  Uiso   1.00
C1164  C     0.96816   0.53059   0.77239   0.00000  Uiso   1.00
C1165  C     0.80391   0.49855   0.83780   0.00000  Uiso   1.00
C1166  C     0.86288   0.49982   0.66229   0.00000  Uiso   1.00
C1167  C     0.78808   0.49041   0.88777   0.00000  Uiso   1.00
C1168  C     0.88062   0.49584   0.61199   0.00000  Uiso   1.00
C1169  C     0.72844   0.47475   0.96178   0.00000  Uiso   1.00
C1170  C     0.94323   0.50080   0.53747   0.00000  Uiso   1.00
C1171  C     0.74022   0.49252   0.91753   0.00000  Uiso   1.00
C1172  C     0.92691   0.50876   0.58486   0.00000  Uiso   1.00
C1173  C     0.82270   0.47705   0.90560   0.00000  Uiso   1.00
C1174  C     0.85036   0.47854   0.59081   0.00000  Uiso   1.00
C1175  C     0.81188   0.47122   0.95288   0.00000  Uiso   1.00
C1176  C     0.86670   0.46988   0.54328   0.00000  Uiso   1.00
C1177  C     0.76379   0.46450   0.98038   0.00000  Uiso   1.00
C1178  C     0.91447   0.47997   0.51679   0.00000  Uiso   1.00
C1179  C     0.84776   0.47029   0.97278   0.00000  Uiso   1.00
C1180  C     0.83493   0.45843   0.52007   0.00000  Uiso   1.00
H1181  H     0.81317   0.47448   0.61137   0.00000  Uiso   1.00
H1182  H     0.85831   0.47003   0.88235   0.00000  Uiso   1.00
H1183  H     0.69199   0.46917   0.98154   0.00000  Uiso   1.00
H1184  H     0.97673   0.51447   0.51688   0.00000  Uiso   1.00
H1185  H     0.91061   0.62869   0.71785   0.00000  Uiso   1.00
H1186  H     0.75621   0.37124   0.78111   0.00000  Uiso   1.00
H1187  H     0.91061   0.37114   0.71783   0.00000  Uiso   1.00
H1188  H     0.75623   0.62886   0.78127   0.00000  Uiso   1.00
H1189  H     0.97293   0.44508   0.70905   0.00000  Uiso   1.00
H1190  H     0.69396   0.55529   0.79026   0.00000  Uiso   1.00
H1191  H     0.72294   0.44509   0.70908   0.00000  Uiso   1.00
H1192  H     0.94392   0.55519   0.79040   0.00000  Uiso   1.00
N1193  N     0.71426   0.50001   0.75001   0.00000  Uiso   1.00
N1194  N     0.95241   0.49999   0.74999   0.00000  Uiso   1.00
O1195  O     0.79512   0.56108   0.75001   0.00000  Uiso   1.00
O1196  O     0.87154   0.43892   0.75000   0.00000  Uiso   1.00
O1197  O     0.87157   0.56107   0.75000   0.00000  Uiso   1.00
O1198  O     0.79510   0.43893   0.75000   0.00000  Uiso   1.00
O1199  O     0.77328   0.50001   0.81613   0.00000  Uiso   1.00
O1200  O     0.89339   0.49999   0.68388   0.00000  Uiso   1.00
O1201  O     0.84972   0.50000   0.81612   0.00000  Uiso   1.00
O1202  O     0.81695   0.50000   0.68388   0.00000  Uiso   1.00
Zn1203 Zn    0.78229   0.50001   0.75000   0.00000  Uiso   1.00
Zn1204 Zn    0.88438   0.49999   0.75000   0.00000  Uiso   1.00
Br1205 Br    0.68901   0.42697   0.55910   0.00000  Uiso   1.00
Br1206 Br    0.96941   0.42910   0.94178   0.00000  Uiso   1.00
O1207  O     0.95726   0.52826   0.60398   0.00000  Uiso   1.00
C1208  C     0.94355   0.57054   0.61455   0.00000  Uiso   1.00
H1209  H     0.95546   0.58012   0.64360   0.00000  Uiso   1.00
H1210  H     0.90411   0.57550   0.62696   0.00000  Uiso   1.00
C1211  C     0.96796   0.59868   0.57274   0.00000  Uiso   1.00
H1212  H     0.67378   0.59287   0.55991   0.00000  Uiso   1.00
H1213  H     0.95409   0.59123   0.54440   0.00000  Uiso   1.00
C1214  C     0.95857   0.64479   0.58550   0.00000  Uiso   1.00
H1215  H     0.91961   0.65138   0.59786   0.00000  Uiso   1.00
H1216  H     0.97639   0.66434   0.55450   0.00000  Uiso   1.00
H1217  H     0.97301   0.65339   0.61315   0.00000  Uiso   1.00
O1218  O     0.70415   0.50697   0.90273   0.00000  Uiso   1.00
C1219  C     0.70762   0.55095   0.89677   0.00000  Uiso   1.00
H1220  H     0.69061   0.55927   0.87104   0.00000  Uiso   1.00
H1221  H     0.74510   0.56254   0.88230   0.00000  Uiso   1.00
C1222  C     0.68094   0.57367   0.94234   0.00000  Uiso   1.00
H1223  H     0.97659   0.56289   0.95587   0.00000  Uiso   1.00
H1224  H     0.69804   0.56645   0.96834   0.00000  Uiso   1.00
C1225  C     0.68159   0.62090   0.93534   0.00000  Uiso   1.00
H1226  H     0.71893   0.63263   0.92260   0.00000  Uiso   1.00
H1227  H     0.99523   0.63650   0.96884   0.00000  Uiso   1.00
H1228  H     0.99743   0.62908   0.90990   0.00000  Uiso   1.00
Br1229 Br    0.77889   0.40252   0.59451   0.00000  Uiso   1.00
Br1230 Br    0.91539   0.52403   0.89958   0.00000  Uiso   1.00
C1231  C     0.16671   0.91323   0.74990   0.00000  Uiso   1.00
C1232  C     0.16670   0.75343   0.74984   0.00000  Uiso   1.00
C1233  C     0.12262   0.77404   0.54311   0.00000  Uiso   1.00
C1234  C     0.22902   0.81646   0.94858   0.00000  Uiso   1.00
C1235  C     0.08613   0.77955   0.52455   0.00000  Uiso   1.00
C1236  C     0.26295   0.80935   0.96881   0.00000  Uiso   1.00
C1237  C     0.21025   0.97853   0.73194   0.00000  Uiso   1.00
C1238  C     0.12326   0.68809   0.76705   0.00000  Uiso   1.00
C1239  C     0.21025   0.68803   0.73192   0.00000  Uiso   1.00
C1240  C     0.12327   0.97862   0.76712   0.00000  Uiso   1.00
C1241  C     0.16675   0.70923   0.74958   0.00000  Uiso   1.00
C1242  C     0.16676   0.95742   0.74965   0.00000  Uiso   1.00
C1243  C     0.31756   0.80287   0.72733   0.00000  Uiso   1.00
C1244  C     0.01586   0.86394   0.77240   0.00000  Uiso   1.00
C1245  C     0.03193   0.80288   0.72735   0.00000  Uiso   1.00
C1246  C     0.30149   0.86393   0.77239   0.00000  Uiso   1.00
C1247  C     0.13724   0.83188   0.83780   0.00000  Uiso   1.00
C1248  C     0.19621   0.83315   0.66229   0.00000  Uiso   1.00
C1249  C     0.12141   0.82374   0.88777   0.00000  Uiso   1.00
C1250  C     0.21395   0.82917   0.61199   0.00000  Uiso   1.00
C1251  C     0.06177   0.80809   0.96178   0.00000  Uiso   1.00
C1252  C     0.27656   0.83413   0.53747   0.00000  Uiso   1.00
C1253  C     0.07355   0.82585   0.91753   0.00000  Uiso   1.00
C1254  C     0.26024   0.84210   0.58486   0.00000  Uiso   1.00
C1255  C     0.15604   0.81038   0.90560   0.00000  Uiso   1.00
C1256  C     0.18369   0.81188   0.59081   0.00000  Uiso   1.00
C1257  C     0.14521   0.80456   0.95288   0.00000  Uiso   1.00
C1258  C     0.20004   0.80322   0.54328   0.00000  Uiso   1.00
C1259  C     0.09712   0.79783   0.98038   0.00000  Uiso   1.00
C1260  C     0.24780   0.81330   0.51679   0.00000  Uiso   1.00
C1261  C     0.18110   0.80362   0.97278   0.00000  Uiso   1.00
C1262  C     0.16827   0.79177   0.52007   0.00000  Uiso   1.00
H1263  H     0.14650   0.80781   0.61137   0.00000  Uiso   1.00
H1264  H     0.19165   0.80336   0.88235   0.00000  Uiso   1.00
H1265  H     0.02532   0.80250   0.98154   0.00000  Uiso   1.00
H1266  H     0.31006   0.84780   0.51688   0.00000  Uiso   1.00
H1267  H     0.24394   0.96203   0.71785   0.00000  Uiso   1.00
H1268  H     0.08955   0.70457   0.78111   0.00000  Uiso   1.00
H1269  H     0.24394   0.70447   0.71783   0.00000  Uiso   1.00
H1270  H     0.08956   0.96220   0.78127   0.00000  Uiso   1.00
H1271  H     0.30626   0.77842   0.70905   0.00000  Uiso   1.00
H1272  H     0.02729   0.88862   0.79026   0.00000  Uiso   1.00
H1273  H     0.05627   0.77842   0.70908   0.00000  Uiso   1.00
H1274  H     0.27725   0.88853   0.79040   0.00000  Uiso   1.00
N1275  N     0.04759   0.83334   0.75001   0.00000  Uiso   1.00
N1276  N     0.28574   0.83332   0.74999   0.00000  Uiso   1.00
O1277  O     0.12846   0.89442   0.75001   0.00000  Uiso   1.00
O1278  O     0.20488   0.77225   0.75000   0.00000  Uiso   1.00
O1279  O     0.20490   0.89441   0.75000   0.00000  Uiso   1.00
O1280  O     0.12843   0.77226   0.75000   0.00000  Uiso   1.00
O1281  O     0.10661   0.83334   0.81613   0.00000  Uiso   1.00
O1282  O     0.22672   0.83333   0.68388   0.00000  Uiso   1.00
O1283  O     0.18305   0.83333   0.81612   0.00000  Uiso   1.00
O1284  O     0.15028   0.83334   0.68388   0.00000  Uiso   1.00
Zn1285 Zn    0.11562   0.83334   0.75000   0.00000  Uiso   1.00
Zn1286 Zn    0.21771   0.83333   0.75000   0.00000  Uiso   1.00
Br1287 Br    0.02234   0.76031   0.55910   0.00000  Uiso   1.00
Br1288 Br    0.30274   0.76244   0.94178   0.00000  Uiso   1.00
O1289  O     0.29059   0.86159   0.60398   0.00000  Uiso   1.00
C1290  C     0.27688   0.90387   0.61455   0.00000  Uiso   1.00
H1291  H     0.28879   0.91346   0.64360   0.00000  Uiso   1.00
H1292  H     0.23744   0.90883   0.62696   0.00000  Uiso   1.00
C1293  C     0.30129   0.93201   0.57274   0.00000  Uiso   1.00
H1294  H     0.00711   0.92621   0.55991   0.00000  Uiso   1.00
H1295  H     0.28742   0.92456   0.54440   0.00000  Uiso   1.00
C1296  C     0.29190   0.97812   0.58550   0.00000  Uiso   1.00
H1297  H     0.25294   0.98471   0.59786   0.00000  Uiso   1.00
H1298  H     0.30972   0.99768   0.55450   0.00000  Uiso   1.00
H1299  H     0.30634   0.98672   0.61315   0.00000  Uiso   1.00
O1300  O     0.03749   0.84030   0.90273   0.00000  Uiso   1.00
C1301  C     0.04095   0.88428   0.89677   0.00000  Uiso   1.00
H1302  H     0.02394   0.89261   0.87104   0.00000  Uiso   1.00
H1303  H     0.07844   0.89587   0.88230   0.00000  Uiso   1.00
C1304  C     0.01427   0.90700   0.94234   0.00000  Uiso   1.00
H1305  H     0.30992   0.89623   0.95587   0.00000  Uiso   1.00
H1306  H     0.03138   0.89978   0.96834   0.00000  Uiso   1.00
C1307  C     0.01492   0.95423   0.93534   0.00000  Uiso   1.00
H1308  H     0.05226   0.96596   0.92260   0.00000  Uiso   1.00
H1309  H     0.32856   0.96984   0.96884   0.00000  Uiso   1.00
H1310  H     0.33076   0.96241   0.90990   0.00000  Uiso   1.00
Br1311 Br    0.11222   0.73586   0.59451   0.00000  Uiso   1.00
Br1312 Br    0.24872   0.85736   0.89958   0.00000  Uiso   1.00
C1313  C     0.50005   0.91323   0.74990   0.00000  Uiso   1.00
C1314  C     0.50004   0.75343   0.74984   0.00000  Uiso   1.00
C1315  C     0.45595   0.77404   0.54311   0.00000  Uiso   1.00
C1316  C     0.56235   0.81646   0.94858   0.00000  Uiso   1.00
C1317  C     0.41946   0.77955   0.52455   0.00000  Uiso   1.00
C1318  C     0.59628   0.80935   0.96881   0.00000  Uiso   1.00
C1319  C     0.54358   0.97853   0.73194   0.00000  Uiso   1.00
C1320  C     0.45659   0.68809   0.76705   0.00000  Uiso   1.00
C1321  C     0.54358   0.68803   0.73192   0.00000  Uiso   1.00
C1322  C     0.45660   0.97862   0.76712   0.00000  Uiso   1.00
C1323  C     0.50008   0.70923   0.74958   0.00000  Uiso   1.00
C1324  C     0.50009   0.95742   0.74965   0.00000  Uiso   1.00
C1325  C     0.65089   0.80287   0.72733   0.00000  Uiso   1.00
C1326  C     0.34919   0.86394   0.77240   0.00000  Uiso   1.00
C1327  C     0.36527   0.80288   0.72735   0.00000  Uiso   1.00
C1328  C     0.63483   0.86393   0.77239   0.00000  Uiso   1.00
C1329  C     0.47057   0.83188   0.83780   0.00000  Uiso   1.00
C1330  C     0.52954   0.83315   0.66229   0.00000  Uiso   1.00
C1331  C     0.45475   0.82374   0.88777   0.00000  Uiso   1.00
C1332  C     0.54729   0.82917   0.61199   0.00000  Uiso   1.00
C1333  C     0.39510   0.80809   0.96178   0.00000  Uiso   1.00
C1334  C     0.60990   0.83413   0.53747   0.00000  Uiso   1.00
C1335  C     0.40688   0.82585   0.91753   0.00000  Uiso   1.00
C1336  C     0.59357   0.84210   0.58486   0.00000  Uiso   1.00
C1337  C     0.48937   0.81038   0.90560   0.00000  Uiso   1.00
C1338  C     0.51702   0.81188   0.59081   0.00000  Uiso   1.00
C1339  C     0.47854   0.80456   0.95288   0.00000  Uiso   1.00
C1340  C     0.53337   0.80322   0.54328   0.00000  Uiso   1.00
C1341  C     0.43046   0.79783   0.98038   0.00000  Uiso   1.00
C1342  C     0.58114   0.81330   0.51679   0.00000  Uiso   1.00
C1343  C     0.51443   0.80362   0.97278   0.00000  Uiso   1.00
C1344  C     0.50160   0.79177   0.52007   0.00000  Uiso   1.00
H1345  H     0.47984   0.80781   0.61137   0.00000  Uiso   1.00
H1346  H     0.52498   0.80336   0.88235   0.00000  Uiso   1.00
H1347  H     0.35865   0.80250   0.98154   0.00000  Uiso   1.00
H1348  H     0.64340   0.84780   0.51688   0.00000  Uiso   1.00
H1349  H     0.57727   0.96203   0.71785   0.00000  Uiso   1.00
H1350  H     0.42288   0.70457   0.78111   0.00000  Uiso   1.00
H1351  H     0.57727   0.70447   0.71783   0.00000  Uiso   1.00
H1352  H     0.42289   0.96220   0.78127   0.00000  Uiso   1.00
H1353  H     0.63959   0.77842   0.70905   0.00000  Uiso   1.00
H1354  H     0.36062   0.88862   0.79026   0.00000  Uiso   1.00
H1355  H     0.38960   0.77842   0.70908   0.00000  Uiso   1.00
H1356  H     0.61059   0.88853   0.79040   0.00000  Uiso   1.00
N1357  N     0.38093   0.83334   0.75001   0.00000  Uiso   1.00
N1358  N     0.61907   0.83332   0.74999   0.00000  Uiso   1.00
O1359  O     0.46179   0.89442   0.75001   0.00000  Uiso   1.00
O1360  O     0.53821   0.77225   0.75000   0.00000  Uiso   1.00
O1361  O     0.53823   0.89441   0.75000   0.00000  Uiso   1.00
O1362  O     0.46177   0.77226   0.75000   0.00000  Uiso   1.00
O1363  O     0.43994   0.83334   0.81613   0.00000  Uiso   1.00
O1364  O     0.56006   0.83333   0.68388   0.00000  Uiso   1.00
O1365  O     0.51639   0.83333   0.81612   0.00000  Uiso   1.00
O1366  O     0.48361   0.83334   0.68388   0.00000  Uiso   1.00
Zn1367 Zn    0.44896   0.83334   0.75000   0.00000  Uiso   1.00
Zn1368 Zn    0.55104   0.83333   0.75000   0.00000  Uiso   1.00
Br1369 Br    0.35567   0.76031   0.55910   0.00000  Uiso   1.00
Br1370 Br    0.63607   0.76244   0.94178   0.00000  Uiso   1.00
O1371  O     0.62392   0.86159   0.60398   0.00000  Uiso   1.00
C1372  C     0.61021   0.90387   0.61455   0.00000  Uiso   1.00
H1373  H     0.62212   0.91346   0.64360   0.00000  Uiso   1.00
H1374  H     0.57077   0.90883   0.62696   0.00000  Uiso   1.00
C1375  C     0.63463   0.93201   0.57274   0.00000  Uiso   1.00
H1376  H     0.34044   0.92621   0.55991   0.00000  Uiso   1.00
H1377  H     0.62076   0.92456   0.54440   0.00000  Uiso   1.00
C1378  C     0.62524   0.97812   0.58550   0.00000  Uiso   1.00
H1379  H     0.58628   0.98471   0.59786   0.00000  Uiso   1.00
H1380  H     0.64306   0.99768   0.55450   0.00000  Uiso   1.00
H1381  H     0.63967   0.98672   0.61315   0.00000  Uiso   1.00
O1382  O     0.37082   0.84030   0.90273   0.00000  Uiso   1.00
C1383  C     0.37428   0.88428   0.89677   0.00000  Uiso   1.00
H1384  H     0.35727   0.89261   0.87104   0.00000  Uiso   1.00
H1385  H     0.41177   0.89587   0.88230   0.00000  Uiso   1.00
C1386  C     0.34760   0.90700   0.94234   0.00000  Uiso   1.00
H1387  H     0.64326   0.89623   0.95587   0.00000  Uiso   1.00
H1388  H     0.36471   0.89978   0.96834   0.00000  Uiso   1.00
C1389  C     0.34826   0.95423   0.93534   0.00000  Uiso   1.00
H1390  H     0.38559   0.96596   0.92260   0.00000  Uiso   1.00
H1391  H     0.66190   0.96984   0.96884   0.00000  Uiso   1.00
H1392  H     0.66410   0.96241   0.90990   0.00000  Uiso   1.00
Br1393 Br    0.44555   0.73586   0.59451   0.00000  Uiso   1.00
Br1394 Br    0.58205   0.85736   0.89958   0.00000  Uiso   1.00
C1395  C     0.83338   0.91323   0.74990   0.00000  Uiso   1.00
C1396  C     0.83337   0.75343   0.74984   0.00000  Uiso   1.00
C1397  C     0.78928   0.77404   0.54311   0.00000  Uiso   1.00
C1398  C     0.89568   0.81646   0.94858   0.00000  Uiso   1.00
C1399  C     0.75279   0.77955   0.52455   0.00000  Uiso   1.00
C1400  C     0.92961   0.80935   0.96881   0.00000  Uiso   1.00
C1401  C     0.87692   0.97853   0.73194   0.00000  Uiso   1.00
C1402  C     0.78993   0.68809   0.76705   0.00000  Uiso   1.00
C1403  C     0.87691   0.68803   0.73192   0.00000  Uiso   1.00
C1404  C     0.78993   0.97862   0.76712   0.00000  Uiso   1.00
C1405  C     0.83342   0.70923   0.74958   0.00000  Uiso   1.00
C1406  C     0.83343   0.95742   0.74965   0.00000  Uiso   1.00
C1407  C     0.98423   0.80287   0.72733   0.00000  Uiso   1.00
C1408  C     0.68253   0.86394   0.77240   0.00000  Uiso   1.00
C1409  C     0.69860   0.80288   0.72735   0.00000  Uiso   1.00
C1410  C     0.96816   0.86393   0.77239   0.00000  Uiso   1.00
C1411  C     0.80391   0.83188   0.83780   0.00000  Uiso   1.00
C1412  C     0.86288   0.83315   0.66229   0.00000  Uiso   1.00
C1413  C     0.78808   0.82374   0.88777   0.00000  Uiso   1.00
C1414  C     0.88062   0.82917   0.61199   0.00000  Uiso   1.00
C1415  C     0.72844   0.80809   0.96178   0.00000  Uiso   1.00
C1416  C     0.94323   0.83413   0.53747   0.00000  Uiso   1.00
C1417  C     0.74022   0.82585   0.91753   0.00000  Uiso   1.00
C1418  C     0.92691   0.84210   0.58486   0.00000  Uiso   1.00
C1419  C     0.82270   0.81038   0.90560   0.00000  Uiso   1.00
C1420  C     0.85036   0.81188   0.59081   0.00000  Uiso   1.00
C1421  C     0.81188   0.80456   0.95288   0.00000  Uiso   1.00
C1422  C     0.86670   0.80322   0.54328   0.00000  Uiso   1.00
C1423  C     0.76379   0.79783   0.98038   0.00000  Uiso   1.00
C1424  C     0.91447   0.81330   0.51679   0.00000  Uiso   1.00
C1425  C     0.84776   0.80362   0.97278   0.00000  Uiso   1.00
C1426  C     0.83493   0.79177   0.52007   0.00000  Uiso   1.00
H1427  H     0.81317   0.80781   0.61137   0.00000  Uiso   1.00
H1428  H     0.85831   0.80336   0.88235   0.00000  Uiso   1.00
H1429  H     0.69199   0.80250   0.98154   0.00000  Uiso   1.00
H1430  H     0.97673   0.84780   0.51688   0.00000  Uiso   1.00
H1431  H     0.91061   0.96203   0.71785   0.00000  Uiso   1.00
H1432  H     0.75621   0.70457   0.78111   0.00000  Uiso   1.00
H1433  H     0.91061   0.70447   0.71783   0.00000  Uiso   1.00
H1434  H     0.75623   0.96220   0.78127   0.00000  Uiso   1.00
H1435  H     0.97293   0.77842   0.70905   0.00000  Uiso   1.00
H1436  H     0.69396   0.88862   0.79026   0.00000  Uiso   1.00
H1437  H     0.72294   0.77842   0.70908   0.00000  Uiso   1.00
H1438  H     0.94392   0.88853   0.79040   0.00000  Uiso   1.00
N1439  N     0.71426   0.83334   0.75001   0.00000  Uiso   1.00
N1440  N     0.95241   0.83332   0.74999   0.00000  Uiso   1.00
O1441  O     0.79512   0.89442   0.75001   0.00000  Uiso   1.00
O1442  O     0.87154   0.77225   0.75000   0.00000  Uiso   1.00
O1443  O     0.87157   0.89441   0.75000   0.00000  Uiso   1.00
O1444  O     0.79510   0.77226   0.75000   0.00000  Uiso   1.00
O1445  O     0.77328   0.83334   0.81613   0.00000  Uiso   1.00
O1446  O     0.89339   0.83333   0.68388   0.00000  Uiso   1.00
O1447  O     0.84972   0.83333   0.81612   0.00000  Uiso   1.00
O1448  O     0.81695   0.83334   0.68388   0.00000  Uiso   1.00
Zn1449 Zn    0.78229   0.83334   0.75000   0.00000  Uiso   1.00
Zn1450 Zn    0.88438   0.83333   0.75000   0.00000  Uiso   1.00
Br1451 Br    0.68901   0.76031   0.55910   0.00000  Uiso   1.00
Br1452 Br    0.96941   0.76244   0.94178   0.00000  Uiso   1.00
O1453  O     0.95726   0.86159   0.60398   0.00000  Uiso   1.00
C1454  C     0.94355   0.90387   0.61455   0.00000  Uiso   1.00
H1455  H     0.95546   0.91346   0.64360   0.00000  Uiso   1.00
H1456  H     0.90411   0.90883   0.62696   0.00000  Uiso   1.00
C1457  C     0.96796   0.93201   0.57274   0.00000  Uiso   1.00
H1458  H     0.67378   0.92621   0.55991   0.00000  Uiso   1.00
H1459  H     0.95409   0.92456   0.54440   0.00000  Uiso   1.00
C1460  C     0.95857   0.97812   0.58550   0.00000  Uiso   1.00
H1461  H     0.91961   0.98471   0.59786   0.00000  Uiso   1.00
H1462  H     0.97639   0.99768   0.55450   0.00000  Uiso   1.00
H1463  H     0.97301   0.98672   0.61315   0.00000  Uiso   1.00
O1464  O     0.70415   0.84030   0.90273   0.00000  Uiso   1.00
C1465  C     0.70762   0.88428   0.89677   0.00000  Uiso   1.00
H1466  H     0.69061   0.89261   0.87104   0.00000  Uiso   1.00
H1467  H     0.74510   0.89587   0.88230   0.00000  Uiso   1.00
C1468  C     0.68094   0.90700   0.94234   0.00000  Uiso   1.00
H1469  H     0.97659   0.89623   0.95587   0.00000  Uiso   1.00
H1470  H     0.69804   0.89978   0.96834   0.00000  Uiso   1.00
C1471  C     0.68159   0.95423   0.93534   0.00000  Uiso   1.00
H1472  H     0.71893   0.96596   0.92260   0.00000  Uiso   1.00
H1473  H     0.99523   0.96984   0.96884   0.00000  Uiso   1.00
H1474  H     0.99743   0.96241   0.90990   0.00000  Uiso   1.00
Br1475 Br    0.77889   0.73586   0.59451   0.00000  Uiso   1.00
Br1476 Br    0.91539   0.85736   0.89958   0.00000  Uiso   1.00
loop_
_geom_bond_atom_site_label_1
_geom_bond_atom_site_label_2
_geom_bond_distance
_geom_bond_site_symmetry_2
_ccdc_geom_bond_type
C1     C12     1.414   .     S
C1     O47     1.290   .     A
C1     O49     1.290   .     A
C2     O50     1.290   .     A
C2     C11     1.414   .     S
C2     O48     1.290   .     A
C3     Br81    1.937   .     S
C3     C5      1.404   .     A
C3     C32     1.419   .     A
C4     C6      1.378   .     A
C4     C31     1.425   .     A
C4     Br82    1.928   .     S
C5     Br57    1.932   .     S
C5     C767    1.409   1_554 S
C6     Br58    1.914   .     S
C6     C768    1.389   .     S
C7     C12     1.396   .     A
C7     H37     1.084   .     S
C7     C255    1.371   .     S
C8     H38     1.084   .     S
C8     C11     1.396   .     A
C8     C502    1.370   1_545 S
C9     H39     1.084   .     S
C9     C11     1.396   .     A
C9     C499    1.371   1_545 S
C10    H40     1.084   .     S
C10    C12     1.396   .     A
C10    C254    1.370   .     S
C13    H41     1.082   .     S
C13    N46     1.369   .     A
C13    C97     1.424   .     S
C14    H42     1.081   .     S
C14    N45     1.369   .     A
C14    C180    1.423   1_455 S
C15    N45     1.369   .     A
C15    H43     1.082   .     S
C15    C177    1.424   1_455 S
C16    H44     1.082   .     S
C16    N46     1.369   .     A
C16    C96     1.423   .     S
C17    O51     1.305   .     A
C17    O53     1.298   .     A
C17    C19     1.464   .     S
C18    O52     1.298   .     A
C18    C20     1.454   .     S
C18    O54     1.300   .     A
C19    C23     1.406   .     A
C19    C25     1.394   .     A
C20    C24     1.406   .     A
C20    C26     1.396   .     A
C21    C23     1.402   .     A
C21    C29     1.402   .     A
C21    H35     1.062   .     S
C22    C24     1.388   .     A
C22    C30     1.400   .     A
C22    H36     1.074   .     S
C23    O70     1.385   .     S
C24    O59     1.386   .     S
C25    H34     1.079   .     S
C25    C27     1.387   .     A
C26    H33     1.078   .     S
C26    C28     1.396   .     A
C27    C29     1.407   .     A
C27    C31     1.405   .     A
C28    C32     1.417   .     A
C28    C30     1.413   .     A
C29    C743    1.409   .     S
C30    C744    1.389   1_554 S
C31    C770    1.420   .     S
C32    C769    1.420   1_554 S
N45    Zn55    2.030   .     S
N46    Zn56    2.030   .     S
O47    Zn55    1.992   .     S
O48    Zn56    1.992   .     S
O49    Zn56    1.992   .     S
O50    Zn55    1.992   .     S
O51    Zn55    1.954   .     S
O52    Zn56    1.954   .     S
O53    Zn56    1.933   .     S
O54    Zn55    1.933   .     S
O59    C60     1.417   .     S
C60    C63     1.532   .     S
C60    H62     1.116   .     S
C60    H61     1.111   .     S
C63    H65     1.111   .     S
C63    C66     1.527   .     S
C63    H146    1.112   .     S
H64    C227    1.112   1_455 S
C66    H68     1.110   .     S
C66    H69     1.111   .     S
C66    H67     1.111   .     S
O70    C71     1.419   .     S
C71    H73     1.115   .     S
C71    C74     1.531   .     S
C71    H72     1.110   .     S
C74    H76     1.111   .     S
C74    C77     1.526   .     S
C74    H239    1.110   1_455 S
H75    C156    1.110   .     S
C77    H78     1.111   .     S
C77    H243    1.110   1_455 S
C77    H244    1.111   1_455 S
H79    C159    1.110   .     S
H80    C159    1.111   .     S
C83    C94     1.414   .     S
C83    O129    1.290   .     A
C83    O131    1.290   .     A
C84    O132    1.290   .     A
C84    C93     1.414   .     S
C84    O130    1.290   .     A
C85    Br163   1.937   .     S
C85    C87     1.404   .     A
C85    C114    1.419   .     A
C86    C88     1.378   .     A
C86    C113    1.425   .     A
C86    Br164   1.928   .     S
C87    Br139   1.932   .     S
C87    C849    1.409   1_554 S
C88    Br140   1.914   .     S
C88    C850    1.389   .     S
C89    C94     1.396   .     A
C89    H119    1.084   .     S
C89    C337    1.371   .     S
C90    H120    1.084   .     S
C90    C93     1.396   .     A
C90    C584    1.370   1_545 S
C91    H121    1.084   .     S
C91    C93     1.396   .     A
C91    C581    1.371   1_545 S
C92    H122    1.084   .     S
C92    C94     1.396   .     A
C92    C336    1.370   .     S
C95    H123    1.082   .     S
C95    N128    1.369   .     A
C95    C179    1.424   .     S
C96    H124    1.081   .     S
C96    N127    1.369   .     A
C97    N127    1.369   .     A
C97    H125    1.082   .     S
C98    H126    1.082   .     S
C98    N128    1.369   .     A
C98    C178    1.423   .     S
C99    O133    1.305   .     A
C99    O135    1.298   .     A
C99    C101    1.464   .     S
C100   O134    1.298   .     A
C100   C102    1.454   .     S
C100   O136    1.300   .     A
C101   C105    1.406   .     A
C101   C107    1.394   .     A
C102   C106    1.406   .     A
C102   C108    1.396   .     A
C103   C105    1.402   .     A
C103   C111    1.402   .     A
C103   H117    1.062   .     S
C104   C106    1.388   .     A
C104   C112    1.400   .     A
C104   H118    1.074   .     S
C105   O152    1.385   .     S
C106   O141    1.386   .     S
C107   H116    1.079   .     S
C107   C109    1.387   .     A
C108   H115    1.078   .     S
C108   C110    1.396   .     A
C109   C111    1.407   .     A
C109   C113    1.405   .     A
C110   C114    1.417   .     A
C110   C112    1.413   .     A
C111   C825    1.409   .     S
C112   C826    1.389   1_554 S
C113   C852    1.420   .     S
C114   C851    1.420   1_554 S
N127   Zn137   2.030   .     S
N128   Zn138   2.030   .     S
O129   Zn137   1.992   .     S
O130   Zn138   1.992   .     S
O131   Zn138   1.992   .     S
O132   Zn137   1.992   .     S
O133   Zn137   1.954   .     S
O134   Zn138   1.954   .     S
O135   Zn138   1.933   .     S
O136   Zn137   1.933   .     S
O141   C142    1.417   .     S
C142   C145    1.532   .     S
C142   H144    1.116   .     S
C142   H143    1.111   .     S
C145   H147    1.111   .     S
C145   C148    1.527   .     S
C145   H228    1.112   .     S
C148   H150    1.110   .     S
C148   H151    1.111   .     S
C148   H149    1.111   .     S
O152   C153    1.419   .     S
C153   H155    1.115   .     S
C153   C156    1.531   .     S
C153   H154    1.110   .     S
C156   H158    1.111   .     S
C156   C159    1.526   .     S
H157   C238    1.110   .     S
C159   H160    1.111   .     S
H161   C241    1.110   .     S
H162   C241    1.111   .     S
C165   C176    1.414   .     S
C165   O211    1.290   .     A
C165   O213    1.290   .     A
C166   O214    1.290   .     A
C166   C175    1.414   .     S
C166   O212    1.290   .     A
C167   Br245   1.937   .     S
C167   C169    1.404   .     A
C167   C196    1.419   .     A
C168   C170    1.378   .     A
C168   C195    1.425   .     A
C168   Br246   1.928   .     S
C169   Br221   1.932   .     S
C169   C931    1.409   1_554 S
C170   Br222   1.914   .     S
C170   C932    1.389   .     S
C171   C176    1.396   .     A
C171   H201    1.084   .     S
C171   C419    1.371   .     S
C172   H202    1.084   .     S
C172   C175    1.396   .     A
C172   C666    1.370   1_545 S
C173   H203    1.084   .     S
C173   C175    1.396   .     A
C173   C663    1.371   1_545 S
C174   H204    1.084   .     S
C174   C176    1.396   .     A
C174   C418    1.370   .     S
C177   H205    1.082   .     S
C177   N210    1.369   .     A
C177   C15     1.424   1_655 S
C178   H206    1.081   .     S
C178   N209    1.369   .     A
C179   N209    1.369   .     A
C179   H207    1.082   .     S
C180   H208    1.082   .     S
C180   N210    1.369   .     A
C180   C14     1.423   1_655 S
C181   O215    1.305   .     A
C181   O217    1.298   .     A
C181   C183    1.464   .     S
C182   O216    1.298   .     A
C182   C184    1.454   .     S
C182   O218    1.300   .     A
C183   C187    1.406   .     A
C183   C189    1.394   .     A
C184   C188    1.406   .     A
C184   C190    1.396   .     A
C185   C187    1.402   .     A
C185   C193    1.402   .     A
C185   H199    1.062   .     S
C186   C188    1.388   .     A
C186   C194    1.400   .     A
C186   H200    1.074   .     S
C187   O234    1.385   .     S
C188   O223    1.386   .     S
C189   H198    1.079   .     S
C189   C191    1.387   .     A
C190   H197    1.078   .     S
C190   C192    1.396   .     A
C191   C193    1.407   .     A
C191   C195    1.405   .     A
C192   C196    1.417   .     A
C192   C194    1.413   .     A
C193   C907    1.409   .     S
C194   C908    1.389   1_554 S
C195   C934    1.420   .     S
C196   C933    1.420   1_554 S
N209   Zn219   2.030   .     S
N210   Zn220   2.030   .     S
O211   Zn219   1.992   .     S
O212   Zn220   1.992   .     S
O213   Zn220   1.992   .     S
O214   Zn219   1.992   .     S
O215   Zn219   1.954   .     S
O216   Zn220   1.954   .     S
O217   Zn220   1.933   .     S
O218   Zn219   1.933   .     S
O223   C224    1.417   .     S
C224   C227    1.532   .     S
C224   H226    1.116   .     S
C224   H225    1.111   .     S
C227   H229    1.111   .     S
C227   C230    1.527   .     S
C227   H64     1.112   1_655 S
C230   H232    1.110   .     S
C230   H233    1.111   .     S
C230   H231    1.111   .     S
O234   C235    1.419   .     S
C235   H237    1.115   .     S
C235   C238    1.531   .     S
C235   H236    1.110   .     S
C238   H240    1.111   .     S
C238   C241    1.526   .     S
H239   C74     1.110   1_655 S
C241   H242    1.111   .     S
H243   C77     1.110   1_655 S
H244   C77     1.111   1_655 S
C247   C258    1.414   .     S
C247   O293    1.290   .     A
C247   O295    1.290   .     A
C248   O296    1.290   .     A
C248   C257    1.414   .     S
C248   O294    1.290   .     A
C249   Br327   1.937   .     S
C249   C251    1.404   .     A
C249   C278    1.419   .     A
C250   C252    1.378   .     A
C250   C277    1.425   .     A
C250   Br328   1.928   .     S
C251   Br303   1.932   .     S
C251   C1013   1.409   1_554 S
C252   Br304   1.914   .     S
C252   C1014   1.389   .     S
C253   C258    1.396   .     A
C253   H283    1.084   .     S
C253   C501    1.371   .     S
C254   H284    1.084   .     S
C254   C257    1.396   .     A
C255   H285    1.084   .     S
C255   C257    1.396   .     A
C256   H286    1.084   .     S
C256   C258    1.396   .     A
C256   C500    1.370   .     S
C259   H287    1.082   .     S
C259   N292    1.369   .     A
C259   C343    1.424   .     S
C260   H288    1.081   .     S
C260   N291    1.369   .     A
C260   C426    1.423   1_455 S
C261   N291    1.369   .     A
C261   H289    1.082   .     S
C261   C423    1.424   1_455 S
C262   H290    1.082   .     S
C262   N292    1.369   .     A
C262   C342    1.423   .     S
C263   O297    1.305   .     A
C263   O299    1.298   .     A
C263   C265    1.464   .     S
C264   O298    1.298   .     A
C264   C266    1.454   .     S
C264   O300    1.300   .     A
C265   C269    1.406   .     A
C265   C271    1.394   .     A
C266   C270    1.406   .     A
C266   C272    1.396   .     A
C267   C269    1.402   .     A
C267   C275    1.402   .     A
C267   H281    1.062   .     S
C268   C270    1.388   .     A
C268   C276    1.400   .     A
C268   H282    1.074   .     S
C269   O316    1.385   .     S
C270   O305    1.386   .     S
C271   H280    1.079   .     S
C271   C273    1.387   .     A
C272   H279    1.078   .     S
C272   C274    1.396   .     A
C273   C275    1.407   .     A
C273   C277    1.405   .     A
C274   C278    1.417   .     A
C274   C276    1.413   .     A
C275   C989    1.409   .     S
C276   C990    1.389   1_554 S
C277   C1016   1.420   .     S
C278   C1015   1.420   1_554 S
N291   Zn301   2.030   .     S
N292   Zn302   2.030   .     S
O293   Zn301   1.992   .     S
O294   Zn302   1.992   .     S
O295   Zn302   1.992   .     S
O296   Zn301   1.992   .     S
O297   Zn301   1.954   .     S
O298   Zn302   1.954   .     S
O299   Zn302   1.933   .     S
O300   Zn301   1.933   .     S
O305   C306    1.417   .     S
C306   C309    1.532   .     S
C306   H308    1.116   .     S
C306   H307    1.111   .     S
C309   H311    1.111   .     S
C309   C312    1.527   .     S
C309   H392    1.112   .     S
H310   C473    1.112   1_455 S
C312   H314    1.110   .     S
C312   H315    1.111   .     S
C312   H313    1.111   .     S
O316   C317    1.419   .     S
C317   H319    1.115   .     S
C317   C320    1.531   .     S
C317   H318    1.110   .     S
C320   H322    1.111   .     S
C320   C323    1.526   .     S
C320   H485    1.110   1_455 S
H321   C402    1.110   .     S
C323   H324    1.111   .     S
C323   H489    1.110   1_455 S
C323   H490    1.111   1_455 S
H325   C405    1.110   .     S
H326   C405    1.111   .     S
C329   C340    1.414   .     S
C329   O375    1.290   .     A
C329   O377    1.290   .     A
C330   O378    1.290   .     A
C330   C339    1.414   .     S
C330   O376    1.290   .     A
C331   Br409   1.937   .     S
C331   C333    1.404   .     A
C331   C360    1.419   .     A
C332   C334    1.378   .     A
C332   C359    1.425   .     A
C332   Br410   1.928   .     S
C333   Br385   1.932   .     S
C333   C1095   1.409   1_554 S
C334   Br386   1.914   .     S
C334   C1096   1.389   .     S
C335   C340    1.396   .     A
C335   H365    1.084   .     S
C335   C583    1.371   .     S
C336   H366    1.084   .     S
C336   C339    1.396   .     A
C337   H367    1.084   .     S
C337   C339    1.396   .     A
C338   H368    1.084   .     S
C338   C340    1.396   .     A
C338   C582    1.370   .     S
C341   H369    1.082   .     S
C341   N374    1.369   .     A
C341   C425    1.424   .     S
C342   H370    1.081   .     S
C342   N373    1.369   .     A
C343   N373    1.369   .     A
C343   H371    1.082   .     S
C344   H372    1.082   .     S
C344   N374    1.369   .     A
C344   C424    1.423   .     S
C345   O379    1.305   .     A
C345   O381    1.298   .     A
C345   C347    1.464   .     S
C346   O380    1.298   .     A
C346   C348    1.454   .     S
C346   O382    1.300   .     A
C347   C351    1.406   .     A
C347   C353    1.394   .     A
C348   C352    1.406   .     A
C348   C354    1.396   .     A
C349   C351    1.402   .     A
C349   C357    1.402   .     A
C349   H363    1.062   .     S
C350   C352    1.388   .     A
C350   C358    1.400   .     A
C350   H364    1.074   .     S
C351   O398    1.385   .     S
C352   O387    1.386   .     S
C353   H362    1.079   .     S
C353   C355    1.387   .     A
C354   H361    1.078   .     S
C354   C356    1.396   .     A
C355   C357    1.407   .     A
C355   C359    1.405   .     A
C356   C360    1.417   .     A
C356   C358    1.413   .     A
C357   C1071   1.409   .     S
C358   C1072   1.389   1_554 S
C359   C1098   1.420   .     S
C360   C1097   1.420   1_554 S
N373   Zn383   2.030   .     S
N374   Zn384   2.030   .     S
O375   Zn383   1.992   .     S
O376   Zn384   1.992   .     S
O377   Zn384   1.992   .     S
O378   Zn383   1.992   .     S
O379   Zn383   1.954   .     S
O380   Zn384   1.954   .     S
O381   Zn384   1.933   .     S
O382   Zn383   1.933   .     S
O387   C388    1.417   .     S
C388   C391    1.532   .     S
C388   H390    1.116   .     S
C388   H389    1.111   .     S
C391   H393    1.111   .     S
C391   C394    1.527   .     S
C391   H474    1.112   .     S
C394   H396    1.110   .     S
C394   H397    1.111   .     S
C394   H395    1.111   .     S
O398   C399    1.419   .     S
C399   H401    1.115   .     S
C399   C402    1.531   .     S
C399   H400    1.110   .     S
C402   H404    1.111   .     S
C402   C405    1.526   .     S
H403   C484    1.110   .     S
C405   H406    1.111   .     S
H407   C487    1.110   .     S
H408   C487    1.111   .     S
C411   C422    1.414   .     S
C411   O457    1.290   .     A
C411   O459    1.290   .     A
C412   O460    1.290   .     A
C412   C421    1.414   .     S
C412   O458    1.290   .     A
C413   Br491   1.937   .     S
C413   C415    1.404   .     A
C413   C442    1.419   .     A
C414   C416    1.378   .     A
C414   C441    1.425   .     A
C414   Br492   1.928   .     S
C415   Br467   1.932   .     S
C415   C1177   1.409   1_554 S
C416   Br468   1.914   .     S
C416   C1178   1.389   .     S
C417   C422    1.396   .     A
C417   H447    1.084   .     S
C417   C665    1.371   .     S
C418   H448    1.084   .     S
C418   C421    1.396   .     A
C419   H449    1.084   .     S
C419   C421    1.396   .     A
C420   H450    1.084   .     S
C420   C422    1.396   .     A
C420   C664    1.370   .     S
C423   H451    1.082   .     S
C423   N456    1.369   .     A
C423   C261    1.424   1_655 S
C424   H452    1.081   .     S
C424   N455    1.369   .     A
C425   N455    1.369   .     A
C425   H453    1.082   .     S
C426   H454    1.082   .     S
C426   N456    1.369   .     A
C426   C260    1.423   1_655 S
C427   O461    1.305   .     A
C427   O463    1.298   .     A
C427   C429    1.464   .     S
C428   O462    1.298   .     A
C428   C430    1.454   .     S
C428   O464    1.300   .     A
C429   C433    1.406   .     A
C429   C435    1.394   .     A
C430   C434    1.406   .     A
C430   C436    1.396   .     A
C431   C433    1.402   .     A
C431   C439    1.402   .     A
C431   H445    1.062   .     S
C432   C434    1.388   .     A
C432   C440    1.400   .     A
C432   H446    1.074   .     S
C433   O480    1.385   .     S
C434   O469    1.386   .     S
C435   H444    1.079   .     S
C435   C437    1.387   .     A
C436   H443    1.078   .     S
C436   C438    1.396   .     A
C437   C439    1.407   .     A
C437   C441    1.405   .     A
C438   C442    1.417   .     A
C438   C440    1.413   .     A
C439   C1153   1.409   .     S
C440   C1154   1.389   1_554 S
C441   C1180   1.420   .     S
C442   C1179   1.420   1_554 S
N455   Zn465   2.030   .     S
N456   Zn466   2.030   .     S
O457   Zn465   1.992   .     S
O458   Zn466   1.992   .     S
O459   Zn466   1.992   .     S
O460   Zn465   1.992   .     S
O461   Zn465   1.954   .     S
O462   Zn466   1.954   .     S
O463   Zn466   1.933   .     S
O464   Zn465   1.933   .     S
O469   C470    1.417   .     S
C470   C473    1.532   .     S
C470   H472    1.116   .     S
C470   H471    1.111   .     S
C473   H475    1.111   .     S
C473   C476    1.527   .     S
C473   H310    1.112   1_655 S
C476   H478    1.110   .     S
C476   H479    1.111   .     S
C476   H477    1.111   .     S
O480   C481    1.419   .     S
C481   H483    1.115   .     S
C481   C484    1.531   .     S
C481   H482    1.110   .     S
C484   H486    1.111   .     S
C484   C487    1.526   .     S
H485   C320    1.110   1_655 S
C487   H488    1.111   .     S
H489   C323    1.110   1_655 S
H490   C323    1.111   1_655 S
C493   C504    1.414   .     S
C493   O539    1.290   .     A
C493   O541    1.290   .     A
C494   O542    1.290   .     A
C494   C503    1.414   .     S
C494   O540    1.290   .     A
C495   Br573   1.937   .     S
C495   C497    1.404   .     A
C495   C524    1.419   .     A
C496   C498    1.378   .     A
C496   C523    1.425   .     A
C496   Br574   1.928   .     S
C497   Br549   1.932   .     S
C497   C1259   1.409   1_554 S
C498   Br550   1.914   .     S
C498   C1260   1.389   .     S
C499   C504    1.396   .     A
C499   H529    1.084   .     S
C499   C9      1.371   1_565 S
C500   H530    1.084   .     S
C500   C503    1.396   .     A
C501   H531    1.084   .     S
C501   C503    1.396   .     A
C502   H532    1.084   .     S
C502   C504    1.396   .     A
C502   C8      1.370   1_565 S
C505   H533    1.082   .     S
C505   N538    1.369   .     A
C505   C589    1.424   .     S
C506   H534    1.081   .     S
C506   N537    1.369   .     A
C506   C672    1.423   1_455 S
C507   N537    1.369   .     A
C507   H535    1.082   .     S
C507   C669    1.424   1_455 S
C508   H536    1.082   .     S
C508   N538    1.369   .     A
C508   C588    1.423   .     S
C509   O543    1.305   .     A
C509   O545    1.298   .     A
C509   C511    1.464   .     S
C510   O544    1.298   .     A
C510   C512    1.454   .     S
C510   O546    1.300   .     A
C511   C515    1.406   .     A
C511   C517    1.394   .     A
C512   C516    1.406   .     A
C512   C518    1.396   .     A
C513   C515    1.402   .     A
C513   C521    1.402   .     A
C513   H527    1.062   .     S
C514   C516    1.388   .     A
C514   C522    1.400   .     A
C514   H528    1.074   .     S
C515   O562    1.385   .     S
C516   O551    1.386   .     S
C517   H526    1.079   .     S
C517   C519    1.387   .     A
C518   H525    1.078   .     S
C518   C520    1.396   .     A
C519   C521    1.407   .     A
C519   C523    1.405   .     A
C520   C524    1.417   .     A
C520   C522    1.413   .     A
C521   C1235   1.409   .     S
C522   C1236   1.389   1_554 S
C523   C1262   1.420   .     S
C524   C1261   1.420   1_554 S
N537   Zn547   2.030   .     S
N538   Zn548   2.030   .     S
O539   Zn547   1.992   .     S
O540   Zn548   1.992   .     S
O541   Zn548   1.992   .     S
O542   Zn547   1.992   .     S
O543   Zn547   1.954   .     S
O544   Zn548   1.954   .     S
O545   Zn548   1.933   .     S
O546   Zn547   1.933   .     S
O551   C552    1.417   .     S
C552   C555    1.532   .     S
C552   H554    1.116   .     S
C552   H553    1.111   .     S
C555   H557    1.111   .     S
C555   C558    1.527   .     S
C555   H638    1.112   .     S
H556   C719    1.112   1_455 S
C558   H560    1.110   .     S
C558   H561    1.111   .     S
C558   H559    1.111   .     S
O562   C563    1.419   .     S
C563   H565    1.115   .     S
C563   C566    1.531   .     S
C563   H564    1.110   .     S
C566   H568    1.111   .     S
C566   C569    1.526   .     S
C566   H731    1.110   1_455 S
H567   C648    1.110   .     S
C569   H570    1.111   .     S
C569   H735    1.110   1_455 S
C569   H736    1.111   1_455 S
H571   C651    1.110   .     S
H572   C651    1.111   .     S
C575   C586    1.414   .     S
C575   O621    1.290   .     A
C575   O623    1.290   .     A
C576   O624    1.290   .     A
C576   C585    1.414   .     S
C576   O622    1.290   .     A
C577   Br655   1.937   .     S
C577   C579    1.404   .     A
C577   C606    1.419   .     A
C578   C580    1.378   .     A
C578   C605    1.425   .     A
C578   Br656   1.928   .     S
C579   Br631   1.932   .     S
C579   C1341   1.409   1_554 S
C580   Br632   1.914   .     S
C580   C1342   1.389   .     S
C581   C586    1.396   .     A
C581   H611    1.084   .     S
C581   C91     1.371   1_565 S
C582   H612    1.084   .     S
C582   C585    1.396   .     A
C583   H613    1.084   .     S
C583   C585    1.396   .     A
C584   H614    1.084   .     S
C584   C586    1.396   .     A
C584   C90     1.370   1_565 S
C587   H615    1.082   .     S
C587   N620    1.369   .     A
C587   C671    1.424   .     S
C588   H616    1.081   .     S
C588   N619    1.369   .     A
C589   N619    1.369   .     A
C589   H617    1.082   .     S
C590   H618    1.082   .     S
C590   N620    1.369   .     A
C590   C670    1.423   .     S
C591   O625    1.305   .     A
C591   O627    1.298   .     A
C591   C593    1.464   .     S
C592   O626    1.298   .     A
C592   C594    1.454   .     S
C592   O628    1.300   .     A
C593   C597    1.406   .     A
C593   C599    1.394   .     A
C594   C598    1.406   .     A
C594   C600    1.396   .     A
C595   C597    1.402   .     A
C595   C603    1.402   .     A
C595   H609    1.062   .     S
C596   C598    1.388   .     A
C596   C604    1.400   .     A
C596   H610    1.074   .     S
C597   O644    1.385   .     S
C598   O633    1.386   .     S
C599   H608    1.079   .     S
C599   C601    1.387   .     A
C600   H607    1.078   .     S
C600   C602    1.396   .     A
C601   C603    1.407   .     A
C601   C605    1.405   .     A
C602   C606    1.417   .     A
C602   C604    1.413   .     A
C603   C1317   1.409   .     S
C604   C1318   1.389   1_554 S
C605   C1344   1.420   .     S
C606   C1343   1.420   1_554 S
N619   Zn629   2.030   .     S
N620   Zn630   2.030   .     S
O621   Zn629   1.992   .     S
O622   Zn630   1.992   .     S
O623   Zn630   1.992   .     S
O624   Zn629   1.992   .     S
O625   Zn629   1.954   .     S
O626   Zn630   1.954   .     S
O627   Zn630   1.933   .     S
O628   Zn629   1.933   .     S
O633   C634    1.417   .     S
C634   C637    1.532   .     S
C634   H636    1.116   .     S
C634   H635    1.111   .     S
C637   H639    1.111   .     S
C637   C640    1.527   .     S
C637   H720    1.112   .     S
C640   H642    1.110   .     S
C640   H643    1.111   .     S
C640   H641    1.111   .     S
O644   C645    1.419   .     S
C645   H647    1.115   .     S
C645   C648    1.531   .     S
C645   H646    1.110   .     S
C648   H650    1.111   .     S
C648   C651    1.526   .     S
H649   C730    1.110   .     S
C651   H652    1.111   .     S
H653   C733    1.110   .     S
H654   C733    1.111   .     S
C657   C668    1.414   .     S
C657   O703    1.290   .     A
C657   O705    1.290   .     A
C658   O706    1.290   .     A
C658   C667    1.414   .     S
C658   O704    1.290   .     A
C659   Br737   1.937   .     S
C659   C661    1.404   .     A
C659   C688    1.419   .     A
C660   C662    1.378   .     A
C660   C687    1.425   .     A
C660   Br738   1.928   .     S
C661   Br713   1.932   .     S
C661   C1423   1.409   1_554 S
C662   Br714   1.914   .     S
C662   C1424   1.389   .     S
C663   C668    1.396   .     A
C663   H693    1.084   .     S
C663   C173    1.371   1_565 S
C664   H694    1.084   .     S
C664   C667    1.396   .     A
C665   H695    1.084   .     S
C665   C667    1.396   .     A
C666   H696    1.084   .     S
C666   C668    1.396   .     A
C666   C172    1.370   1_565 S
C669   H697    1.082   .     S
C669   N702    1.369   .     A
C669   C507    1.424   1_655 S
C670   H698    1.081   .     S
C670   N701    1.369   .     A
C671   N701    1.369   .     A
C671   H699    1.082   .     S
C672   H700    1.082   .     S
C672   N702    1.369   .     A
C672   C506    1.423   1_655 S
C673   O707    1.305   .     A
C673   O709    1.298   .     A
C673   C675    1.464   .     S
C674   O708    1.298   .     A
C674   C676    1.454   .     S
C674   O710    1.300   .     A
C675   C679    1.406   .     A
C675   C681    1.394   .     A
C676   C680    1.406   .     A
C676   C682    1.396   .     A
C677   C679    1.402   .     A
C677   C685    1.402   .     A
C677   H691    1.062   .     S
C678   C680    1.388   .     A
C678   C686    1.400   .     A
C678   H692    1.074   .     S
C679   O726    1.385   .     S
C680   O715    1.386   .     S
C681   H690    1.079   .     S
C681   C683    1.387   .     A
C682   H689    1.078   .     S
C682   C684    1.396   .     A
C683   C685    1.407   .     A
C683   C687    1.405   .     A
C684   C688    1.417   .     A
C684   C686    1.413   .     A
C685   C1399   1.409   .     S
C686   C1400   1.389   1_554 S
C687   C1426   1.420   .     S
C688   C1425   1.420   1_554 S
N701   Zn711   2.030   .     S
N702   Zn712   2.030   .     S
O703   Zn711   1.992   .     S
O704   Zn712   1.992   .     S
O705   Zn712   1.992   .     S
O706   Zn711   1.992   .     S
O707   Zn711   1.954   .     S
O708   Zn712   1.954   .     S
O709   Zn712   1.933   .     S
O710   Zn711   1.933   .     S
O715   C716    1.417   .     S
C716   C719    1.532   .     S
C716   H718    1.116   .     S
C716   H717    1.111   .     S
C719   H721    1.111   .     S
C719   C722    1.527   .     S
C719   H556    1.112   1_655 S
C722   H724    1.110   .     S
C722   H725    1.111   .     S
C722   H723    1.111   .     S
O726   C727    1.419   .     S
C727   H729    1.115   .     S
C727   C730    1.531   .     S
C727   H728    1.110   .     S
C730   H732    1.111   .     S
C730   C733    1.526   .     S
H731   C566    1.110   1_655 S
C733   H734    1.111   .     S
H735   C569    1.110   1_655 S
H736   C569    1.111   1_655 S
C739   C750    1.414   .     S
C739   O785    1.290   .     A
C739   O787    1.290   .     A
C740   O788    1.290   .     A
C740   C749    1.414   .     S
C740   O786    1.290   .     A
C741   Br819   1.937   .     S
C741   C743    1.404   .     A
C741   C770    1.419   .     A
C742   C744    1.378   .     A
C742   C769    1.425   .     A
C742   Br820   1.928   .     S
C743   Br795   1.932   .     S
C744   Br796   1.914   .     S
C744   C30     1.389   1_556 S
C745   C750    1.396   .     A
C745   H775    1.084   .     S
C745   C993    1.371   .     S
C746   H776    1.084   .     S
C746   C749    1.396   .     A
C746   C1240   1.370   1_545 S
C747   H777    1.084   .     S
C747   C749    1.396   .     A
C747   C1237   1.371   1_545 S
C748   H778    1.084   .     S
C748   C750    1.396   .     A
C748   C992    1.370   .     S
C751   H779    1.082   .     S
C751   N784    1.369   .     A
C751   C835    1.424   .     S
C752   H780    1.081   .     S
C752   N783    1.369   .     A
C752   C918    1.423   1_455 S
C753   N783    1.369   .     A
C753   H781    1.082   .     S
C753   C915    1.424   1_455 S
C754   H782    1.082   .     S
C754   N784    1.369   .     A
C754   C834    1.423   .     S
C755   O789    1.305   .     A
C755   O791    1.298   .     A
C755   C757    1.464   .     S
C756   O790    1.298   .     A
C756   C758    1.454   .     S
C756   O792    1.300   .     A
C757   C761    1.406   .     A
C757   C763    1.394   .     A
C758   C762    1.406   .     A
C758   C764    1.396   .     A
C759   C761    1.402   .     A
C759   C767    1.402   .     A
C759   H773    1.062   .     S
C760   C762    1.388   .     A
C760   C768    1.400   .     A
C760   H774    1.074   .     S
C761   O808    1.385   .     S
C762   O797    1.386   .     S
C763   H772    1.079   .     S
C763   C765    1.387   .     A
C764   H771    1.078   .     S
C764   C766    1.396   .     A
C765   C767    1.407   .     A
C765   C769    1.405   .     A
C766   C770    1.417   .     A
C766   C768    1.413   .     A
C767   C5      1.409   1_556 S
C769   C32     1.420   1_556 S
N783   Zn793   2.030   .     S
N784   Zn794   2.030   .     S
O785   Zn793   1.992   .     S
O786   Zn794   1.992   .     S
O787   Zn794   1.992   .     S
O788   Zn793   1.992   .     S
O789   Zn793   1.954   .     S
O790   Zn794   1.954   .     S
O791   Zn794   1.933   .     S
O792   Zn793   1.933   .     S
O797   C798    1.417   .     S
C798   C801    1.532   .     S
C798   H800    1.116   .     S
C798   H799    1.111   .     S
C801   H803    1.111   .     S
C801   C804    1.527   .     S
C801   H884    1.112   .     S
H802   C965    1.112   1_455 S
C804   H806    1.110   .     S
C804   H807    1.111   .     S
C804   H805    1.111   .     S
O808   C809    1.419   .     S
C809   H811    1.115   .     S
C809   C812    1.531   .     S
C809   H810    1.110   .     S
C812   H814    1.111   .     S
C812   C815    1.526   .     S
C812   H977    1.110   1_455 S
H813   C894    1.110   .     S
C815   H816    1.111   .     S
C815   H981    1.110   1_455 S
C815   H982    1.111   1_455 S
H817   C897    1.110   .     S
H818   C897    1.111   .     S
C821   C832    1.414   .     S
C821   O867    1.290   .     A
C821   O869    1.290   .     A
C822   O870    1.290   .     A
C822   C831    1.414   .     S
C822   O868    1.290   .     A
C823   Br901   1.937   .     S
C823   C825    1.404   .     A
C823   C852    1.419   .     A
C824   C826    1.378   .     A
C824   C851    1.425   .     A
C824   Br902   1.928   .     S
C825   Br877   1.932   .     S
C826   Br878   1.914   .     S
C826   C112    1.389   1_556 S
C827   C832    1.396   .     A
C827   H857    1.084   .     S
C827   C1075   1.371   .     S
C828   H858    1.084   .     S
C828   C831    1.396   .     A
C828   C1322   1.370   1_545 S
C829   H859    1.084   .     S
C829   C831    1.396   .     A
C829   C1319   1.371   1_545 S
C830   H860    1.084   .     S
C830   C832    1.396   .     A
C830   C1074   1.370   .     S
C833   H861    1.082   .     S
C833   N866    1.369   .     A
C833   C917    1.424   .     S
C834   H862    1.081   .     S
C834   N865    1.369   .     A
C835   N865    1.369   .     A
C835   H863    1.082   .     S
C836   H864    1.082   .     S
C836   N866    1.369   .     A
C836   C916    1.423   .     S
C837   O871    1.305   .     A
C837   O873    1.298   .     A
C837   C839    1.464   .     S
C838   O872    1.298   .     A
C838   C840    1.454   .     S
C838   O874    1.300   .     A
C839   C843    1.406   .     A
C839   C845    1.394   .     A
C840   C844    1.406   .     A
C840   C846    1.396   .     A
C841   C843    1.402   .     A
C841   C849    1.402   .     A
C841   H855    1.062   .     S
C842   C844    1.388   .     A
C842   C850    1.400   .     A
C842   H856    1.074   .     S
C843   O890    1.385   .     S
C844   O879    1.386   .     S
C845   H854    1.079   .     S
C845   C847    1.387   .     A
C846   H853    1.078   .     S
C846   C848    1.396   .     A
C847   C849    1.407   .     A
C847   C851    1.405   .     A
C848   C852    1.417   .     A
C848   C850    1.413   .     A
C849   C87     1.409   1_556 S
C851   C114    1.420   1_556 S
N865   Zn875   2.030   .     S
N866   Zn876   2.030   .     S
O867   Zn875   1.992   .     S
O868   Zn876   1.992   .     S
O869   Zn876   1.992   .     S
O870   Zn875   1.992   .     S
O871   Zn875   1.954   .     S
O872   Zn876   1.954   .     S
O873   Zn876   1.933   .     S
O874   Zn875   1.933   .     S
O879   C880    1.417   .     S
C880   C883    1.532   .     S
C880   H882    1.116   .     S
C880   H881    1.111   .     S
C883   H885    1.111   .     S
C883   C886    1.527   .     S
C883   H966    1.112   .     S
C886   H888    1.110   .     S
C886   H889    1.111   .     S
C886   H887    1.111   .     S
O890   C891    1.419   .     S
C891   H893    1.115   .     S
C891   C894    1.531   .     S
C891   H892    1.110   .     S
C894   H896    1.111   .     S
C894   C897    1.526   .     S
H895   C976    1.110   .     S
C897   H898    1.111   .     S
H899   C979    1.110   .     S
H900   C979    1.111   .     S
C903   C914    1.414   .     S
C903   O949    1.290   .     A
C903   O951    1.290   .     A
C904   O952    1.290   .     A
C904   C913    1.414   .     S
C904   O950    1.290   .     A
C905   Br983   1.937   .     S
C905   C907    1.404   .     A
C905   C934    1.419   .     A
C906   C908    1.378   .     A
C906   C933    1.425   .     A
C906   Br984   1.928   .     S
C907   Br959   1.932   .     S
C908   Br960   1.914   .     S
C908   C194    1.389   1_556 S
C909   C914    1.396   .     A
C909   H939    1.084   .     S
C909   C1157   1.371   .     S
C910   H940    1.084   .     S
C910   C913    1.396   .     A
C910   C1404   1.370   1_545 S
C911   H941    1.084   .     S
C911   C913    1.396   .     A
C911   C1401   1.371   1_545 S
C912   H942    1.084   .     S
C912   C914    1.396   .     A
C912   C1156   1.370   .     S
C915   H943    1.082   .     S
C915   N948    1.369   .     A
C915   C753    1.424   1_655 S
C916   H944    1.081   .     S
C916   N947    1.369   .     A
C917   N947    1.369   .     A
C917   H945    1.082   .     S
C918   H946    1.082   .     S
C918   N948    1.369   .     A
C918   C752    1.423   1_655 S
C919   O953    1.305   .     A
C919   O955    1.298   .     A
C919   C921    1.464   .     S
C920   O954    1.298   .     A
C920   C922    1.454   .     S
C920   O956    1.300   .     A
C921   C925    1.406   .     A
C921   C927    1.394   .     A
C922   C926    1.406   .     A
C922   C928    1.396   .     A
C923   C925    1.402   .     A
C923   C931    1.402   .     A
C923   H937    1.062   .     S
C924   C926    1.388   .     A
C924   C932    1.400   .     A
C924   H938    1.074   .     S
C925   O972    1.385   .     S
C926   O961    1.386   .     S
C927   H936    1.079   .     S
C927   C929    1.387   .     A
C928   H935    1.078   .     S
C928   C930    1.396   .     A
C929   C931    1.407   .     A
C929   C933    1.405   .     A
C930   C934    1.417   .     A
C930   C932    1.413   .     A
C931   C169    1.409   1_556 S
C933   C196    1.420   1_556 S
N947   Zn957   2.030   .     S
N948   Zn958   2.030   .     S
O949   Zn957   1.992   .     S
O950   Zn958   1.992   .     S
O951   Zn958   1.992   .     S
O952   Zn957   1.992   .     S
O953   Zn957   1.954   .     S
O954   Zn958   1.954   .     S
O955   Zn958   1.933   .     S
O956   Zn957   1.933   .     S
O961   C962    1.417   .     S
C962   C965    1.532   .     S
C962   H964    1.116   .     S
C962   H963    1.111   .     S
C965   H967    1.111   .     S
C965   C968    1.527   .     S
C965   H802    1.112   1_655 S
C968   H970    1.110   .     S
C968   H971    1.111   .     S
C968   H969    1.111   .     S
O972   C973    1.419   .     S
C973   H975    1.115   .     S
C973   C976    1.531   .     S
C973   H974    1.110   .     S
C976   H978    1.111   .     S
C976   C979    1.526   .     S
H977   C812    1.110   1_655 S
C979   H980    1.111   .     S
H981   C815    1.110   1_655 S
H982   C815    1.111   1_655 S
C985   C996    1.414   .     S
C985   O1031   1.290   .     A
C985   O1033   1.290   .     A
C986   O1034   1.290   .     A
C986   C995    1.414   .     S
C986   O1032   1.290   .     A
C987   Br1065  1.937   .     S
C987   C989    1.404   .     A
C987   C1016   1.419   .     A
C988   C990    1.378   .     A
C988   C1015   1.425   .     A
C988   Br1066  1.928   .     S
C989   Br1041  1.932   .     S
C990   Br1042  1.914   .     S
C990   C276    1.389   1_556 S
C991   C996    1.396   .     A
C991   H1021   1.084   .     S
C991   C1239   1.371   .     S
C992   H1022   1.084   .     S
C992   C995    1.396   .     A
C993   H1023   1.084   .     S
C993   C995    1.396   .     A
C994   H1024   1.084   .     S
C994   C996    1.396   .     A
C994   C1238   1.370   .     S
C997   H1025   1.082   .     S
C997   N1030   1.369   .     A
C997   C1081   1.424   .     S
C998   H1026   1.081   .     S
C998   N1029   1.369   .     A
C998   C1164   1.423   1_455 S
C999   N1029   1.369   .     A
C999   H1027   1.082   .     S
C999   C1161   1.424   1_455 S
C1000  H1028   1.082   .     S
C1000  N1030   1.369   .     A
C1000  C1080   1.423   .     S
C1001  O1035   1.305   .     A
C1001  O1037   1.298   .     A
C1001  C1003   1.464   .     S
C1002  O1036   1.298   .     A
C1002  C1004   1.454   .     S
C1002  O1038   1.300   .     A
C1003  C1007   1.406   .     A
C1003  C1009   1.394   .     A
C1004  C1008   1.406   .     A
C1004  C1010   1.396   .     A
C1005  C1007   1.402   .     A
C1005  C1013   1.402   .     A
C1005  H1019   1.062   .     S
C1006  C1008   1.388   .     A
C1006  C1014   1.400   .     A
C1006  H1020   1.074   .     S
C1007  O1054   1.385   .     S
C1008  O1043   1.386   .     S
C1009  H1018   1.079   .     S
C1009  C1011   1.387   .     A
C1010  H1017   1.078   .     S
C1010  C1012   1.396   .     A
C1011  C1013   1.407   .     A
C1011  C1015   1.405   .     A
C1012  C1016   1.417   .     A
C1012  C1014   1.413   .     A
C1013  C251    1.409   1_556 S
C1015  C278    1.420   1_556 S
N1029  Zn1039  2.030   .     S
N1030  Zn1040  2.030   .     S
O1031  Zn1039  1.992   .     S
O1032  Zn1040  1.992   .     S
O1033  Zn1040  1.992   .     S
O1034  Zn1039  1.992   .     S
O1035  Zn1039  1.954   .     S
O1036  Zn1040  1.954   .     S
O1037  Zn1040  1.933   .     S
O1038  Zn1039  1.933   .     S
O1043  C1044   1.417   .     S
C1044  C1047   1.532   .     S
C1044  H1046   1.116   .     S
C1044  H1045   1.111   .     S
C1047  H1049   1.111   .     S
C1047  C1050   1.527   .     S
C1047  H1130   1.112   .     S
H1048  C1211   1.112   1_455 S
C1050  H1052   1.110   .     S
C1050  H1053   1.111   .     S
C1050  H1051   1.111   .     S
O1054  C1055   1.419   .     S
C1055  H1057   1.115   .     S
C1055  C1058   1.531   .     S
C1055  H1056   1.110   .     S
C1058  H1060   1.111   .     S
C1058  C1061   1.526   .     S
C1058  H1223   1.110   1_455 S
H1059  C1140   1.110   .     S
C1061  H1062   1.111   .     S
C1061  H1227   1.110   1_455 S
C1061  H1228   1.111   1_455 S
H1063  C1143   1.110   .     S
H1064  C1143   1.111   .     S
C1067  C1078   1.414   .     S
C1067  O1113   1.290   .     A
C1067  O1115   1.290   .     A
C1068  O1116   1.290   .     A
C1068  C1077   1.414   .     S
C1068  O1114   1.290   .     A
C1069  Br1147  1.937   .     S
C1069  C1071   1.404   .     A
C1069  C1098   1.419   .     A
C1070  C1072   1.378   .     A
C1070  C1097   1.425   .     A
C1070  Br1148  1.928   .     S
C1071  Br1123  1.932   .     S
C1072  Br1124  1.914   .     S
C1072  C358    1.389   1_556 S
C1073  C1078   1.396   .     A
C1073  H1103   1.084   .     S
C1073  C1321   1.371   .     S
C1074  H1104   1.084   .     S
C1074  C1077   1.396   .     A
C1075  H1105   1.084   .     S
C1075  C1077   1.396   .     A
C1076  H1106   1.084   .     S
C1076  C1078   1.396   .     A
C1076  C1320   1.370   .     S
C1079  H1107   1.082   .     S
C1079  N1112   1.369   .     A
C1079  C1163   1.424   .     S
C1080  H1108   1.081   .     S
C1080  N1111   1.369   .     A
C1081  N1111   1.369   .     A
C1081  H1109   1.082   .     S
C1082  H1110   1.082   .     S
C1082  N1112   1.369   .     A
C1082  C1162   1.423   .     S
C1083  O1117   1.305   .     A
C1083  O1119   1.298   .     A
C1083  C1085   1.464   .     S
C1084  O1118   1.298   .     A
C1084  C1086   1.454   .     S
C1084  O1120   1.300   .     A
C1085  C1089   1.406   .     A
C1085  C1091   1.394   .     A
C1086  C1090   1.406   .     A
C1086  C1092   1.396   .     A
C1087  C1089   1.402   .     A
C1087  C1095   1.402   .     A
C1087  H1101   1.062   .     S
C1088  C1090   1.388   .     A
C1088  C1096   1.400   .     A
C1088  H1102   1.074   .     S
C1089  O1136   1.385   .     S
C1090  O1125   1.386   .     S
C1091  H1100   1.079   .     S
C1091  C1093   1.387   .     A
C1092  H1099   1.078   .     S
C1092  C1094   1.396   .     A
C1093  C1095   1.407   .     A
C1093  C1097   1.405   .     A
C1094  C1098   1.417   .     A
C1094  C1096   1.413   .     A
C1095  C333    1.409   1_556 S
C1097  C360    1.420   1_556 S
N1111  Zn1121  2.030   .     S
N1112  Zn1122  2.030   .     S
O1113  Zn1121  1.992   .     S
O1114  Zn1122  1.992   .     S
O1115  Zn1122  1.992   .     S
O1116  Zn1121  1.992   .     S
O1117  Zn1121  1.954   .     S
O1118  Zn1122  1.954   .     S
O1119  Zn1122  1.933   .     S
O1120  Zn1121  1.933   .     S
O1125  C1126   1.417   .     S
C1126  C1129   1.532   .     S
C1126  H1128   1.116   .     S
C1126  H1127   1.111   .     S
C1129  H1131   1.111   .     S
C1129  C1132   1.527   .     S
C1129  H1212   1.112   .     S
C1132  H1134   1.110   .     S
C1132  H1135   1.111   .     S
C1132  H1133   1.111   .     S
O1136  C1137   1.419   .     S
C1137  H1139   1.115   .     S
C1137  C1140   1.531   .     S
C1137  H1138   1.110   .     S
C1140  H1142   1.111   .     S
C1140  C1143   1.526   .     S
H1141  C1222   1.110   .     S
C1143  H1144   1.111   .     S
H1145  C1225   1.110   .     S
H1146  C1225   1.111   .     S
C1149  C1160   1.414   .     S
C1149  O1195   1.290   .     A
C1149  O1197   1.290   .     A
C1150  O1198   1.290   .     A
C1150  C1159   1.414   .     S
C1150  O1196   1.290   .     A
C1151  Br1229  1.937   .     S
C1151  C1153   1.404   .     A
C1151  C1180   1.419   .     A
C1152  C1154   1.378   .     A
C1152  C1179   1.425   .     A
C1152  Br1230  1.928   .     S
C1153  Br1205  1.932   .     S
C1154  Br1206  1.914   .     S
C1154  C440    1.389   1_556 S
C1155  C1160   1.396   .     A
C1155  H1185   1.084   .     S
C1155  C1403   1.371   .     S
C1156  H1186   1.084   .     S
C1156  C1159   1.396   .     A
C1157  H1187   1.084   .     S
C1157  C1159   1.396   .     A
C1158  H1188   1.084   .     S
C1158  C1160   1.396   .     A
C1158  C1402   1.370   .     S
C1161  H1189   1.082   .     S
C1161  N1194   1.369   .     A
C1161  C999    1.424   1_655 S
C1162  H1190   1.081   .     S
C1162  N1193   1.369   .     A
C1163  N1193   1.369   .     A
C1163  H1191   1.082   .     S
C1164  H1192   1.082   .     S
C1164  N1194   1.369   .     A
C1164  C998    1.423   1_655 S
C1165  O1199   1.305   .     A
C1165  O1201   1.298   .     A
C1165  C1167   1.464   .     S
C1166  O1200   1.298   .     A
C1166  C1168   1.454   .     S
C1166  O1202   1.300   .     A
C1167  C1171   1.406   .     A
C1167  C1173   1.394   .     A
C1168  C1172   1.406   .     A
C1168  C1174   1.396   .     A
C1169  C1171   1.402   .     A
C1169  C1177   1.402   .     A
C1169  H1183   1.062   .     S
C1170  C1172   1.388   .     A
C1170  C1178   1.400   .     A
C1170  H1184   1.074   .     S
C1171  O1218   1.385   .     S
C1172  O1207   1.386   .     S
C1173  H1182   1.079   .     S
C1173  C1175   1.387   .     A
C1174  H1181   1.078   .     S
C1174  C1176   1.396   .     A
C1175  C1177   1.407   .     A
C1175  C1179   1.405   .     A
C1176  C1180   1.417   .     A
C1176  C1178   1.413   .     A
C1177  C415    1.409   1_556 S
C1179  C442    1.420   1_556 S
N1193  Zn1203  2.030   .     S
N1194  Zn1204  2.030   .     S
O1195  Zn1203  1.992   .     S
O1196  Zn1204  1.992   .     S
O1197  Zn1204  1.992   .     S
O1198  Zn1203  1.992   .     S
O1199  Zn1203  1.954   .     S
O1200  Zn1204  1.954   .     S
O1201  Zn1204  1.933   .     S
O1202  Zn1203  1.933   .     S
O1207  C1208   1.417   .     S
C1208  C1211   1.532   .     S
C1208  H1210   1.116   .     S
C1208  H1209   1.111   .     S
C1211  H1213   1.111   .     S
C1211  C1214   1.527   .     S
C1211  H1048   1.112   1_655 S
C1214  H1216   1.110   .     S
C1214  H1217   1.111   .     S
C1214  H1215   1.111   .     S
O1218  C1219   1.419   .     S
C1219  H1221   1.115   .     S
C1219  C1222   1.531   .     S
C1219  H1220   1.110   .     S
C1222  H1224   1.111   .     S
C1222  C1225   1.526   .     S
H1223  C1058   1.110   1_655 S
C1225  H1226   1.111   .     S
H1227  C1061   1.110   1_655 S
H1228  C1061   1.111   1_655 S
C1231  C1242   1.414   .     S
C1231  O1277   1.290   .     A
C1231  O1279   1.290   .     A
C1232  O1280   1.290   .     A
C1232  C1241   1.414   .     S
C1232  O1278   1.290   .     A
C1233  Br1311  1.937   .     S
C1233  C1235   1.404   .     A
C1233  C1262   1.419   .     A
C1234  C1236   1.378   .     A
C1234  C1261   1.425   .     A
C1234  Br1312  1.928   .     S
C1235  Br1287  1.932   .     S
C1236  Br1288  1.914   .     S
C1236  C522    1.389   1_556 S
C1237  C1242   1.396   .     A
C1237  H1267   1.084   .     S
C1237  C747    1.371   1_565 S
C1238  H1268   1.084   .     S
C1238  C1241   1.396   .     A
C1239  H1269   1.084   .     S
C1239  C1241   1.396   .     A
C1240  H1270   1.084   .     S
C1240  C1242   1.396   .     A
C1240  C746    1.370   1_565 S
C1243  H1271   1.082   .     S
C1243  N1276   1.369   .     A
C1243  C1327   1.424   .     S
C1244  H1272   1.081   .     S
C1244  N1275   1.369   .     A
C1244  C1410   1.423   1_455 S
C1245  N1275   1.369   .     A
C1245  H1273   1.082   .     S
C1245  C1407   1.424   1_455 S
C1246  H1274   1.082   .     S
C1246  N1276   1.369   .     A
C1246  C1326   1.423   .     S
C1247  O1281   1.305   .     A
C1247  O1283   1.298   .     A
C1247  C1249   1.464   .     S
C1248  O1282   1.298   .     A
C1248  C1250   1.454   .     S
C1248  O1284   1.300   .     A
C1249  C1253   1.406   .     A
C1249  C1255   1.394   .     A
C1250  C1254   1.406   .     A
C1250  C1256   1.396   .     A
C1251  C1253   1.402   .     A
C1251  C1259   1.402   .     A
C1251  H1265   1.062   .     S
C1252  C1254   1.388   .     A
C1252  C1260   1.400   .     A
C1252  H1266   1.074   .     S
C1253  O1300   1.385   .     S
C1254  O1289   1.386   .     S
C1255  H1264   1.079   .     S
C1255  C1257   1.387   .     A
C1256  H1263   1.078   .     S
C1256  C1258   1.396   .     A
C1257  C1259   1.407   .     A
C1257  C1261   1.405   .     A
C1258  C1262   1.417   .     A
C1258  C1260   1.413   .     A
C1259  C497    1.409   1_556 S
C1261  C524    1.420   1_556 S
N1275  Zn1285  2.030   .     S
N1276  Zn1286  2.030   .     S
O1277  Zn1285  1.992   .     S
O1278  Zn1286  1.992   .     S
O1279  Zn1286  1.992   .     S
O1280  Zn1285  1.992   .     S
O1281  Zn1285  1.954   .     S
O1282  Zn1286  1.954   .     S
O1283  Zn1286  1.933   .     S
O1284  Zn1285  1.933   .     S
O1289  C1290   1.417   .     S
C1290  C1293   1.532   .     S
C1290  H1292   1.116   .     S
C1290  H1291   1.111   .     S
C1293  H1295   1.111   .     S
C1293  C1296   1.527   .     S
C1293  H1376   1.112   .     S
H1294  C1457   1.112   1_455 S
C1296  H1298   1.110   .     S
C1296  H1299   1.111   .     S
C1296  H1297   1.111   .     S
O1300  C1301   1.419   .     S
C1301  H1303   1.115   .     S
C1301  C1304   1.531   .     S
C1301  H1302   1.110   .     S
C1304  H1306   1.111   .     S
C1304  C1307   1.526   .     S
C1304  H1469   1.110   1_455 S
H1305  C1386   1.110   .     S
C1307  H1308   1.111   .     S
C1307  H1473   1.110   1_455 S
C1307  H1474   1.111   1_455 S
H1309  C1389   1.110   .     S
H1310  C1389   1.111   .     S
C1313  C1324   1.414   .     S
C1313  O1359   1.290   .     A
C1313  O1361   1.290   .     A
C1314  O1362   1.290   .     A
C1314  C1323   1.414   .     S
C1314  O1360   1.290   .     A
C1315  Br1393  1.937   .     S
C1315  C1317   1.404   .     A
C1315  C1344   1.419   .     A
C1316  C1318   1.378   .     A
C1316  C1343   1.425   .     A
C1316  Br1394  1.928   .     S
C1317  Br1369  1.932   .     S
C1318  Br1370  1.914   .     S
C1318  C604    1.389   1_556 S
C1319  C1324   1.396   .     A
C1319  H1349   1.084   .     S
C1319  C829    1.371   1_565 S
C1320  H1350   1.084   .     S
C1320  C1323   1.396   .     A
C1321  H1351   1.084   .     S
C1321  C1323   1.396   .     A
C1322  H1352   1.084   .     S
C1322  C1324   1.396   .     A
C1322  C828    1.370   1_565 S
C1325  H1353   1.082   .     S
C1325  N1358   1.369   .     A
C1325  C1409   1.424   .     S
C1326  H1354   1.081   .     S
C1326  N1357   1.369   .     A
C1327  N1357   1.369   .     A
C1327  H1355   1.082   .     S
C1328  H1356   1.082   .     S
C1328  N1358   1.369   .     A
C1328  C1408   1.423   .     S
C1329  O1363   1.305   .     A
C1329  O1365   1.298   .     A
C1329  C1331   1.464   .     S
C1330  O1364   1.298   .     A
C1330  C1332   1.454   .     S
C1330  O1366   1.300   .     A
C1331  C1335   1.406   .     A
C1331  C1337   1.394   .     A
C1332  C1336   1.406   .     A
C1332  C1338   1.396   .     A
C1333  C1335   1.402   .     A
C1333  C1341   1.402   .     A
C1333  H1347   1.062   .     S
C1334  C1336   1.388   .     A
C1334  C1342   1.400   .     A
C1334  H1348   1.074   .     S
C1335  O1382   1.385   .     S
C1336  O1371   1.386   .     S
C1337  H1346   1.079   .     S
C1337  C1339   1.387   .     A
C1338  H1345   1.078   .     S
C1338  C1340   1.396   .     A
C1339  C1341   1.407   .     A
C1339  C1343   1.405   .     A
C1340  C1344   1.417   .     A
C1340  C1342   1.413   .     A
C1341  C579    1.409   1_556 S
C1343  C606    1.420   1_556 S
N1357  Zn1367  2.030   .     S
N1358  Zn1368  2.030   .     S
O1359  Zn1367  1.992   .     S
O1360  Zn1368  1.992   .     S
O1361  Zn1368  1.992   .     S
O1362  Zn1367  1.992   .     S
O1363  Zn1367  1.954   .     S
O1364  Zn1368  1.954   .     S
O1365  Zn1368  1.933   .     S
O1366  Zn1367  1.933   .     S
O1371  C1372   1.417   .     S
C1372  C1375   1.532   .     S
C1372  H1374   1.116   .     S
C1372  H1373   1.111   .     S
C1375  H1377   1.111   .     S
C1375  C1378   1.527   .     S
C1375  H1458   1.112   .     S
C1378  H1380   1.110   .     S
C1378  H1381   1.111   .     S
C1378  H1379   1.111   .     S
O1382  C1383   1.419   .     S
C1383  H1385   1.115   .     S
C1383  C1386   1.531   .     S
C1383  H1384   1.110   .     S
C1386  H1388   1.111   .     S
C1386  C1389   1.526   .     S
H1387  C1468   1.110   .     S
C1389  H1390   1.111   .     S
H1391  C1471   1.110   .     S
H1392  C1471   1.111   .     S
C1395  C1406   1.414   .     S
C1395  O1441   1.290   .     A
C1395  O1443   1.290   .     A
C1396  O1444   1.290   .     A
C1396  C1405   1.414   .     S
C1396  O1442   1.290   .     A
C1397  Br1475  1.937   .     S
C1397  C1399   1.404   .     A
C1397  C1426   1.419   .     A
C1398  C1400   1.378   .     A
C1398  C1425   1.425   .     A
C1398  Br1476  1.928   .     S
C1399  Br1451  1.932   .     S
C1400  Br1452  1.914   .     S
C1400  C686    1.389   1_556 S
C1401  C1406   1.396   .     A
C1401  H1431   1.084   .     S
C1401  C911    1.371   1_565 S
C1402  H1432   1.084   .     S
C1402  C1405   1.396   .     A
C1403  H1433   1.084   .     S
C1403  C1405   1.396   .     A
C1404  H1434   1.084   .     S
C1404  C1406   1.396   .     A
C1404  C910    1.370   1_565 S
C1407  H1435   1.082   .     S
C1407  N1440   1.369   .     A
C1407  C1245   1.424   1_655 S
C1408  H1436   1.081   .     S
C1408  N1439   1.369   .     A
C1409  N1439   1.369   .     A
C1409  H1437   1.082   .     S
C1410  H1438   1.082   .     S
C1410  N1440   1.369   .     A
C1410  C1244   1.423   1_655 S
C1411  O1445   1.305   .     A
C1411  O1447   1.298   .     A
C1411  C1413   1.464   .     S
C1412  O1446   1.298   .     A
C1412  C1414   1.454   .     S
C1412  O1448   1.300   .     A
C1413  C1417   1.406   .     A
C1413  C1419   1.394   .     A
C1414  C1418   1.406   .     A
C1414  C1420   1.396   .     A
C1415  C1417   1.402   .     A
C1415  C1423   1.402   .     A
C1415  H1429   1.062   .     S
C1416  C1418   1.388   .     A
C1416  C1424   1.400   .     A
C1416  H1430   1.074   .     S
C1417  O1464   1.385   .     S
C1418  O1453   1.386   .     S
C1419  H1428   1.079   .     S
C1419  C1421   1.387   .     A
C1420  H1427   1.078   .     S
C1420  C1422   1.396   .     A
C1421  C1423   1.407   .     A
C1421  C1425   1.405   .     A
C1422  C1426   1.417   .     A
C1422  C1424   1.413   .     A
C1423  C661    1.409   1_556 S
C1425  C688    1.420   1_556 S
N1439  Zn1449  2.030   .     S
N1440  Zn1450  2.030   .     S
O1441  Zn1449  1.992   .     S
O1442  Zn1450  1.992   .     S
O1443  Zn1450  1.992   .     S
O1444  Zn1449  1.992   .     S
O1445  Zn1449  1.954   .     S
O1446  Zn1450  1.954   .     S
O1447  Zn1450  1.933   .     S
O1448  Zn1449  1.933   .     S
O1453  C1454   1.417   .     S
C1454  C1457   1.532   .     S
C1454  H1456   1.116   .     S
C1454  H1455   1.111   .     S
C1457  H1459   1.111   .     S
C1457  C1460   1.527   .     S
C1457  H1294   1.112   1_655 S
C1460  H1462   1.110   .     S
C1460  H1463   1.111   .     S
C1460  H1461   1.111   .     S
O1464  C1465   1.419   .     S
C1465  H1467   1.115   .     S
C1465  C1468   1.531   .     S
C1465  H1466   1.110   .     S
C1468  H1470   1.111   .     S
C1468  C1471   1.526   .     S
H1469  C1304   1.110   1_655 S
C1471  H1472   1.111   .     S
H1473  C1307   1.110   1_655 S
H1474  C1307   1.111   1_655 S
