data_str_m3_o1_o2_pcu_sym.113
_audit_creation_date              2020-01-03
_audit_creation_method            'Materials Studio'
_symmetry_space_group_name_H-M    'P1'
_symmetry_Int_Tables_number       1
_symmetry_cell_setting            triclinic
loop_
_symmetry_equiv_pos_as_xyz
  x,y,z
_cell_length_a                    32.0329
_cell_length_b                    29.4448
_cell_length_c                    29.9058
_cell_angle_alpha                 89.6904
_cell_angle_beta                  90.1415
_cell_angle_gamma                 90.8397
loop_
_atom_site_label
_atom_site_type_symbol
_atom_site_fract_x
_atom_site_fract_y
_atom_site_fract_z
_atom_site_U_iso_or_equiv
_atom_site_adp_type
_atom_site_occupancy
O1     O     0.10559   0.20487   0.25000   0.00000  Uiso   1.00
O2     O     0.22774   0.12846   0.25001   0.00000  Uiso   1.00
O3     O     0.22774   0.20487   0.25001   0.00000  Uiso   1.00
O4     O     0.10559   0.12846   0.25000   0.00000  Uiso   1.00
N5     N     0.16667   0.28573   0.25000   0.00000  Uiso   1.00
N6     N     0.16667   0.04760   0.25000   0.00000  Uiso   1.00
C7     C     0.08675   0.16626   0.24999   0.00000  Uiso   1.00
C8     C     0.24664   0.16708   0.25028   0.00000  Uiso   1.00
O9     O     0.16666   0.20489   0.18453   0.00000  Uiso   1.00
O10    O     0.16667   0.12845   0.31547   0.00000  Uiso   1.00
O11    O     0.16667   0.20489   0.31547   0.00000  Uiso   1.00
O12    O     0.16666   0.12845   0.18453   0.00000  Uiso   1.00
C13    C     0.16575   0.16675   0.16338   0.00000  Uiso   1.00
C14    C     0.16422   0.16639   0.33625   0.00000  Uiso   1.00
Zn15   Zn    0.16667   0.21771   0.25000   0.00000  Uiso   1.00
Zn16   Zn    0.16667   0.11563   0.25000   0.00000  Uiso   1.00
H17    H     0.21962   0.04285   0.29236   0.00000  Uiso   1.00
H18    H     0.11388   0.29048   0.20743   0.00000  Uiso   1.00
H19    H     0.11356   0.04163   0.20791   0.00000  Uiso   1.00
H20    H     0.21953   0.29167   0.29249   0.00000  Uiso   1.00
C21    C     0.19613   0.02434   0.27352   0.00000  Uiso   1.00
C22    C     0.13728   0.30899   0.22638   0.00000  Uiso   1.00
C23    C     0.13718   0.02366   0.22653   0.00000  Uiso   1.00
C24    C     0.19608   0.30965   0.27360   0.00000  Uiso   1.00
C25    C     0.02140   0.14164   0.28346   0.00000  Uiso   1.00
C26    C     0.31221   0.19222   0.21774   0.00000  Uiso   1.00
C27    C     0.31157   0.14359   0.28484   0.00000  Uiso   1.00
C28    C     0.02193   0.19033   0.21627   0.00000  Uiso   1.00
C29    C     0.15195   0.20801   0.04483   0.00000  Uiso   1.00
C30    C     0.16163   0.12960   0.45627   0.00000  Uiso   1.00
C31    C     0.12494   0.20061   0.44924   0.00000  Uiso   1.00
C32    C     0.13195   0.12863   0.04885   0.00000  Uiso   1.00
C33    C     0.16166   0.20804   0.09004   0.00000  Uiso   1.00
C34    C     0.16848   0.12867   0.41071   0.00000  Uiso   1.00
C35    C     0.13164   0.20087   0.40336   0.00000  Uiso   1.00
C36    C     0.14254   0.12709   0.09370   0.00000  Uiso   1.00
C37    C     0.15826   0.16691   0.11498   0.00000  Uiso   1.00
C38    C     0.15491   0.16539   0.38389   0.00000  Uiso   1.00
C39    C     0.13877   0.16811   0.02400   0.00000  Uiso   1.00
C40    C     0.14032   0.16547   0.47562   0.00000  Uiso   1.00
C41    C     0.29083   0.16827   0.25146   0.00000  Uiso   1.00
C42    C     0.04266   0.16518   0.24928   0.00000  Uiso   1.00
H43    H     0.15772   0.23860   0.02533   0.00000  Uiso   1.00
H44    H     0.17416   0.10254   0.47679   0.00000  Uiso   1.00
H45    H     0.10762   0.22784   0.46443   0.00000  Uiso   1.00
H46    H     0.12102   0.09783   0.03259   0.00000  Uiso   1.00
N47    N     0.17660   0.24976   0.10916   0.00000  Uiso   1.00
O48    O     0.21449   0.25248   0.12462   0.00000  Uiso   1.00
O49    O     0.15593   0.28694   0.10264   0.00000  Uiso   1.00
N50    N     0.18972   0.09037   0.39275   0.00000  Uiso   1.00
O51    O     0.16793   0.05864   0.37302   0.00000  Uiso   1.00
O52    O     0.22669   0.08068   0.40780   0.00000  Uiso   1.00
N53    N     0.11331   0.23641   0.37712   0.00000  Uiso   1.00
O54    O     0.08830   0.22622   0.34422   0.00000  Uiso   1.00
O55    O     0.11514   0.27817   0.39111   0.00000  Uiso   1.00
N56    N     0.13791   0.08434   0.11637   0.00000  Uiso   1.00
O57    O     0.17090   0.06042   0.12470   0.00000  Uiso   1.00
O58    O     0.10131   0.06469   0.11815   0.00000  Uiso   1.00
N59    N     0.04371   0.11887   0.31849   0.00000  Uiso   1.00
O60    O     0.04305   0.13478   0.35899   0.00000  Uiso   1.00
O61    O     0.05937   0.07905   0.31135   0.00000  Uiso   1.00
N62    N     0.29011   0.21628   0.18357   0.00000  Uiso   1.00
O63    O     0.28993   0.20100   0.14283   0.00000  Uiso   1.00
O64    O     0.27749   0.25728   0.19130   0.00000  Uiso   1.00
N65    N     0.28896   0.12214   0.32084   0.00000  Uiso   1.00
O66    O     0.29657   0.08037   0.33229   0.00000  Uiso   1.00
O67    O     0.26252   0.14537   0.34405   0.00000  Uiso   1.00
N68    N     0.04445   0.21295   0.18084   0.00000  Uiso   1.00
O69    O     0.03746   0.25536   0.17144   0.00000  Uiso   1.00
O70    O     0.07001   0.19031   0.15599   0.00000  Uiso   1.00
O71    O     0.43892   0.20487   0.25000   0.00000  Uiso   1.00
O72    O     0.56108   0.12846   0.25001   0.00000  Uiso   1.00
O73    O     0.56108   0.20487   0.25001   0.00000  Uiso   1.00
O74    O     0.43892   0.12846   0.25000   0.00000  Uiso   1.00
N75    N     0.50000   0.28573   0.25000   0.00000  Uiso   1.00
N76    N     0.50000   0.04760   0.25000   0.00000  Uiso   1.00
C77    C     0.42008   0.16626   0.24999   0.00000  Uiso   1.00
C78    C     0.57997   0.16708   0.25028   0.00000  Uiso   1.00
O79    O     0.50000   0.20489   0.18453   0.00000  Uiso   1.00
O80    O     0.50000   0.12845   0.31547   0.00000  Uiso   1.00
O81    O     0.50000   0.20489   0.31547   0.00000  Uiso   1.00
O82    O     0.50000   0.12845   0.18453   0.00000  Uiso   1.00
C83    C     0.49908   0.16675   0.16338   0.00000  Uiso   1.00
C84    C     0.49755   0.16639   0.33625   0.00000  Uiso   1.00
Zn85   Zn    0.50000   0.21771   0.25000   0.00000  Uiso   1.00
Zn86   Zn    0.50000   0.11563   0.25000   0.00000  Uiso   1.00
H87    H     0.55295   0.04285   0.29236   0.00000  Uiso   1.00
H88    H     0.44721   0.29048   0.20743   0.00000  Uiso   1.00
H89    H     0.44689   0.04163   0.20791   0.00000  Uiso   1.00
H90    H     0.55286   0.29167   0.29249   0.00000  Uiso   1.00
C91    C     0.52946   0.02434   0.27352   0.00000  Uiso   1.00
C92    C     0.47061   0.30899   0.22638   0.00000  Uiso   1.00
C93    C     0.47051   0.02366   0.22653   0.00000  Uiso   1.00
C94    C     0.52941   0.30965   0.27360   0.00000  Uiso   1.00
C95    C     0.35473   0.14164   0.28346   0.00000  Uiso   1.00
C96    C     0.64554   0.19222   0.21774   0.00000  Uiso   1.00
C97    C     0.64490   0.14359   0.28484   0.00000  Uiso   1.00
C98    C     0.35527   0.19033   0.21627   0.00000  Uiso   1.00
C99    C     0.48529   0.20801   0.04483   0.00000  Uiso   1.00
C100   C     0.49497   0.12960   0.45627   0.00000  Uiso   1.00
C101   C     0.45828   0.20061   0.44924   0.00000  Uiso   1.00
C102   C     0.46528   0.12863   0.04885   0.00000  Uiso   1.00
C103   C     0.49499   0.20804   0.09004   0.00000  Uiso   1.00
C104   C     0.50181   0.12867   0.41071   0.00000  Uiso   1.00
C105   C     0.46497   0.20087   0.40336   0.00000  Uiso   1.00
C106   C     0.47587   0.12709   0.09370   0.00000  Uiso   1.00
C107   C     0.49160   0.16691   0.11498   0.00000  Uiso   1.00
C108   C     0.48824   0.16539   0.38389   0.00000  Uiso   1.00
C109   C     0.47210   0.16811   0.02400   0.00000  Uiso   1.00
C110   C     0.47365   0.16547   0.47562   0.00000  Uiso   1.00
C111   C     0.62416   0.16827   0.25146   0.00000  Uiso   1.00
C112   C     0.37599   0.16518   0.24928   0.00000  Uiso   1.00
H113   H     0.49106   0.23860   0.02533   0.00000  Uiso   1.00
H114   H     0.50749   0.10254   0.47679   0.00000  Uiso   1.00
H115   H     0.44095   0.22784   0.46443   0.00000  Uiso   1.00
H116   H     0.45435   0.09783   0.03259   0.00000  Uiso   1.00
N117   N     0.50993   0.24976   0.10916   0.00000  Uiso   1.00
O118   O     0.54782   0.25248   0.12462   0.00000  Uiso   1.00
O119   O     0.48927   0.28694   0.10264   0.00000  Uiso   1.00
N120   N     0.52305   0.09037   0.39275   0.00000  Uiso   1.00
O121   O     0.50127   0.05864   0.37302   0.00000  Uiso   1.00
O122   O     0.56002   0.08068   0.40780   0.00000  Uiso   1.00
N123   N     0.44664   0.23641   0.37712   0.00000  Uiso   1.00
O124   O     0.42163   0.22622   0.34422   0.00000  Uiso   1.00
O125   O     0.44847   0.27817   0.39111   0.00000  Uiso   1.00
N126   N     0.47124   0.08434   0.11637   0.00000  Uiso   1.00
O127   O     0.50423   0.06042   0.12470   0.00000  Uiso   1.00
O128   O     0.43464   0.06469   0.11815   0.00000  Uiso   1.00
N129   N     0.37704   0.11887   0.31849   0.00000  Uiso   1.00
O130   O     0.37638   0.13478   0.35899   0.00000  Uiso   1.00
O131   O     0.39270   0.07905   0.31135   0.00000  Uiso   1.00
N132   N     0.62344   0.21628   0.18357   0.00000  Uiso   1.00
O133   O     0.62326   0.20100   0.14283   0.00000  Uiso   1.00
O134   O     0.61082   0.25728   0.19130   0.00000  Uiso   1.00
N135   N     0.62229   0.12214   0.32084   0.00000  Uiso   1.00
O136   O     0.62990   0.08037   0.33229   0.00000  Uiso   1.00
O137   O     0.59585   0.14537   0.34405   0.00000  Uiso   1.00
N138   N     0.37778   0.21295   0.18084   0.00000  Uiso   1.00
O139   O     0.37079   0.25536   0.17144   0.00000  Uiso   1.00
O140   O     0.40334   0.19031   0.15599   0.00000  Uiso   1.00
O141   O     0.77226   0.20487   0.25000   0.00000  Uiso   1.00
O142   O     0.89441   0.12846   0.25001   0.00000  Uiso   1.00
O143   O     0.89441   0.20487   0.25001   0.00000  Uiso   1.00
O144   O     0.77226   0.12846   0.25000   0.00000  Uiso   1.00
N145   N     0.83333   0.28573   0.25000   0.00000  Uiso   1.00
N146   N     0.83333   0.04760   0.25000   0.00000  Uiso   1.00
C147   C     0.75341   0.16626   0.24999   0.00000  Uiso   1.00
C148   C     0.91330   0.16708   0.25028   0.00000  Uiso   1.00
O149   O     0.83333   0.20489   0.18453   0.00000  Uiso   1.00
O150   O     0.83334   0.12845   0.31547   0.00000  Uiso   1.00
O151   O     0.83334   0.20489   0.31547   0.00000  Uiso   1.00
O152   O     0.83333   0.12845   0.18453   0.00000  Uiso   1.00
C153   C     0.83242   0.16675   0.16338   0.00000  Uiso   1.00
C154   C     0.83089   0.16639   0.33625   0.00000  Uiso   1.00
Zn155  Zn    0.83333   0.21771   0.25000   0.00000  Uiso   1.00
Zn156  Zn    0.83333   0.11563   0.25000   0.00000  Uiso   1.00
H157   H     0.88628   0.04285   0.29236   0.00000  Uiso   1.00
H158   H     0.78055   0.29048   0.20743   0.00000  Uiso   1.00
H159   H     0.78023   0.04163   0.20791   0.00000  Uiso   1.00
H160   H     0.88619   0.29167   0.29249   0.00000  Uiso   1.00
C161   C     0.86279   0.02434   0.27352   0.00000  Uiso   1.00
C162   C     0.80394   0.30899   0.22638   0.00000  Uiso   1.00
C163   C     0.80384   0.02366   0.22653   0.00000  Uiso   1.00
C164   C     0.86274   0.30965   0.27360   0.00000  Uiso   1.00
C165   C     0.68806   0.14164   0.28346   0.00000  Uiso   1.00
C166   C     0.97887   0.19222   0.21774   0.00000  Uiso   1.00
C167   C     0.97824   0.14359   0.28484   0.00000  Uiso   1.00
C168   C     0.68860   0.19033   0.21627   0.00000  Uiso   1.00
C169   C     0.81862   0.20801   0.04483   0.00000  Uiso   1.00
C170   C     0.82830   0.12960   0.45627   0.00000  Uiso   1.00
C171   C     0.79161   0.20061   0.44924   0.00000  Uiso   1.00
C172   C     0.79862   0.12863   0.04885   0.00000  Uiso   1.00
C173   C     0.82833   0.20804   0.09004   0.00000  Uiso   1.00
C174   C     0.83515   0.12867   0.41071   0.00000  Uiso   1.00
C175   C     0.79830   0.20087   0.40336   0.00000  Uiso   1.00
C176   C     0.80921   0.12709   0.09370   0.00000  Uiso   1.00
C177   C     0.82493   0.16691   0.11498   0.00000  Uiso   1.00
C178   C     0.82158   0.16539   0.38389   0.00000  Uiso   1.00
C179   C     0.80544   0.16811   0.02400   0.00000  Uiso   1.00
C180   C     0.80698   0.16547   0.47562   0.00000  Uiso   1.00
C181   C     0.95749   0.16827   0.25146   0.00000  Uiso   1.00
C182   C     0.70933   0.16518   0.24928   0.00000  Uiso   1.00
H183   H     0.82439   0.23860   0.02533   0.00000  Uiso   1.00
H184   H     0.84082   0.10254   0.47679   0.00000  Uiso   1.00
H185   H     0.77429   0.22784   0.46443   0.00000  Uiso   1.00
H186   H     0.78768   0.09783   0.03259   0.00000  Uiso   1.00
N187   N     0.84327   0.24976   0.10916   0.00000  Uiso   1.00
O188   O     0.88115   0.25248   0.12462   0.00000  Uiso   1.00
O189   O     0.82260   0.28694   0.10264   0.00000  Uiso   1.00
N190   N     0.85638   0.09037   0.39275   0.00000  Uiso   1.00
O191   O     0.83460   0.05864   0.37302   0.00000  Uiso   1.00
O192   O     0.89335   0.08068   0.40780   0.00000  Uiso   1.00
N193   N     0.77997   0.23641   0.37712   0.00000  Uiso   1.00
O194   O     0.75497   0.22622   0.34422   0.00000  Uiso   1.00
O195   O     0.78181   0.27817   0.39111   0.00000  Uiso   1.00
N196   N     0.80458   0.08434   0.11637   0.00000  Uiso   1.00
O197   O     0.83756   0.06042   0.12470   0.00000  Uiso   1.00
O198   O     0.76798   0.06469   0.11815   0.00000  Uiso   1.00
N199   N     0.71038   0.11887   0.31849   0.00000  Uiso   1.00
O200   O     0.70972   0.13478   0.35899   0.00000  Uiso   1.00
O201   O     0.72604   0.07905   0.31135   0.00000  Uiso   1.00
N202   N     0.95677   0.21628   0.18357   0.00000  Uiso   1.00
O203   O     0.95659   0.20100   0.14283   0.00000  Uiso   1.00
O204   O     0.94416   0.25728   0.19130   0.00000  Uiso   1.00
N205   N     0.95563   0.12214   0.32084   0.00000  Uiso   1.00
O206   O     0.96323   0.08037   0.33229   0.00000  Uiso   1.00
O207   O     0.92918   0.14537   0.34405   0.00000  Uiso   1.00
N208   N     0.71112   0.21295   0.18084   0.00000  Uiso   1.00
O209   O     0.70413   0.25536   0.17144   0.00000  Uiso   1.00
O210   O     0.73668   0.19031   0.15599   0.00000  Uiso   1.00
O211   O     0.10559   0.53821   0.25000   0.00000  Uiso   1.00
O212   O     0.22774   0.46179   0.25001   0.00000  Uiso   1.00
O213   O     0.22774   0.53821   0.25001   0.00000  Uiso   1.00
O214   O     0.10559   0.46179   0.25000   0.00000  Uiso   1.00
N215   N     0.16667   0.61907   0.25000   0.00000  Uiso   1.00
N216   N     0.16667   0.38093   0.25000   0.00000  Uiso   1.00
C217   C     0.08675   0.49959   0.24999   0.00000  Uiso   1.00
C218   C     0.24664   0.50041   0.25028   0.00000  Uiso   1.00
O219   O     0.16666   0.53822   0.18453   0.00000  Uiso   1.00
O220   O     0.16667   0.46178   0.31547   0.00000  Uiso   1.00
O221   O     0.16667   0.53822   0.31547   0.00000  Uiso   1.00
O222   O     0.16666   0.46178   0.18453   0.00000  Uiso   1.00
C223   C     0.16575   0.50008   0.16338   0.00000  Uiso   1.00
C224   C     0.16422   0.49973   0.33625   0.00000  Uiso   1.00
Zn225  Zn    0.16667   0.55104   0.25000   0.00000  Uiso   1.00
Zn226  Zn    0.16667   0.44896   0.25000   0.00000  Uiso   1.00
H227   H     0.21962   0.37618   0.29236   0.00000  Uiso   1.00
H228   H     0.11388   0.62381   0.20743   0.00000  Uiso   1.00
H229   H     0.11356   0.37497   0.20791   0.00000  Uiso   1.00
H230   H     0.21953   0.62501   0.29249   0.00000  Uiso   1.00
C231   C     0.19613   0.35768   0.27352   0.00000  Uiso   1.00
C232   C     0.13728   0.64232   0.22638   0.00000  Uiso   1.00
C233   C     0.13718   0.35700   0.22653   0.00000  Uiso   1.00
C234   C     0.19608   0.64299   0.27360   0.00000  Uiso   1.00
C235   C     0.02140   0.47498   0.28346   0.00000  Uiso   1.00
C236   C     0.31221   0.52556   0.21774   0.00000  Uiso   1.00
C237   C     0.31157   0.47693   0.28484   0.00000  Uiso   1.00
C238   C     0.02193   0.52366   0.21627   0.00000  Uiso   1.00
C239   C     0.15195   0.54134   0.04483   0.00000  Uiso   1.00
C240   C     0.16163   0.46293   0.45627   0.00000  Uiso   1.00
C241   C     0.12494   0.53395   0.44924   0.00000  Uiso   1.00
C242   C     0.13195   0.46196   0.04885   0.00000  Uiso   1.00
C243   C     0.16166   0.54137   0.09004   0.00000  Uiso   1.00
C244   C     0.16848   0.46201   0.41071   0.00000  Uiso   1.00
C245   C     0.13164   0.53420   0.40336   0.00000  Uiso   1.00
C246   C     0.14254   0.46042   0.09370   0.00000  Uiso   1.00
C247   C     0.15826   0.50024   0.11498   0.00000  Uiso   1.00
C248   C     0.15491   0.49872   0.38389   0.00000  Uiso   1.00
C249   C     0.13877   0.50145   0.02400   0.00000  Uiso   1.00
C250   C     0.14032   0.49880   0.47562   0.00000  Uiso   1.00
C251   C     0.29083   0.50161   0.25146   0.00000  Uiso   1.00
C252   C     0.04266   0.49851   0.24928   0.00000  Uiso   1.00
H253   H     0.15772   0.57193   0.02533   0.00000  Uiso   1.00
H254   H     0.17416   0.43587   0.47679   0.00000  Uiso   1.00
H255   H     0.10762   0.56117   0.46443   0.00000  Uiso   1.00
H256   H     0.12102   0.43116   0.03259   0.00000  Uiso   1.00
N257   N     0.17660   0.58310   0.10916   0.00000  Uiso   1.00
O258   O     0.21449   0.58581   0.12462   0.00000  Uiso   1.00
O259   O     0.15593   0.62028   0.10264   0.00000  Uiso   1.00
N260   N     0.18972   0.42370   0.39275   0.00000  Uiso   1.00
O261   O     0.16793   0.39197   0.37302   0.00000  Uiso   1.00
O262   O     0.22669   0.41402   0.40780   0.00000  Uiso   1.00
N263   N     0.11331   0.56975   0.37712   0.00000  Uiso   1.00
O264   O     0.08830   0.55955   0.34422   0.00000  Uiso   1.00
O265   O     0.11514   0.61150   0.39111   0.00000  Uiso   1.00
N266   N     0.13791   0.41767   0.11637   0.00000  Uiso   1.00
O267   O     0.17090   0.39375   0.12470   0.00000  Uiso   1.00
O268   O     0.10131   0.39803   0.11815   0.00000  Uiso   1.00
N269   N     0.04371   0.45220   0.31849   0.00000  Uiso   1.00
O270   O     0.04305   0.46812   0.35899   0.00000  Uiso   1.00
O271   O     0.05937   0.41238   0.31135   0.00000  Uiso   1.00
N272   N     0.29011   0.54961   0.18357   0.00000  Uiso   1.00
O273   O     0.28993   0.53434   0.14283   0.00000  Uiso   1.00
O274   O     0.27749   0.59061   0.19130   0.00000  Uiso   1.00
N275   N     0.28896   0.45548   0.32084   0.00000  Uiso   1.00
O276   O     0.29657   0.41371   0.33229   0.00000  Uiso   1.00
O277   O     0.26252   0.47870   0.34405   0.00000  Uiso   1.00
N278   N     0.04445   0.54628   0.18084   0.00000  Uiso   1.00
O279   O     0.03746   0.58869   0.17144   0.00000  Uiso   1.00
O280   O     0.07001   0.52365   0.15599   0.00000  Uiso   1.00
O281   O     0.43892   0.53821   0.25000   0.00000  Uiso   1.00
O282   O     0.56108   0.46179   0.25001   0.00000  Uiso   1.00
O283   O     0.56108   0.53821   0.25001   0.00000  Uiso   1.00
O284   O     0.43892   0.46179   0.25000   0.00000  Uiso   1.00
N285   N     0.50000   0.61907   0.25000   0.00000  Uiso   1.00
N286   N     0.50000   0.38093   0.25000   0.00000  Uiso   1.00
C287   C     0.42008   0.49959   0.24999   0.00000  Uiso   1.00
C288   C     0.57997   0.50041   0.25028   0.00000  Uiso   1.00
O289   O     0.50000   0.53822   0.18453   0.00000  Uiso   1.00
O290   O     0.50000   0.46178   0.31547   0.00000  Uiso   1.00
O291   O     0.50000   0.53822   0.31547   0.00000  Uiso   1.00
O292   O     0.50000   0.46178   0.18453   0.00000  Uiso   1.00
C293   C     0.49908   0.50008   0.16338   0.00000  Uiso   1.00
C294   C     0.49755   0.49973   0.33625   0.00000  Uiso   1.00
Zn295  Zn    0.50000   0.55104   0.25000   0.00000  Uiso   1.00
Zn296  Zn    0.50000   0.44896   0.25000   0.00000  Uiso   1.00
H297   H     0.55295   0.37618   0.29236   0.00000  Uiso   1.00
H298   H     0.44721   0.62381   0.20743   0.00000  Uiso   1.00
H299   H     0.44689   0.37497   0.20791   0.00000  Uiso   1.00
H300   H     0.55286   0.62501   0.29249   0.00000  Uiso   1.00
C301   C     0.52946   0.35768   0.27352   0.00000  Uiso   1.00
C302   C     0.47061   0.64232   0.22638   0.00000  Uiso   1.00
C303   C     0.47051   0.35700   0.22653   0.00000  Uiso   1.00
C304   C     0.52941   0.64299   0.27360   0.00000  Uiso   1.00
C305   C     0.35473   0.47498   0.28346   0.00000  Uiso   1.00
C306   C     0.64554   0.52556   0.21774   0.00000  Uiso   1.00
C307   C     0.64490   0.47693   0.28484   0.00000  Uiso   1.00
C308   C     0.35527   0.52366   0.21627   0.00000  Uiso   1.00
C309   C     0.48529   0.54134   0.04483   0.00000  Uiso   1.00
C310   C     0.49497   0.46293   0.45627   0.00000  Uiso   1.00
C311   C     0.45828   0.53395   0.44924   0.00000  Uiso   1.00
C312   C     0.46528   0.46196   0.04885   0.00000  Uiso   1.00
C313   C     0.49499   0.54137   0.09004   0.00000  Uiso   1.00
C314   C     0.50181   0.46201   0.41071   0.00000  Uiso   1.00
C315   C     0.46497   0.53420   0.40336   0.00000  Uiso   1.00
C316   C     0.47587   0.46042   0.09370   0.00000  Uiso   1.00
C317   C     0.49160   0.50024   0.11498   0.00000  Uiso   1.00
C318   C     0.48824   0.49872   0.38389   0.00000  Uiso   1.00
C319   C     0.47210   0.50145   0.02400   0.00000  Uiso   1.00
C320   C     0.47365   0.49880   0.47562   0.00000  Uiso   1.00
C321   C     0.62416   0.50161   0.25146   0.00000  Uiso   1.00
C322   C     0.37599   0.49851   0.24928   0.00000  Uiso   1.00
H323   H     0.49106   0.57193   0.02533   0.00000  Uiso   1.00
H324   H     0.50749   0.43587   0.47679   0.00000  Uiso   1.00
H325   H     0.44095   0.56117   0.46443   0.00000  Uiso   1.00
H326   H     0.45435   0.43116   0.03259   0.00000  Uiso   1.00
N327   N     0.50993   0.58310   0.10916   0.00000  Uiso   1.00
O328   O     0.54782   0.58581   0.12462   0.00000  Uiso   1.00
O329   O     0.48927   0.62028   0.10264   0.00000  Uiso   1.00
N330   N     0.52305   0.42370   0.39275   0.00000  Uiso   1.00
O331   O     0.50127   0.39197   0.37302   0.00000  Uiso   1.00
O332   O     0.56002   0.41402   0.40780   0.00000  Uiso   1.00
N333   N     0.44664   0.56975   0.37712   0.00000  Uiso   1.00
O334   O     0.42163   0.55955   0.34422   0.00000  Uiso   1.00
O335   O     0.44847   0.61150   0.39111   0.00000  Uiso   1.00
N336   N     0.47124   0.41767   0.11637   0.00000  Uiso   1.00
O337   O     0.50423   0.39375   0.12470   0.00000  Uiso   1.00
O338   O     0.43464   0.39803   0.11815   0.00000  Uiso   1.00
N339   N     0.37704   0.45220   0.31849   0.00000  Uiso   1.00
O340   O     0.37638   0.46812   0.35899   0.00000  Uiso   1.00
O341   O     0.39270   0.41238   0.31135   0.00000  Uiso   1.00
N342   N     0.62344   0.54961   0.18357   0.00000  Uiso   1.00
O343   O     0.62326   0.53434   0.14283   0.00000  Uiso   1.00
O344   O     0.61082   0.59061   0.19130   0.00000  Uiso   1.00
N345   N     0.62229   0.45548   0.32084   0.00000  Uiso   1.00
O346   O     0.62990   0.41371   0.33229   0.00000  Uiso   1.00
O347   O     0.59585   0.47870   0.34405   0.00000  Uiso   1.00
N348   N     0.37778   0.54628   0.18084   0.00000  Uiso   1.00
O349   O     0.37079   0.58869   0.17144   0.00000  Uiso   1.00
O350   O     0.40334   0.52365   0.15599   0.00000  Uiso   1.00
O351   O     0.77226   0.53821   0.25000   0.00000  Uiso   1.00
O352   O     0.89441   0.46179   0.25001   0.00000  Uiso   1.00
O353   O     0.89441   0.53821   0.25001   0.00000  Uiso   1.00
O354   O     0.77226   0.46179   0.25000   0.00000  Uiso   1.00
N355   N     0.83333   0.61907   0.25000   0.00000  Uiso   1.00
N356   N     0.83333   0.38093   0.25000   0.00000  Uiso   1.00
C357   C     0.75341   0.49959   0.24999   0.00000  Uiso   1.00
C358   C     0.91330   0.50041   0.25028   0.00000  Uiso   1.00
O359   O     0.83333   0.53822   0.18453   0.00000  Uiso   1.00
O360   O     0.83334   0.46178   0.31547   0.00000  Uiso   1.00
O361   O     0.83334   0.53822   0.31547   0.00000  Uiso   1.00
O362   O     0.83333   0.46178   0.18453   0.00000  Uiso   1.00
C363   C     0.83242   0.50008   0.16338   0.00000  Uiso   1.00
C364   C     0.83089   0.49973   0.33625   0.00000  Uiso   1.00
Zn365  Zn    0.83333   0.55104   0.25000   0.00000  Uiso   1.00
Zn366  Zn    0.83333   0.44896   0.25000   0.00000  Uiso   1.00
H367   H     0.88628   0.37618   0.29236   0.00000  Uiso   1.00
H368   H     0.78055   0.62381   0.20743   0.00000  Uiso   1.00
H369   H     0.78023   0.37497   0.20791   0.00000  Uiso   1.00
H370   H     0.88619   0.62501   0.29249   0.00000  Uiso   1.00
C371   C     0.86279   0.35768   0.27352   0.00000  Uiso   1.00
C372   C     0.80394   0.64232   0.22638   0.00000  Uiso   1.00
C373   C     0.80384   0.35700   0.22653   0.00000  Uiso   1.00
C374   C     0.86274   0.64299   0.27360   0.00000  Uiso   1.00
C375   C     0.68806   0.47498   0.28346   0.00000  Uiso   1.00
C376   C     0.97887   0.52556   0.21774   0.00000  Uiso   1.00
C377   C     0.97824   0.47693   0.28484   0.00000  Uiso   1.00
C378   C     0.68860   0.52366   0.21627   0.00000  Uiso   1.00
C379   C     0.81862   0.54134   0.04483   0.00000  Uiso   1.00
C380   C     0.82830   0.46293   0.45627   0.00000  Uiso   1.00
C381   C     0.79161   0.53395   0.44924   0.00000  Uiso   1.00
C382   C     0.79862   0.46196   0.04885   0.00000  Uiso   1.00
C383   C     0.82833   0.54137   0.09004   0.00000  Uiso   1.00
C384   C     0.83515   0.46201   0.41071   0.00000  Uiso   1.00
C385   C     0.79830   0.53420   0.40336   0.00000  Uiso   1.00
C386   C     0.80921   0.46042   0.09370   0.00000  Uiso   1.00
C387   C     0.82493   0.50024   0.11498   0.00000  Uiso   1.00
C388   C     0.82158   0.49872   0.38389   0.00000  Uiso   1.00
C389   C     0.80544   0.50145   0.02400   0.00000  Uiso   1.00
C390   C     0.80698   0.49880   0.47562   0.00000  Uiso   1.00
C391   C     0.95749   0.50161   0.25146   0.00000  Uiso   1.00
C392   C     0.70933   0.49851   0.24928   0.00000  Uiso   1.00
H393   H     0.82439   0.57193   0.02533   0.00000  Uiso   1.00
H394   H     0.84082   0.43587   0.47679   0.00000  Uiso   1.00
H395   H     0.77429   0.56117   0.46443   0.00000  Uiso   1.00
H396   H     0.78768   0.43116   0.03259   0.00000  Uiso   1.00
N397   N     0.84327   0.58310   0.10916   0.00000  Uiso   1.00
O398   O     0.88115   0.58581   0.12462   0.00000  Uiso   1.00
O399   O     0.82260   0.62028   0.10264   0.00000  Uiso   1.00
N400   N     0.85638   0.42370   0.39275   0.00000  Uiso   1.00
O401   O     0.83460   0.39197   0.37302   0.00000  Uiso   1.00
O402   O     0.89335   0.41402   0.40780   0.00000  Uiso   1.00
N403   N     0.77997   0.56975   0.37712   0.00000  Uiso   1.00
O404   O     0.75497   0.55955   0.34422   0.00000  Uiso   1.00
O405   O     0.78181   0.61150   0.39111   0.00000  Uiso   1.00
N406   N     0.80458   0.41767   0.11637   0.00000  Uiso   1.00
O407   O     0.83756   0.39375   0.12470   0.00000  Uiso   1.00
O408   O     0.76798   0.39803   0.11815   0.00000  Uiso   1.00
N409   N     0.71038   0.45220   0.31849   0.00000  Uiso   1.00
O410   O     0.70972   0.46812   0.35899   0.00000  Uiso   1.00
O411   O     0.72604   0.41238   0.31135   0.00000  Uiso   1.00
N412   N     0.95677   0.54961   0.18357   0.00000  Uiso   1.00
O413   O     0.95659   0.53434   0.14283   0.00000  Uiso   1.00
O414   O     0.94416   0.59061   0.19130   0.00000  Uiso   1.00
N415   N     0.95563   0.45548   0.32084   0.00000  Uiso   1.00
O416   O     0.96323   0.41371   0.33229   0.00000  Uiso   1.00
O417   O     0.92918   0.47870   0.34405   0.00000  Uiso   1.00
N418   N     0.71112   0.54628   0.18084   0.00000  Uiso   1.00
O419   O     0.70413   0.58869   0.17144   0.00000  Uiso   1.00
O420   O     0.73668   0.52365   0.15599   0.00000  Uiso   1.00
O421   O     0.10559   0.87154   0.25000   0.00000  Uiso   1.00
O422   O     0.22774   0.79513   0.25001   0.00000  Uiso   1.00
O423   O     0.22774   0.87154   0.25001   0.00000  Uiso   1.00
O424   O     0.10559   0.79513   0.25000   0.00000  Uiso   1.00
N425   N     0.16667   0.95240   0.25000   0.00000  Uiso   1.00
N426   N     0.16667   0.71427   0.25000   0.00000  Uiso   1.00
C427   C     0.08675   0.83292   0.24999   0.00000  Uiso   1.00
C428   C     0.24664   0.83375   0.25028   0.00000  Uiso   1.00
O429   O     0.16666   0.87155   0.18453   0.00000  Uiso   1.00
O430   O     0.16667   0.79511   0.31547   0.00000  Uiso   1.00
O431   O     0.16667   0.87155   0.31547   0.00000  Uiso   1.00
O432   O     0.16666   0.79511   0.18453   0.00000  Uiso   1.00
C433   C     0.16575   0.83341   0.16338   0.00000  Uiso   1.00
C434   C     0.16422   0.83306   0.33625   0.00000  Uiso   1.00
Zn435  Zn    0.16667   0.88437   0.25000   0.00000  Uiso   1.00
Zn436  Zn    0.16667   0.78229   0.25000   0.00000  Uiso   1.00
H437   H     0.21962   0.70952   0.29236   0.00000  Uiso   1.00
H438   H     0.11388   0.95715   0.20743   0.00000  Uiso   1.00
H439   H     0.11356   0.70830   0.20791   0.00000  Uiso   1.00
H440   H     0.21953   0.95834   0.29249   0.00000  Uiso   1.00
C441   C     0.19613   0.69101   0.27352   0.00000  Uiso   1.00
C442   C     0.13728   0.97565   0.22638   0.00000  Uiso   1.00
C443   C     0.13718   0.69033   0.22653   0.00000  Uiso   1.00
C444   C     0.19608   0.97632   0.27360   0.00000  Uiso   1.00
C445   C     0.02140   0.80831   0.28346   0.00000  Uiso   1.00
C446   C     0.31221   0.85889   0.21774   0.00000  Uiso   1.00
C447   C     0.31157   0.81026   0.28484   0.00000  Uiso   1.00
C448   C     0.02193   0.85699   0.21627   0.00000  Uiso   1.00
C449   C     0.15195   0.87468   0.04483   0.00000  Uiso   1.00
C450   C     0.16163   0.79627   0.45627   0.00000  Uiso   1.00
C451   C     0.12494   0.86728   0.44924   0.00000  Uiso   1.00
C452   C     0.13195   0.79529   0.04885   0.00000  Uiso   1.00
C453   C     0.16166   0.87470   0.09004   0.00000  Uiso   1.00
C454   C     0.16848   0.79534   0.41071   0.00000  Uiso   1.00
C455   C     0.13164   0.86754   0.40336   0.00000  Uiso   1.00
C456   C     0.14254   0.79375   0.09370   0.00000  Uiso   1.00
C457   C     0.15826   0.83357   0.11498   0.00000  Uiso   1.00
C458   C     0.15491   0.83205   0.38389   0.00000  Uiso   1.00
C459   C     0.13877   0.83478   0.02400   0.00000  Uiso   1.00
C460   C     0.14032   0.83213   0.47562   0.00000  Uiso   1.00
C461   C     0.29083   0.83494   0.25146   0.00000  Uiso   1.00
C462   C     0.04266   0.83185   0.24928   0.00000  Uiso   1.00
H463   H     0.15772   0.90526   0.02533   0.00000  Uiso   1.00
H464   H     0.17416   0.76920   0.47679   0.00000  Uiso   1.00
H465   H     0.10762   0.89450   0.46443   0.00000  Uiso   1.00
H466   H     0.12102   0.76450   0.03259   0.00000  Uiso   1.00
N467   N     0.17660   0.91643   0.10916   0.00000  Uiso   1.00
O468   O     0.21449   0.91915   0.12462   0.00000  Uiso   1.00
O469   O     0.15593   0.95361   0.10264   0.00000  Uiso   1.00
N470   N     0.18972   0.75704   0.39275   0.00000  Uiso   1.00
O471   O     0.16793   0.72531   0.37302   0.00000  Uiso   1.00
O472   O     0.22669   0.74735   0.40780   0.00000  Uiso   1.00
N473   N     0.11331   0.90308   0.37712   0.00000  Uiso   1.00
O474   O     0.08830   0.89288   0.34422   0.00000  Uiso   1.00
O475   O     0.11514   0.94483   0.39111   0.00000  Uiso   1.00
N476   N     0.13791   0.75101   0.11637   0.00000  Uiso   1.00
O477   O     0.17090   0.72708   0.12470   0.00000  Uiso   1.00
O478   O     0.10131   0.73136   0.11815   0.00000  Uiso   1.00
N479   N     0.04371   0.78554   0.31849   0.00000  Uiso   1.00
O480   O     0.04305   0.80145   0.35899   0.00000  Uiso   1.00
O481   O     0.05937   0.74571   0.31135   0.00000  Uiso   1.00
N482   N     0.29011   0.88294   0.18357   0.00000  Uiso   1.00
O483   O     0.28993   0.86767   0.14283   0.00000  Uiso   1.00
O484   O     0.27749   0.92395   0.19130   0.00000  Uiso   1.00
N485   N     0.28896   0.78881   0.32084   0.00000  Uiso   1.00
O486   O     0.29657   0.74704   0.33229   0.00000  Uiso   1.00
O487   O     0.26252   0.81203   0.34405   0.00000  Uiso   1.00
N488   N     0.04445   0.87961   0.18084   0.00000  Uiso   1.00
O489   O     0.03746   0.92203   0.17144   0.00000  Uiso   1.00
O490   O     0.07001   0.85698   0.15599   0.00000  Uiso   1.00
O491   O     0.43892   0.87154   0.25000   0.00000  Uiso   1.00
O492   O     0.56108   0.79513   0.25001   0.00000  Uiso   1.00
O493   O     0.56108   0.87154   0.25001   0.00000  Uiso   1.00
O494   O     0.43892   0.79513   0.25000   0.00000  Uiso   1.00
N495   N     0.50000   0.95240   0.25000   0.00000  Uiso   1.00
N496   N     0.50000   0.71427   0.25000   0.00000  Uiso   1.00
C497   C     0.42008   0.83292   0.24999   0.00000  Uiso   1.00
C498   C     0.57997   0.83375   0.25028   0.00000  Uiso   1.00
O499   O     0.50000   0.87155   0.18453   0.00000  Uiso   1.00
O500   O     0.50000   0.79511   0.31547   0.00000  Uiso   1.00
O501   O     0.50000   0.87155   0.31547   0.00000  Uiso   1.00
O502   O     0.50000   0.79511   0.18453   0.00000  Uiso   1.00
C503   C     0.49908   0.83341   0.16338   0.00000  Uiso   1.00
C504   C     0.49755   0.83306   0.33625   0.00000  Uiso   1.00
Zn505  Zn    0.50000   0.88437   0.25000   0.00000  Uiso   1.00
Zn506  Zn    0.50000   0.78229   0.25000   0.00000  Uiso   1.00
H507   H     0.55295   0.70952   0.29236   0.00000  Uiso   1.00
H508   H     0.44721   0.95715   0.20743   0.00000  Uiso   1.00
H509   H     0.44689   0.70830   0.20791   0.00000  Uiso   1.00
H510   H     0.55286   0.95834   0.29249   0.00000  Uiso   1.00
C511   C     0.52946   0.69101   0.27352   0.00000  Uiso   1.00
C512   C     0.47061   0.97565   0.22638   0.00000  Uiso   1.00
C513   C     0.47051   0.69033   0.22653   0.00000  Uiso   1.00
C514   C     0.52941   0.97632   0.27360   0.00000  Uiso   1.00
C515   C     0.35473   0.80831   0.28346   0.00000  Uiso   1.00
C516   C     0.64554   0.85889   0.21774   0.00000  Uiso   1.00
C517   C     0.64490   0.81026   0.28484   0.00000  Uiso   1.00
C518   C     0.35527   0.85699   0.21627   0.00000  Uiso   1.00
C519   C     0.48529   0.87468   0.04483   0.00000  Uiso   1.00
C520   C     0.49497   0.79627   0.45627   0.00000  Uiso   1.00
C521   C     0.45828   0.86728   0.44924   0.00000  Uiso   1.00
C522   C     0.46528   0.79529   0.04885   0.00000  Uiso   1.00
C523   C     0.49499   0.87470   0.09004   0.00000  Uiso   1.00
C524   C     0.50181   0.79534   0.41071   0.00000  Uiso   1.00
C525   C     0.46497   0.86754   0.40336   0.00000  Uiso   1.00
C526   C     0.47587   0.79375   0.09370   0.00000  Uiso   1.00
C527   C     0.49160   0.83357   0.11498   0.00000  Uiso   1.00
C528   C     0.48824   0.83205   0.38389   0.00000  Uiso   1.00
C529   C     0.47210   0.83478   0.02400   0.00000  Uiso   1.00
C530   C     0.47365   0.83213   0.47562   0.00000  Uiso   1.00
C531   C     0.62416   0.83494   0.25146   0.00000  Uiso   1.00
C532   C     0.37599   0.83185   0.24928   0.00000  Uiso   1.00
H533   H     0.49106   0.90526   0.02533   0.00000  Uiso   1.00
H534   H     0.50749   0.76920   0.47679   0.00000  Uiso   1.00
H535   H     0.44095   0.89450   0.46443   0.00000  Uiso   1.00
H536   H     0.45435   0.76450   0.03259   0.00000  Uiso   1.00
N537   N     0.50993   0.91643   0.10916   0.00000  Uiso   1.00
O538   O     0.54782   0.91915   0.12462   0.00000  Uiso   1.00
O539   O     0.48927   0.95361   0.10264   0.00000  Uiso   1.00
N540   N     0.52305   0.75704   0.39275   0.00000  Uiso   1.00
O541   O     0.50127   0.72531   0.37302   0.00000  Uiso   1.00
O542   O     0.56002   0.74735   0.40780   0.00000  Uiso   1.00
N543   N     0.44664   0.90308   0.37712   0.00000  Uiso   1.00
O544   O     0.42163   0.89288   0.34422   0.00000  Uiso   1.00
O545   O     0.44847   0.94483   0.39111   0.00000  Uiso   1.00
N546   N     0.47124   0.75101   0.11637   0.00000  Uiso   1.00
O547   O     0.50423   0.72708   0.12470   0.00000  Uiso   1.00
O548   O     0.43464   0.73136   0.11815   0.00000  Uiso   1.00
N549   N     0.37704   0.78554   0.31849   0.00000  Uiso   1.00
O550   O     0.37638   0.80145   0.35899   0.00000  Uiso   1.00
O551   O     0.39270   0.74571   0.31135   0.00000  Uiso   1.00
N552   N     0.62344   0.88294   0.18357   0.00000  Uiso   1.00
O553   O     0.62326   0.86767   0.14283   0.00000  Uiso   1.00
O554   O     0.61082   0.92395   0.19130   0.00000  Uiso   1.00
N555   N     0.62229   0.78881   0.32084   0.00000  Uiso   1.00
O556   O     0.62990   0.74704   0.33229   0.00000  Uiso   1.00
O557   O     0.59585   0.81203   0.34405   0.00000  Uiso   1.00
N558   N     0.37778   0.87961   0.18084   0.00000  Uiso   1.00
O559   O     0.37079   0.92203   0.17144   0.00000  Uiso   1.00
O560   O     0.40334   0.85698   0.15599   0.00000  Uiso   1.00
O561   O     0.77226   0.87154   0.25000   0.00000  Uiso   1.00
O562   O     0.89441   0.79513   0.25001   0.00000  Uiso   1.00
O563   O     0.89441   0.87154   0.25001   0.00000  Uiso   1.00
O564   O     0.77226   0.79513   0.25000   0.00000  Uiso   1.00
N565   N     0.83333   0.95240   0.25000   0.00000  Uiso   1.00
N566   N     0.83333   0.71427   0.25000   0.00000  Uiso   1.00
C567   C     0.75341   0.83292   0.24999   0.00000  Uiso   1.00
C568   C     0.91330   0.83375   0.25028   0.00000  Uiso   1.00
O569   O     0.83333   0.87155   0.18453   0.00000  Uiso   1.00
O570   O     0.83334   0.79511   0.31547   0.00000  Uiso   1.00
O571   O     0.83334   0.87155   0.31547   0.00000  Uiso   1.00
O572   O     0.83333   0.79511   0.18453   0.00000  Uiso   1.00
C573   C     0.83242   0.83341   0.16338   0.00000  Uiso   1.00
C574   C     0.83089   0.83306   0.33625   0.00000  Uiso   1.00
Zn575  Zn    0.83333   0.88437   0.25000   0.00000  Uiso   1.00
Zn576  Zn    0.83333   0.78229   0.25000   0.00000  Uiso   1.00
H577   H     0.88628   0.70952   0.29236   0.00000  Uiso   1.00
H578   H     0.78055   0.95715   0.20743   0.00000  Uiso   1.00
H579   H     0.78023   0.70830   0.20791   0.00000  Uiso   1.00
H580   H     0.88619   0.95834   0.29249   0.00000  Uiso   1.00
C581   C     0.86279   0.69101   0.27352   0.00000  Uiso   1.00
C582   C     0.80394   0.97565   0.22638   0.00000  Uiso   1.00
C583   C     0.80384   0.69033   0.22653   0.00000  Uiso   1.00
C584   C     0.86274   0.97632   0.27360   0.00000  Uiso   1.00
C585   C     0.68806   0.80831   0.28346   0.00000  Uiso   1.00
C586   C     0.97887   0.85889   0.21774   0.00000  Uiso   1.00
C587   C     0.97824   0.81026   0.28484   0.00000  Uiso   1.00
C588   C     0.68860   0.85699   0.21627   0.00000  Uiso   1.00
C589   C     0.81862   0.87468   0.04483   0.00000  Uiso   1.00
C590   C     0.82830   0.79627   0.45627   0.00000  Uiso   1.00
C591   C     0.79161   0.86728   0.44924   0.00000  Uiso   1.00
C592   C     0.79862   0.79529   0.04885   0.00000  Uiso   1.00
C593   C     0.82833   0.87470   0.09004   0.00000  Uiso   1.00
C594   C     0.83515   0.79534   0.41071   0.00000  Uiso   1.00
C595   C     0.79830   0.86754   0.40336   0.00000  Uiso   1.00
C596   C     0.80921   0.79375   0.09370   0.00000  Uiso   1.00
C597   C     0.82493   0.83357   0.11498   0.00000  Uiso   1.00
C598   C     0.82158   0.83205   0.38389   0.00000  Uiso   1.00
C599   C     0.80544   0.83478   0.02400   0.00000  Uiso   1.00
C600   C     0.80698   0.83213   0.47562   0.00000  Uiso   1.00
C601   C     0.95749   0.83494   0.25146   0.00000  Uiso   1.00
C602   C     0.70933   0.83185   0.24928   0.00000  Uiso   1.00
H603   H     0.82439   0.90526   0.02533   0.00000  Uiso   1.00
H604   H     0.84082   0.76920   0.47679   0.00000  Uiso   1.00
H605   H     0.77429   0.89450   0.46443   0.00000  Uiso   1.00
H606   H     0.78768   0.76450   0.03259   0.00000  Uiso   1.00
N607   N     0.84327   0.91643   0.10916   0.00000  Uiso   1.00
O608   O     0.88115   0.91915   0.12462   0.00000  Uiso   1.00
O609   O     0.82260   0.95361   0.10264   0.00000  Uiso   1.00
N610   N     0.85638   0.75704   0.39275   0.00000  Uiso   1.00
O611   O     0.83460   0.72531   0.37302   0.00000  Uiso   1.00
O612   O     0.89335   0.74735   0.40780   0.00000  Uiso   1.00
N613   N     0.77997   0.90308   0.37712   0.00000  Uiso   1.00
O614   O     0.75497   0.89288   0.34422   0.00000  Uiso   1.00
O615   O     0.78181   0.94483   0.39111   0.00000  Uiso   1.00
N616   N     0.80458   0.75101   0.11637   0.00000  Uiso   1.00
O617   O     0.83756   0.72708   0.12470   0.00000  Uiso   1.00
O618   O     0.76798   0.73136   0.11815   0.00000  Uiso   1.00
N619   N     0.71038   0.78554   0.31849   0.00000  Uiso   1.00
O620   O     0.70972   0.80145   0.35899   0.00000  Uiso   1.00
O621   O     0.72604   0.74571   0.31135   0.00000  Uiso   1.00
N622   N     0.95677   0.88294   0.18357   0.00000  Uiso   1.00
O623   O     0.95659   0.86767   0.14283   0.00000  Uiso   1.00
O624   O     0.94416   0.92395   0.19130   0.00000  Uiso   1.00
N625   N     0.95563   0.78881   0.32084   0.00000  Uiso   1.00
O626   O     0.96323   0.74704   0.33229   0.00000  Uiso   1.00
O627   O     0.92918   0.81203   0.34405   0.00000  Uiso   1.00
N628   N     0.71112   0.87961   0.18084   0.00000  Uiso   1.00
O629   O     0.70413   0.92203   0.17144   0.00000  Uiso   1.00
O630   O     0.73668   0.85698   0.15599   0.00000  Uiso   1.00
O631   O     0.10559   0.20487   0.75000   0.00000  Uiso   1.00
O632   O     0.22774   0.12846   0.75001   0.00000  Uiso   1.00
O633   O     0.22774   0.20487   0.75001   0.00000  Uiso   1.00
O634   O     0.10559   0.12846   0.75000   0.00000  Uiso   1.00
N635   N     0.16667   0.28573   0.75000   0.00000  Uiso   1.00
N636   N     0.16667   0.04760   0.75000   0.00000  Uiso   1.00
C637   C     0.08675   0.16626   0.74999   0.00000  Uiso   1.00
C638   C     0.24664   0.16708   0.75028   0.00000  Uiso   1.00
O639   O     0.16666   0.20489   0.68453   0.00000  Uiso   1.00
O640   O     0.16667   0.12845   0.81547   0.00000  Uiso   1.00
O641   O     0.16667   0.20489   0.81547   0.00000  Uiso   1.00
O642   O     0.16666   0.12845   0.68453   0.00000  Uiso   1.00
C643   C     0.16575   0.16675   0.66338   0.00000  Uiso   1.00
C644   C     0.16422   0.16639   0.83625   0.00000  Uiso   1.00
Zn645  Zn    0.16667   0.21771   0.75000   0.00000  Uiso   1.00
Zn646  Zn    0.16667   0.11563   0.75000   0.00000  Uiso   1.00
H647   H     0.21962   0.04285   0.79236   0.00000  Uiso   1.00
H648   H     0.11388   0.29048   0.70743   0.00000  Uiso   1.00
H649   H     0.11356   0.04163   0.70791   0.00000  Uiso   1.00
H650   H     0.21953   0.29167   0.79249   0.00000  Uiso   1.00
C651   C     0.19613   0.02434   0.77352   0.00000  Uiso   1.00
C652   C     0.13728   0.30899   0.72638   0.00000  Uiso   1.00
C653   C     0.13718   0.02366   0.72653   0.00000  Uiso   1.00
C654   C     0.19608   0.30965   0.77360   0.00000  Uiso   1.00
C655   C     0.02140   0.14164   0.78346   0.00000  Uiso   1.00
C656   C     0.31221   0.19222   0.71774   0.00000  Uiso   1.00
C657   C     0.31157   0.14359   0.78484   0.00000  Uiso   1.00
C658   C     0.02193   0.19033   0.71627   0.00000  Uiso   1.00
C659   C     0.15195   0.20801   0.54483   0.00000  Uiso   1.00
C660   C     0.16163   0.12960   0.95627   0.00000  Uiso   1.00
C661   C     0.12494   0.20061   0.94924   0.00000  Uiso   1.00
C662   C     0.13195   0.12863   0.54885   0.00000  Uiso   1.00
C663   C     0.16166   0.20804   0.59004   0.00000  Uiso   1.00
C664   C     0.16848   0.12867   0.91071   0.00000  Uiso   1.00
C665   C     0.13164   0.20087   0.90336   0.00000  Uiso   1.00
C666   C     0.14254   0.12709   0.59370   0.00000  Uiso   1.00
C667   C     0.15826   0.16691   0.61498   0.00000  Uiso   1.00
C668   C     0.15491   0.16539   0.88389   0.00000  Uiso   1.00
C669   C     0.13877   0.16811   0.52400   0.00000  Uiso   1.00
C670   C     0.14032   0.16547   0.97562   0.00000  Uiso   1.00
C671   C     0.29083   0.16827   0.75146   0.00000  Uiso   1.00
C672   C     0.04266   0.16518   0.74928   0.00000  Uiso   1.00
H673   H     0.15772   0.23860   0.52533   0.00000  Uiso   1.00
H674   H     0.17416   0.10254   0.97679   0.00000  Uiso   1.00
H675   H     0.10762   0.22784   0.96443   0.00000  Uiso   1.00
H676   H     0.12102   0.09783   0.53259   0.00000  Uiso   1.00
N677   N     0.17660   0.24976   0.60916   0.00000  Uiso   1.00
O678   O     0.21449   0.25248   0.62462   0.00000  Uiso   1.00
O679   O     0.15593   0.28694   0.60264   0.00000  Uiso   1.00
N680   N     0.18972   0.09037   0.89275   0.00000  Uiso   1.00
O681   O     0.16793   0.05864   0.87302   0.00000  Uiso   1.00
O682   O     0.22669   0.08068   0.90780   0.00000  Uiso   1.00
N683   N     0.11331   0.23641   0.87712   0.00000  Uiso   1.00
O684   O     0.08830   0.22622   0.84422   0.00000  Uiso   1.00
O685   O     0.11514   0.27817   0.89111   0.00000  Uiso   1.00
N686   N     0.13791   0.08434   0.61637   0.00000  Uiso   1.00
O687   O     0.17090   0.06042   0.62470   0.00000  Uiso   1.00
O688   O     0.10131   0.06469   0.61815   0.00000  Uiso   1.00
N689   N     0.04371   0.11887   0.81849   0.00000  Uiso   1.00
O690   O     0.04305   0.13478   0.85899   0.00000  Uiso   1.00
O691   O     0.05937   0.07905   0.81135   0.00000  Uiso   1.00
N692   N     0.29011   0.21628   0.68357   0.00000  Uiso   1.00
O693   O     0.28993   0.20100   0.64283   0.00000  Uiso   1.00
O694   O     0.27749   0.25728   0.69130   0.00000  Uiso   1.00
N695   N     0.28896   0.12214   0.82084   0.00000  Uiso   1.00
O696   O     0.29657   0.08037   0.83229   0.00000  Uiso   1.00
O697   O     0.26252   0.14537   0.84405   0.00000  Uiso   1.00
N698   N     0.04445   0.21295   0.68084   0.00000  Uiso   1.00
O699   O     0.03746   0.25536   0.67144   0.00000  Uiso   1.00
O700   O     0.07001   0.19031   0.65599   0.00000  Uiso   1.00
O701   O     0.43892   0.20487   0.75000   0.00000  Uiso   1.00
O702   O     0.56108   0.12846   0.75001   0.00000  Uiso   1.00
O703   O     0.56108   0.20487   0.75001   0.00000  Uiso   1.00
O704   O     0.43892   0.12846   0.75000   0.00000  Uiso   1.00
N705   N     0.50000   0.28573   0.75000   0.00000  Uiso   1.00
N706   N     0.50000   0.04760   0.75000   0.00000  Uiso   1.00
C707   C     0.42008   0.16626   0.74999   0.00000  Uiso   1.00
C708   C     0.57997   0.16708   0.75028   0.00000  Uiso   1.00
O709   O     0.50000   0.20489   0.68453   0.00000  Uiso   1.00
O710   O     0.50000   0.12845   0.81547   0.00000  Uiso   1.00
O711   O     0.50000   0.20489   0.81547   0.00000  Uiso   1.00
O712   O     0.50000   0.12845   0.68453   0.00000  Uiso   1.00
C713   C     0.49908   0.16675   0.66338   0.00000  Uiso   1.00
C714   C     0.49755   0.16639   0.83625   0.00000  Uiso   1.00
Zn715  Zn    0.50000   0.21771   0.75000   0.00000  Uiso   1.00
Zn716  Zn    0.50000   0.11563   0.75000   0.00000  Uiso   1.00
H717   H     0.55295   0.04285   0.79236   0.00000  Uiso   1.00
H718   H     0.44721   0.29048   0.70743   0.00000  Uiso   1.00
H719   H     0.44689   0.04163   0.70791   0.00000  Uiso   1.00
H720   H     0.55286   0.29167   0.79249   0.00000  Uiso   1.00
C721   C     0.52946   0.02434   0.77352   0.00000  Uiso   1.00
C722   C     0.47061   0.30899   0.72638   0.00000  Uiso   1.00
C723   C     0.47051   0.02366   0.72653   0.00000  Uiso   1.00
C724   C     0.52941   0.30965   0.77360   0.00000  Uiso   1.00
C725   C     0.35473   0.14164   0.78346   0.00000  Uiso   1.00
C726   C     0.64554   0.19222   0.71774   0.00000  Uiso   1.00
C727   C     0.64490   0.14359   0.78484   0.00000  Uiso   1.00
C728   C     0.35527   0.19033   0.71627   0.00000  Uiso   1.00
C729   C     0.48529   0.20801   0.54483   0.00000  Uiso   1.00
C730   C     0.49497   0.12960   0.95627   0.00000  Uiso   1.00
C731   C     0.45828   0.20061   0.94924   0.00000  Uiso   1.00
C732   C     0.46528   0.12863   0.54885   0.00000  Uiso   1.00
C733   C     0.49499   0.20804   0.59004   0.00000  Uiso   1.00
C734   C     0.50181   0.12867   0.91071   0.00000  Uiso   1.00
C735   C     0.46497   0.20087   0.90336   0.00000  Uiso   1.00
C736   C     0.47587   0.12709   0.59370   0.00000  Uiso   1.00
C737   C     0.49160   0.16691   0.61498   0.00000  Uiso   1.00
C738   C     0.48824   0.16539   0.88389   0.00000  Uiso   1.00
C739   C     0.47210   0.16811   0.52400   0.00000  Uiso   1.00
C740   C     0.47365   0.16547   0.97562   0.00000  Uiso   1.00
C741   C     0.62416   0.16827   0.75146   0.00000  Uiso   1.00
C742   C     0.37599   0.16518   0.74928   0.00000  Uiso   1.00
H743   H     0.49106   0.23860   0.52533   0.00000  Uiso   1.00
H744   H     0.50749   0.10254   0.97679   0.00000  Uiso   1.00
H745   H     0.44095   0.22784   0.96443   0.00000  Uiso   1.00
H746   H     0.45435   0.09783   0.53259   0.00000  Uiso   1.00
N747   N     0.50993   0.24976   0.60916   0.00000  Uiso   1.00
O748   O     0.54782   0.25248   0.62462   0.00000  Uiso   1.00
O749   O     0.48927   0.28694   0.60264   0.00000  Uiso   1.00
N750   N     0.52305   0.09037   0.89275   0.00000  Uiso   1.00
O751   O     0.50127   0.05864   0.87302   0.00000  Uiso   1.00
O752   O     0.56002   0.08068   0.90780   0.00000  Uiso   1.00
N753   N     0.44664   0.23641   0.87712   0.00000  Uiso   1.00
O754   O     0.42163   0.22622   0.84422   0.00000  Uiso   1.00
O755   O     0.44847   0.27817   0.89111   0.00000  Uiso   1.00
N756   N     0.47124   0.08434   0.61637   0.00000  Uiso   1.00
O757   O     0.50423   0.06042   0.62470   0.00000  Uiso   1.00
O758   O     0.43464   0.06469   0.61815   0.00000  Uiso   1.00
N759   N     0.37704   0.11887   0.81849   0.00000  Uiso   1.00
O760   O     0.37638   0.13478   0.85899   0.00000  Uiso   1.00
O761   O     0.39270   0.07905   0.81135   0.00000  Uiso   1.00
N762   N     0.62344   0.21628   0.68357   0.00000  Uiso   1.00
O763   O     0.62326   0.20100   0.64283   0.00000  Uiso   1.00
O764   O     0.61082   0.25728   0.69130   0.00000  Uiso   1.00
N765   N     0.62229   0.12214   0.82084   0.00000  Uiso   1.00
O766   O     0.62990   0.08037   0.83229   0.00000  Uiso   1.00
O767   O     0.59585   0.14537   0.84405   0.00000  Uiso   1.00
N768   N     0.37778   0.21295   0.68084   0.00000  Uiso   1.00
O769   O     0.37079   0.25536   0.67144   0.00000  Uiso   1.00
O770   O     0.40334   0.19031   0.65599   0.00000  Uiso   1.00
O771   O     0.77226   0.20487   0.75000   0.00000  Uiso   1.00
O772   O     0.89441   0.12846   0.75001   0.00000  Uiso   1.00
O773   O     0.89441   0.20487   0.75001   0.00000  Uiso   1.00
O774   O     0.77226   0.12846   0.75000   0.00000  Uiso   1.00
N775   N     0.83333   0.28573   0.75000   0.00000  Uiso   1.00
N776   N     0.83333   0.04760   0.75000   0.00000  Uiso   1.00
C777   C     0.75341   0.16626   0.74999   0.00000  Uiso   1.00
C778   C     0.91330   0.16708   0.75028   0.00000  Uiso   1.00
O779   O     0.83333   0.20489   0.68453   0.00000  Uiso   1.00
O780   O     0.83334   0.12845   0.81547   0.00000  Uiso   1.00
O781   O     0.83334   0.20489   0.81547   0.00000  Uiso   1.00
O782   O     0.83333   0.12845   0.68453   0.00000  Uiso   1.00
C783   C     0.83242   0.16675   0.66338   0.00000  Uiso   1.00
C784   C     0.83089   0.16639   0.83625   0.00000  Uiso   1.00
Zn785  Zn    0.83333   0.21771   0.75000   0.00000  Uiso   1.00
Zn786  Zn    0.83333   0.11563   0.75000   0.00000  Uiso   1.00
H787   H     0.88628   0.04285   0.79236   0.00000  Uiso   1.00
H788   H     0.78055   0.29048   0.70743   0.00000  Uiso   1.00
H789   H     0.78023   0.04163   0.70791   0.00000  Uiso   1.00
H790   H     0.88619   0.29167   0.79249   0.00000  Uiso   1.00
C791   C     0.86279   0.02434   0.77352   0.00000  Uiso   1.00
C792   C     0.80394   0.30899   0.72638   0.00000  Uiso   1.00
C793   C     0.80384   0.02366   0.72653   0.00000  Uiso   1.00
C794   C     0.86274   0.30965   0.77360   0.00000  Uiso   1.00
C795   C     0.68806   0.14164   0.78346   0.00000  Uiso   1.00
C796   C     0.97887   0.19222   0.71774   0.00000  Uiso   1.00
C797   C     0.97824   0.14359   0.78484   0.00000  Uiso   1.00
C798   C     0.68860   0.19033   0.71627   0.00000  Uiso   1.00
C799   C     0.81862   0.20801   0.54483   0.00000  Uiso   1.00
C800   C     0.82830   0.12960   0.95627   0.00000  Uiso   1.00
C801   C     0.79161   0.20061   0.94924   0.00000  Uiso   1.00
C802   C     0.79862   0.12863   0.54885   0.00000  Uiso   1.00
C803   C     0.82833   0.20804   0.59004   0.00000  Uiso   1.00
C804   C     0.83515   0.12867   0.91071   0.00000  Uiso   1.00
C805   C     0.79830   0.20087   0.90336   0.00000  Uiso   1.00
C806   C     0.80921   0.12709   0.59370   0.00000  Uiso   1.00
C807   C     0.82493   0.16691   0.61498   0.00000  Uiso   1.00
C808   C     0.82158   0.16539   0.88389   0.00000  Uiso   1.00
C809   C     0.80544   0.16811   0.52400   0.00000  Uiso   1.00
C810   C     0.80698   0.16547   0.97562   0.00000  Uiso   1.00
C811   C     0.95749   0.16827   0.75146   0.00000  Uiso   1.00
C812   C     0.70933   0.16518   0.74928   0.00000  Uiso   1.00
H813   H     0.82439   0.23860   0.52533   0.00000  Uiso   1.00
H814   H     0.84082   0.10254   0.97679   0.00000  Uiso   1.00
H815   H     0.77429   0.22784   0.96443   0.00000  Uiso   1.00
H816   H     0.78768   0.09783   0.53259   0.00000  Uiso   1.00
N817   N     0.84327   0.24976   0.60916   0.00000  Uiso   1.00
O818   O     0.88115   0.25248   0.62462   0.00000  Uiso   1.00
O819   O     0.82260   0.28694   0.60264   0.00000  Uiso   1.00
N820   N     0.85638   0.09037   0.89275   0.00000  Uiso   1.00
O821   O     0.83460   0.05864   0.87302   0.00000  Uiso   1.00
O822   O     0.89335   0.08068   0.90780   0.00000  Uiso   1.00
N823   N     0.77997   0.23641   0.87712   0.00000  Uiso   1.00
O824   O     0.75497   0.22622   0.84422   0.00000  Uiso   1.00
O825   O     0.78181   0.27817   0.89111   0.00000  Uiso   1.00
N826   N     0.80458   0.08434   0.61637   0.00000  Uiso   1.00
O827   O     0.83756   0.06042   0.62470   0.00000  Uiso   1.00
O828   O     0.76798   0.06469   0.61815   0.00000  Uiso   1.00
N829   N     0.71038   0.11887   0.81849   0.00000  Uiso   1.00
O830   O     0.70972   0.13478   0.85899   0.00000  Uiso   1.00
O831   O     0.72604   0.07905   0.81135   0.00000  Uiso   1.00
N832   N     0.95677   0.21628   0.68357   0.00000  Uiso   1.00
O833   O     0.95659   0.20100   0.64283   0.00000  Uiso   1.00
O834   O     0.94416   0.25728   0.69130   0.00000  Uiso   1.00
N835   N     0.95563   0.12214   0.82084   0.00000  Uiso   1.00
O836   O     0.96323   0.08037   0.83229   0.00000  Uiso   1.00
O837   O     0.92918   0.14537   0.84405   0.00000  Uiso   1.00
N838   N     0.71112   0.21295   0.68084   0.00000  Uiso   1.00
O839   O     0.70413   0.25536   0.67144   0.00000  Uiso   1.00
O840   O     0.73668   0.19031   0.65599   0.00000  Uiso   1.00
O841   O     0.10559   0.53821   0.75000   0.00000  Uiso   1.00
O842   O     0.22774   0.46179   0.75001   0.00000  Uiso   1.00
O843   O     0.22774   0.53821   0.75001   0.00000  Uiso   1.00
O844   O     0.10559   0.46179   0.75000   0.00000  Uiso   1.00
N845   N     0.16667   0.61907   0.75000   0.00000  Uiso   1.00
N846   N     0.16667   0.38093   0.75000   0.00000  Uiso   1.00
C847   C     0.08675   0.49959   0.74999   0.00000  Uiso   1.00
C848   C     0.24664   0.50041   0.75028   0.00000  Uiso   1.00
O849   O     0.16666   0.53822   0.68453   0.00000  Uiso   1.00
O850   O     0.16667   0.46178   0.81547   0.00000  Uiso   1.00
O851   O     0.16667   0.53822   0.81547   0.00000  Uiso   1.00
O852   O     0.16666   0.46178   0.68453   0.00000  Uiso   1.00
C853   C     0.16575   0.50008   0.66338   0.00000  Uiso   1.00
C854   C     0.16422   0.49973   0.83625   0.00000  Uiso   1.00
Zn855  Zn    0.16667   0.55104   0.75000   0.00000  Uiso   1.00
Zn856  Zn    0.16667   0.44896   0.75000   0.00000  Uiso   1.00
H857   H     0.21962   0.37618   0.79236   0.00000  Uiso   1.00
H858   H     0.11388   0.62381   0.70743   0.00000  Uiso   1.00
H859   H     0.11356   0.37497   0.70791   0.00000  Uiso   1.00
H860   H     0.21953   0.62501   0.79249   0.00000  Uiso   1.00
C861   C     0.19613   0.35768   0.77352   0.00000  Uiso   1.00
C862   C     0.13728   0.64232   0.72638   0.00000  Uiso   1.00
C863   C     0.13718   0.35700   0.72653   0.00000  Uiso   1.00
C864   C     0.19608   0.64299   0.77360   0.00000  Uiso   1.00
C865   C     0.02140   0.47498   0.78346   0.00000  Uiso   1.00
C866   C     0.31221   0.52556   0.71774   0.00000  Uiso   1.00
C867   C     0.31157   0.47693   0.78484   0.00000  Uiso   1.00
C868   C     0.02193   0.52366   0.71627   0.00000  Uiso   1.00
C869   C     0.15195   0.54134   0.54483   0.00000  Uiso   1.00
C870   C     0.16163   0.46293   0.95627   0.00000  Uiso   1.00
C871   C     0.12494   0.53395   0.94924   0.00000  Uiso   1.00
C872   C     0.13195   0.46196   0.54885   0.00000  Uiso   1.00
C873   C     0.16166   0.54137   0.59004   0.00000  Uiso   1.00
C874   C     0.16848   0.46201   0.91071   0.00000  Uiso   1.00
C875   C     0.13164   0.53420   0.90336   0.00000  Uiso   1.00
C876   C     0.14254   0.46042   0.59370   0.00000  Uiso   1.00
C877   C     0.15826   0.50024   0.61498   0.00000  Uiso   1.00
C878   C     0.15491   0.49872   0.88389   0.00000  Uiso   1.00
C879   C     0.13877   0.50145   0.52400   0.00000  Uiso   1.00
C880   C     0.14032   0.49880   0.97562   0.00000  Uiso   1.00
C881   C     0.29083   0.50161   0.75146   0.00000  Uiso   1.00
C882   C     0.04266   0.49851   0.74928   0.00000  Uiso   1.00
H883   H     0.15772   0.57193   0.52533   0.00000  Uiso   1.00
H884   H     0.17416   0.43587   0.97679   0.00000  Uiso   1.00
H885   H     0.10762   0.56117   0.96443   0.00000  Uiso   1.00
H886   H     0.12102   0.43116   0.53259   0.00000  Uiso   1.00
N887   N     0.17660   0.58310   0.60916   0.00000  Uiso   1.00
O888   O     0.21449   0.58581   0.62462   0.00000  Uiso   1.00
O889   O     0.15593   0.62028   0.60264   0.00000  Uiso   1.00
N890   N     0.18972   0.42370   0.89275   0.00000  Uiso   1.00
O891   O     0.16793   0.39197   0.87302   0.00000  Uiso   1.00
O892   O     0.22669   0.41402   0.90780   0.00000  Uiso   1.00
N893   N     0.11331   0.56975   0.87712   0.00000  Uiso   1.00
O894   O     0.08830   0.55955   0.84422   0.00000  Uiso   1.00
O895   O     0.11514   0.61150   0.89111   0.00000  Uiso   1.00
N896   N     0.13791   0.41767   0.61637   0.00000  Uiso   1.00
O897   O     0.17090   0.39375   0.62470   0.00000  Uiso   1.00
O898   O     0.10131   0.39803   0.61815   0.00000  Uiso   1.00
N899   N     0.04371   0.45220   0.81849   0.00000  Uiso   1.00
O900   O     0.04305   0.46812   0.85899   0.00000  Uiso   1.00
O901   O     0.05937   0.41238   0.81135   0.00000  Uiso   1.00
N902   N     0.29011   0.54961   0.68357   0.00000  Uiso   1.00
O903   O     0.28993   0.53434   0.64283   0.00000  Uiso   1.00
O904   O     0.27749   0.59061   0.69130   0.00000  Uiso   1.00
N905   N     0.28896   0.45548   0.82084   0.00000  Uiso   1.00
O906   O     0.29657   0.41371   0.83229   0.00000  Uiso   1.00
O907   O     0.26252   0.47870   0.84405   0.00000  Uiso   1.00
N908   N     0.04445   0.54628   0.68084   0.00000  Uiso   1.00
O909   O     0.03746   0.58869   0.67144   0.00000  Uiso   1.00
O910   O     0.07001   0.52365   0.65599   0.00000  Uiso   1.00
O911   O     0.43892   0.53821   0.75000   0.00000  Uiso   1.00
O912   O     0.56108   0.46179   0.75001   0.00000  Uiso   1.00
O913   O     0.56108   0.53821   0.75001   0.00000  Uiso   1.00
O914   O     0.43892   0.46179   0.75000   0.00000  Uiso   1.00
N915   N     0.50000   0.61907   0.75000   0.00000  Uiso   1.00
N916   N     0.50000   0.38093   0.75000   0.00000  Uiso   1.00
C917   C     0.42008   0.49959   0.74999   0.00000  Uiso   1.00
C918   C     0.57997   0.50041   0.75028   0.00000  Uiso   1.00
O919   O     0.50000   0.53822   0.68453   0.00000  Uiso   1.00
O920   O     0.50000   0.46178   0.81547   0.00000  Uiso   1.00
O921   O     0.50000   0.53822   0.81547   0.00000  Uiso   1.00
O922   O     0.50000   0.46178   0.68453   0.00000  Uiso   1.00
C923   C     0.49908   0.50008   0.66338   0.00000  Uiso   1.00
C924   C     0.49755   0.49973   0.83625   0.00000  Uiso   1.00
Zn925  Zn    0.50000   0.55104   0.75000   0.00000  Uiso   1.00
Zn926  Zn    0.50000   0.44896   0.75000   0.00000  Uiso   1.00
H927   H     0.55295   0.37618   0.79236   0.00000  Uiso   1.00
H928   H     0.44721   0.62381   0.70743   0.00000  Uiso   1.00
H929   H     0.44689   0.37497   0.70791   0.00000  Uiso   1.00
H930   H     0.55286   0.62501   0.79249   0.00000  Uiso   1.00
C931   C     0.52946   0.35768   0.77352   0.00000  Uiso   1.00
C932   C     0.47061   0.64232   0.72638   0.00000  Uiso   1.00
C933   C     0.47051   0.35700   0.72653   0.00000  Uiso   1.00
C934   C     0.52941   0.64299   0.77360   0.00000  Uiso   1.00
C935   C     0.35473   0.47498   0.78346   0.00000  Uiso   1.00
C936   C     0.64554   0.52556   0.71774   0.00000  Uiso   1.00
C937   C     0.64490   0.47693   0.78484   0.00000  Uiso   1.00
C938   C     0.35527   0.52366   0.71627   0.00000  Uiso   1.00
C939   C     0.48529   0.54134   0.54483   0.00000  Uiso   1.00
C940   C     0.49497   0.46293   0.95627   0.00000  Uiso   1.00
C941   C     0.45828   0.53395   0.94924   0.00000  Uiso   1.00
C942   C     0.46528   0.46196   0.54885   0.00000  Uiso   1.00
C943   C     0.49499   0.54137   0.59004   0.00000  Uiso   1.00
C944   C     0.50181   0.46201   0.91071   0.00000  Uiso   1.00
C945   C     0.46497   0.53420   0.90336   0.00000  Uiso   1.00
C946   C     0.47587   0.46042   0.59370   0.00000  Uiso   1.00
C947   C     0.49160   0.50024   0.61498   0.00000  Uiso   1.00
C948   C     0.48824   0.49872   0.88389   0.00000  Uiso   1.00
C949   C     0.47210   0.50145   0.52400   0.00000  Uiso   1.00
C950   C     0.47365   0.49880   0.97562   0.00000  Uiso   1.00
C951   C     0.62416   0.50161   0.75146   0.00000  Uiso   1.00
C952   C     0.37599   0.49851   0.74928   0.00000  Uiso   1.00
H953   H     0.49106   0.57193   0.52533   0.00000  Uiso   1.00
H954   H     0.50749   0.43587   0.97679   0.00000  Uiso   1.00
H955   H     0.44095   0.56117   0.96443   0.00000  Uiso   1.00
H956   H     0.45435   0.43116   0.53259   0.00000  Uiso   1.00
N957   N     0.50993   0.58310   0.60916   0.00000  Uiso   1.00
O958   O     0.54782   0.58581   0.62462   0.00000  Uiso   1.00
O959   O     0.48927   0.62028   0.60264   0.00000  Uiso   1.00
N960   N     0.52305   0.42370   0.89275   0.00000  Uiso   1.00
O961   O     0.50127   0.39197   0.87302   0.00000  Uiso   1.00
O962   O     0.56002   0.41402   0.90780   0.00000  Uiso   1.00
N963   N     0.44664   0.56975   0.87712   0.00000  Uiso   1.00
O964   O     0.42163   0.55955   0.84422   0.00000  Uiso   1.00
O965   O     0.44847   0.61150   0.89111   0.00000  Uiso   1.00
N966   N     0.47124   0.41767   0.61637   0.00000  Uiso   1.00
O967   O     0.50423   0.39375   0.62470   0.00000  Uiso   1.00
O968   O     0.43464   0.39803   0.61815   0.00000  Uiso   1.00
N969   N     0.37704   0.45220   0.81849   0.00000  Uiso   1.00
O970   O     0.37638   0.46812   0.85899   0.00000  Uiso   1.00
O971   O     0.39270   0.41238   0.81135   0.00000  Uiso   1.00
N972   N     0.62344   0.54961   0.68357   0.00000  Uiso   1.00
O973   O     0.62326   0.53434   0.64283   0.00000  Uiso   1.00
O974   O     0.61082   0.59061   0.69130   0.00000  Uiso   1.00
N975   N     0.62229   0.45548   0.82084   0.00000  Uiso   1.00
O976   O     0.62990   0.41371   0.83229   0.00000  Uiso   1.00
O977   O     0.59585   0.47870   0.84405   0.00000  Uiso   1.00
N978   N     0.37778   0.54628   0.68084   0.00000  Uiso   1.00
O979   O     0.37079   0.58869   0.67144   0.00000  Uiso   1.00
O980   O     0.40334   0.52365   0.65599   0.00000  Uiso   1.00
O981   O     0.77226   0.53821   0.75000   0.00000  Uiso   1.00
O982   O     0.89441   0.46179   0.75001   0.00000  Uiso   1.00
O983   O     0.89441   0.53821   0.75001   0.00000  Uiso   1.00
O984   O     0.77226   0.46179   0.75000   0.00000  Uiso   1.00
N985   N     0.83333   0.61907   0.75000   0.00000  Uiso   1.00
N986   N     0.83333   0.38093   0.75000   0.00000  Uiso   1.00
C987   C     0.75341   0.49959   0.74999   0.00000  Uiso   1.00
C988   C     0.91330   0.50041   0.75028   0.00000  Uiso   1.00
O989   O     0.83333   0.53822   0.68453   0.00000  Uiso   1.00
O990   O     0.83334   0.46178   0.81547   0.00000  Uiso   1.00
O991   O     0.83334   0.53822   0.81547   0.00000  Uiso   1.00
O992   O     0.83333   0.46178   0.68453   0.00000  Uiso   1.00
C993   C     0.83242   0.50008   0.66338   0.00000  Uiso   1.00
C994   C     0.83089   0.49973   0.83625   0.00000  Uiso   1.00
Zn995  Zn    0.83333   0.55104   0.75000   0.00000  Uiso   1.00
Zn996  Zn    0.83333   0.44896   0.75000   0.00000  Uiso   1.00
H997   H     0.88628   0.37618   0.79236   0.00000  Uiso   1.00
H998   H     0.78055   0.62381   0.70743   0.00000  Uiso   1.00
H999   H     0.78023   0.37497   0.70791   0.00000  Uiso   1.00
H1000  H     0.88619   0.62501   0.79249   0.00000  Uiso   1.00
C1001  C     0.86279   0.35768   0.77352   0.00000  Uiso   1.00
C1002  C     0.80394   0.64232   0.72638   0.00000  Uiso   1.00
C1003  C     0.80384   0.35700   0.72653   0.00000  Uiso   1.00
C1004  C     0.86274   0.64299   0.77360   0.00000  Uiso   1.00
C1005  C     0.68806   0.47498   0.78346   0.00000  Uiso   1.00
C1006  C     0.97887   0.52556   0.71774   0.00000  Uiso   1.00
C1007  C     0.97824   0.47693   0.78484   0.00000  Uiso   1.00
C1008  C     0.68860   0.52366   0.71627   0.00000  Uiso   1.00
C1009  C     0.81862   0.54134   0.54483   0.00000  Uiso   1.00
C1010  C     0.82830   0.46293   0.95627   0.00000  Uiso   1.00
C1011  C     0.79161   0.53395   0.94924   0.00000  Uiso   1.00
C1012  C     0.79862   0.46196   0.54885   0.00000  Uiso   1.00
C1013  C     0.82833   0.54137   0.59004   0.00000  Uiso   1.00
C1014  C     0.83515   0.46201   0.91071   0.00000  Uiso   1.00
C1015  C     0.79830   0.53420   0.90336   0.00000  Uiso   1.00
C1016  C     0.80921   0.46042   0.59370   0.00000  Uiso   1.00
C1017  C     0.82493   0.50024   0.61498   0.00000  Uiso   1.00
C1018  C     0.82158   0.49872   0.88389   0.00000  Uiso   1.00
C1019  C     0.80544   0.50145   0.52400   0.00000  Uiso   1.00
C1020  C     0.80698   0.49880   0.97562   0.00000  Uiso   1.00
C1021  C     0.95749   0.50161   0.75146   0.00000  Uiso   1.00
C1022  C     0.70933   0.49851   0.74928   0.00000  Uiso   1.00
H1023  H     0.82439   0.57193   0.52533   0.00000  Uiso   1.00
H1024  H     0.84082   0.43587   0.97679   0.00000  Uiso   1.00
H1025  H     0.77429   0.56117   0.96443   0.00000  Uiso   1.00
H1026  H     0.78768   0.43116   0.53259   0.00000  Uiso   1.00
N1027  N     0.84327   0.58310   0.60916   0.00000  Uiso   1.00
O1028  O     0.88115   0.58581   0.62462   0.00000  Uiso   1.00
O1029  O     0.82260   0.62028   0.60264   0.00000  Uiso   1.00
N1030  N     0.85638   0.42370   0.89275   0.00000  Uiso   1.00
O1031  O     0.83460   0.39197   0.87302   0.00000  Uiso   1.00
O1032  O     0.89335   0.41402   0.90780   0.00000  Uiso   1.00
N1033  N     0.77997   0.56975   0.87712   0.00000  Uiso   1.00
O1034  O     0.75497   0.55955   0.84422   0.00000  Uiso   1.00
O1035  O     0.78181   0.61150   0.89111   0.00000  Uiso   1.00
N1036  N     0.80458   0.41767   0.61637   0.00000  Uiso   1.00
O1037  O     0.83756   0.39375   0.62470   0.00000  Uiso   1.00
O1038  O     0.76798   0.39803   0.61815   0.00000  Uiso   1.00
N1039  N     0.71038   0.45220   0.81849   0.00000  Uiso   1.00
O1040  O     0.70972   0.46812   0.85899   0.00000  Uiso   1.00
O1041  O     0.72604   0.41238   0.81135   0.00000  Uiso   1.00
N1042  N     0.95677   0.54961   0.68357   0.00000  Uiso   1.00
O1043  O     0.95659   0.53434   0.64283   0.00000  Uiso   1.00
O1044  O     0.94416   0.59061   0.69130   0.00000  Uiso   1.00
N1045  N     0.95563   0.45548   0.82084   0.00000  Uiso   1.00
O1046  O     0.96323   0.41371   0.83229   0.00000  Uiso   1.00
O1047  O     0.92918   0.47870   0.84405   0.00000  Uiso   1.00
N1048  N     0.71112   0.54628   0.68084   0.00000  Uiso   1.00
O1049  O     0.70413   0.58869   0.67144   0.00000  Uiso   1.00
O1050  O     0.73668   0.52365   0.65599   0.00000  Uiso   1.00
O1051  O     0.10559   0.87154   0.75000   0.00000  Uiso   1.00
O1052  O     0.22774   0.79513   0.75001   0.00000  Uiso   1.00
O1053  O     0.22774   0.87154   0.75001   0.00000  Uiso   1.00
O1054  O     0.10559   0.79513   0.75000   0.00000  Uiso   1.00
N1055  N     0.16667   0.95240   0.75000   0.00000  Uiso   1.00
N1056  N     0.16667   0.71427   0.75000   0.00000  Uiso   1.00
C1057  C     0.08675   0.83292   0.74999   0.00000  Uiso   1.00
C1058  C     0.24664   0.83375   0.75028   0.00000  Uiso   1.00
O1059  O     0.16666   0.87155   0.68453   0.00000  Uiso   1.00
O1060  O     0.16667   0.79511   0.81547   0.00000  Uiso   1.00
O1061  O     0.16667   0.87155   0.81547   0.00000  Uiso   1.00
O1062  O     0.16666   0.79511   0.68453   0.00000  Uiso   1.00
C1063  C     0.16575   0.83341   0.66338   0.00000  Uiso   1.00
C1064  C     0.16422   0.83306   0.83625   0.00000  Uiso   1.00
Zn1065 Zn    0.16667   0.88437   0.75000   0.00000  Uiso   1.00
Zn1066 Zn    0.16667   0.78229   0.75000   0.00000  Uiso   1.00
H1067  H     0.21962   0.70952   0.79236   0.00000  Uiso   1.00
H1068  H     0.11388   0.95715   0.70743   0.00000  Uiso   1.00
H1069  H     0.11356   0.70830   0.70791   0.00000  Uiso   1.00
H1070  H     0.21953   0.95834   0.79249   0.00000  Uiso   1.00
C1071  C     0.19613   0.69101   0.77352   0.00000  Uiso   1.00
C1072  C     0.13728   0.97565   0.72638   0.00000  Uiso   1.00
C1073  C     0.13718   0.69033   0.72653   0.00000  Uiso   1.00
C1074  C     0.19608   0.97632   0.77360   0.00000  Uiso   1.00
C1075  C     0.02140   0.80831   0.78346   0.00000  Uiso   1.00
C1076  C     0.31221   0.85889   0.71774   0.00000  Uiso   1.00
C1077  C     0.31157   0.81026   0.78484   0.00000  Uiso   1.00
C1078  C     0.02193   0.85699   0.71627   0.00000  Uiso   1.00
C1079  C     0.15195   0.87468   0.54483   0.00000  Uiso   1.00
C1080  C     0.16163   0.79627   0.95627   0.00000  Uiso   1.00
C1081  C     0.12494   0.86728   0.94924   0.00000  Uiso   1.00
C1082  C     0.13195   0.79529   0.54885   0.00000  Uiso   1.00
C1083  C     0.16166   0.87470   0.59004   0.00000  Uiso   1.00
C1084  C     0.16848   0.79534   0.91071   0.00000  Uiso   1.00
C1085  C     0.13164   0.86754   0.90336   0.00000  Uiso   1.00
C1086  C     0.14254   0.79375   0.59370   0.00000  Uiso   1.00
C1087  C     0.15826   0.83357   0.61498   0.00000  Uiso   1.00
C1088  C     0.15491   0.83205   0.88389   0.00000  Uiso   1.00
C1089  C     0.13877   0.83478   0.52400   0.00000  Uiso   1.00
C1090  C     0.14032   0.83213   0.97562   0.00000  Uiso   1.00
C1091  C     0.29083   0.83494   0.75146   0.00000  Uiso   1.00
C1092  C     0.04266   0.83185   0.74928   0.00000  Uiso   1.00
H1093  H     0.15772   0.90526   0.52533   0.00000  Uiso   1.00
H1094  H     0.17416   0.76920   0.97679   0.00000  Uiso   1.00
H1095  H     0.10762   0.89450   0.96443   0.00000  Uiso   1.00
H1096  H     0.12102   0.76450   0.53259   0.00000  Uiso   1.00
N1097  N     0.17660   0.91643   0.60916   0.00000  Uiso   1.00
O1098  O     0.21449   0.91915   0.62462   0.00000  Uiso   1.00
O1099  O     0.15593   0.95361   0.60264   0.00000  Uiso   1.00
N1100  N     0.18972   0.75704   0.89275   0.00000  Uiso   1.00
O1101  O     0.16793   0.72531   0.87302   0.00000  Uiso   1.00
O1102  O     0.22669   0.74735   0.90780   0.00000  Uiso   1.00
N1103  N     0.11331   0.90308   0.87712   0.00000  Uiso   1.00
O1104  O     0.08830   0.89288   0.84422   0.00000  Uiso   1.00
O1105  O     0.11514   0.94483   0.89111   0.00000  Uiso   1.00
N1106  N     0.13791   0.75101   0.61637   0.00000  Uiso   1.00
O1107  O     0.17090   0.72708   0.62470   0.00000  Uiso   1.00
O1108  O     0.10131   0.73136   0.61815   0.00000  Uiso   1.00
N1109  N     0.04371   0.78554   0.81849   0.00000  Uiso   1.00
O1110  O     0.04305   0.80145   0.85899   0.00000  Uiso   1.00
O1111  O     0.05937   0.74571   0.81135   0.00000  Uiso   1.00
N1112  N     0.29011   0.88294   0.68357   0.00000  Uiso   1.00
O1113  O     0.28993   0.86767   0.64283   0.00000  Uiso   1.00
O1114  O     0.27749   0.92395   0.69130   0.00000  Uiso   1.00
N1115  N     0.28896   0.78881   0.82084   0.00000  Uiso   1.00
O1116  O     0.29657   0.74704   0.83229   0.00000  Uiso   1.00
O1117  O     0.26252   0.81203   0.84405   0.00000  Uiso   1.00
N1118  N     0.04445   0.87961   0.68084   0.00000  Uiso   1.00
O1119  O     0.03746   0.92203   0.67144   0.00000  Uiso   1.00
O1120  O     0.07001   0.85698   0.65599   0.00000  Uiso   1.00
O1121  O     0.43892   0.87154   0.75000   0.00000  Uiso   1.00
O1122  O     0.56108   0.79513   0.75001   0.00000  Uiso   1.00
O1123  O     0.56108   0.87154   0.75001   0.00000  Uiso   1.00
O1124  O     0.43892   0.79513   0.75000   0.00000  Uiso   1.00
N1125  N     0.50000   0.95240   0.75000   0.00000  Uiso   1.00
N1126  N     0.50000   0.71427   0.75000   0.00000  Uiso   1.00
C1127  C     0.42008   0.83292   0.74999   0.00000  Uiso   1.00
C1128  C     0.57997   0.83375   0.75028   0.00000  Uiso   1.00
O1129  O     0.50000   0.87155   0.68453   0.00000  Uiso   1.00
O1130  O     0.50000   0.79511   0.81547   0.00000  Uiso   1.00
O1131  O     0.50000   0.87155   0.81547   0.00000  Uiso   1.00
O1132  O     0.50000   0.79511   0.68453   0.00000  Uiso   1.00
C1133  C     0.49908   0.83341   0.66338   0.00000  Uiso   1.00
C1134  C     0.49755   0.83306   0.83625   0.00000  Uiso   1.00
Zn1135 Zn    0.50000   0.88437   0.75000   0.00000  Uiso   1.00
Zn1136 Zn    0.50000   0.78229   0.75000   0.00000  Uiso   1.00
H1137  H     0.55295   0.70952   0.79236   0.00000  Uiso   1.00
H1138  H     0.44721   0.95715   0.70743   0.00000  Uiso   1.00
H1139  H     0.44689   0.70830   0.70791   0.00000  Uiso   1.00
H1140  H     0.55286   0.95834   0.79249   0.00000  Uiso   1.00
C1141  C     0.52946   0.69101   0.77352   0.00000  Uiso   1.00
C1142  C     0.47061   0.97565   0.72638   0.00000  Uiso   1.00
C1143  C     0.47051   0.69033   0.72653   0.00000  Uiso   1.00
C1144  C     0.52941   0.97632   0.77360   0.00000  Uiso   1.00
C1145  C     0.35473   0.80831   0.78346   0.00000  Uiso   1.00
C1146  C     0.64554   0.85889   0.71774   0.00000  Uiso   1.00
C1147  C     0.64490   0.81026   0.78484   0.00000  Uiso   1.00
C1148  C     0.35527   0.85699   0.71627   0.00000  Uiso   1.00
C1149  C     0.48529   0.87468   0.54483   0.00000  Uiso   1.00
C1150  C     0.49497   0.79627   0.95627   0.00000  Uiso   1.00
C1151  C     0.45828   0.86728   0.94924   0.00000  Uiso   1.00
C1152  C     0.46528   0.79529   0.54885   0.00000  Uiso   1.00
C1153  C     0.49499   0.87470   0.59004   0.00000  Uiso   1.00
C1154  C     0.50181   0.79534   0.91071   0.00000  Uiso   1.00
C1155  C     0.46497   0.86754   0.90336   0.00000  Uiso   1.00
C1156  C     0.47587   0.79375   0.59370   0.00000  Uiso   1.00
C1157  C     0.49160   0.83357   0.61498   0.00000  Uiso   1.00
C1158  C     0.48824   0.83205   0.88389   0.00000  Uiso   1.00
C1159  C     0.47210   0.83478   0.52400   0.00000  Uiso   1.00
C1160  C     0.47365   0.83213   0.97562   0.00000  Uiso   1.00
C1161  C     0.62416   0.83494   0.75146   0.00000  Uiso   1.00
C1162  C     0.37599   0.83185   0.74928   0.00000  Uiso   1.00
H1163  H     0.49106   0.90526   0.52533   0.00000  Uiso   1.00
H1164  H     0.50749   0.76920   0.97679   0.00000  Uiso   1.00
H1165  H     0.44095   0.89450   0.96443   0.00000  Uiso   1.00
H1166  H     0.45435   0.76450   0.53259   0.00000  Uiso   1.00
N1167  N     0.50993   0.91643   0.60916   0.00000  Uiso   1.00
O1168  O     0.54782   0.91915   0.62462   0.00000  Uiso   1.00
O1169  O     0.48927   0.95361   0.60264   0.00000  Uiso   1.00
N1170  N     0.52305   0.75704   0.89275   0.00000  Uiso   1.00
O1171  O     0.50127   0.72531   0.87302   0.00000  Uiso   1.00
O1172  O     0.56002   0.74735   0.90780   0.00000  Uiso   1.00
N1173  N     0.44664   0.90308   0.87712   0.00000  Uiso   1.00
O1174  O     0.42163   0.89288   0.84422   0.00000  Uiso   1.00
O1175  O     0.44847   0.94483   0.89111   0.00000  Uiso   1.00
N1176  N     0.47124   0.75101   0.61637   0.00000  Uiso   1.00
O1177  O     0.50423   0.72708   0.62470   0.00000  Uiso   1.00
O1178  O     0.43464   0.73136   0.61815   0.00000  Uiso   1.00
N1179  N     0.37704   0.78554   0.81849   0.00000  Uiso   1.00
O1180  O     0.37638   0.80145   0.85899   0.00000  Uiso   1.00
O1181  O     0.39270   0.74571   0.81135   0.00000  Uiso   1.00
N1182  N     0.62344   0.88294   0.68357   0.00000  Uiso   1.00
O1183  O     0.62326   0.86767   0.64283   0.00000  Uiso   1.00
O1184  O     0.61082   0.92395   0.69130   0.00000  Uiso   1.00
N1185  N     0.62229   0.78881   0.82084   0.00000  Uiso   1.00
O1186  O     0.62990   0.74704   0.83229   0.00000  Uiso   1.00
O1187  O     0.59585   0.81203   0.84405   0.00000  Uiso   1.00
N1188  N     0.37778   0.87961   0.68084   0.00000  Uiso   1.00
O1189  O     0.37079   0.92203   0.67144   0.00000  Uiso   1.00
O1190  O     0.40334   0.85698   0.65599   0.00000  Uiso   1.00
O1191  O     0.77226   0.87154   0.75000   0.00000  Uiso   1.00
O1192  O     0.89441   0.79513   0.75001   0.00000  Uiso   1.00
O1193  O     0.89441   0.87154   0.75001   0.00000  Uiso   1.00
O1194  O     0.77226   0.79513   0.75000   0.00000  Uiso   1.00
N1195  N     0.83333   0.95240   0.75000   0.00000  Uiso   1.00
N1196  N     0.83333   0.71427   0.75000   0.00000  Uiso   1.00
C1197  C     0.75341   0.83292   0.74999   0.00000  Uiso   1.00
C1198  C     0.91330   0.83375   0.75028   0.00000  Uiso   1.00
O1199  O     0.83333   0.87155   0.68453   0.00000  Uiso   1.00
O1200  O     0.83334   0.79511   0.81547   0.00000  Uiso   1.00
O1201  O     0.83334   0.87155   0.81547   0.00000  Uiso   1.00
O1202  O     0.83333   0.79511   0.68453   0.00000  Uiso   1.00
C1203  C     0.83242   0.83341   0.66338   0.00000  Uiso   1.00
C1204  C     0.83089   0.83306   0.83625   0.00000  Uiso   1.00
Zn1205 Zn    0.83333   0.88437   0.75000   0.00000  Uiso   1.00
Zn1206 Zn    0.83333   0.78229   0.75000   0.00000  Uiso   1.00
H1207  H     0.88628   0.70952   0.79236   0.00000  Uiso   1.00
H1208  H     0.78055   0.95715   0.70743   0.00000  Uiso   1.00
H1209  H     0.78023   0.70830   0.70791   0.00000  Uiso   1.00
H1210  H     0.88619   0.95834   0.79249   0.00000  Uiso   1.00
C1211  C     0.86279   0.69101   0.77352   0.00000  Uiso   1.00
C1212  C     0.80394   0.97565   0.72638   0.00000  Uiso   1.00
C1213  C     0.80384   0.69033   0.72653   0.00000  Uiso   1.00
C1214  C     0.86274   0.97632   0.77360   0.00000  Uiso   1.00
C1215  C     0.68806   0.80831   0.78346   0.00000  Uiso   1.00
C1216  C     0.97887   0.85889   0.71774   0.00000  Uiso   1.00
C1217  C     0.97824   0.81026   0.78484   0.00000  Uiso   1.00
C1218  C     0.68860   0.85699   0.71627   0.00000  Uiso   1.00
C1219  C     0.81862   0.87468   0.54483   0.00000  Uiso   1.00
C1220  C     0.82830   0.79627   0.95627   0.00000  Uiso   1.00
C1221  C     0.79161   0.86728   0.94924   0.00000  Uiso   1.00
C1222  C     0.79862   0.79529   0.54885   0.00000  Uiso   1.00
C1223  C     0.82833   0.87470   0.59004   0.00000  Uiso   1.00
C1224  C     0.83515   0.79534   0.91071   0.00000  Uiso   1.00
C1225  C     0.79830   0.86754   0.90336   0.00000  Uiso   1.00
C1226  C     0.80921   0.79375   0.59370   0.00000  Uiso   1.00
C1227  C     0.82493   0.83357   0.61498   0.00000  Uiso   1.00
C1228  C     0.82158   0.83205   0.88389   0.00000  Uiso   1.00
C1229  C     0.80544   0.83478   0.52400   0.00000  Uiso   1.00
C1230  C     0.80698   0.83213   0.97562   0.00000  Uiso   1.00
C1231  C     0.95749   0.83494   0.75146   0.00000  Uiso   1.00
C1232  C     0.70933   0.83185   0.74928   0.00000  Uiso   1.00
H1233  H     0.82439   0.90526   0.52533   0.00000  Uiso   1.00
H1234  H     0.84082   0.76920   0.97679   0.00000  Uiso   1.00
H1235  H     0.77429   0.89450   0.96443   0.00000  Uiso   1.00
H1236  H     0.78768   0.76450   0.53259   0.00000  Uiso   1.00
N1237  N     0.84327   0.91643   0.60916   0.00000  Uiso   1.00
O1238  O     0.88115   0.91915   0.62462   0.00000  Uiso   1.00
O1239  O     0.82260   0.95361   0.60264   0.00000  Uiso   1.00
N1240  N     0.85638   0.75704   0.89275   0.00000  Uiso   1.00
O1241  O     0.83460   0.72531   0.87302   0.00000  Uiso   1.00
O1242  O     0.89335   0.74735   0.90780   0.00000  Uiso   1.00
N1243  N     0.77997   0.90308   0.87712   0.00000  Uiso   1.00
O1244  O     0.75497   0.89288   0.84422   0.00000  Uiso   1.00
O1245  O     0.78181   0.94483   0.89111   0.00000  Uiso   1.00
N1246  N     0.80458   0.75101   0.61637   0.00000  Uiso   1.00
O1247  O     0.83756   0.72708   0.62470   0.00000  Uiso   1.00
O1248  O     0.76798   0.73136   0.61815   0.00000  Uiso   1.00
N1249  N     0.71038   0.78554   0.81849   0.00000  Uiso   1.00
O1250  O     0.70972   0.80145   0.85899   0.00000  Uiso   1.00
O1251  O     0.72604   0.74571   0.81135   0.00000  Uiso   1.00
N1252  N     0.95677   0.88294   0.68357   0.00000  Uiso   1.00
O1253  O     0.95659   0.86767   0.64283   0.00000  Uiso   1.00
O1254  O     0.94416   0.92395   0.69130   0.00000  Uiso   1.00
N1255  N     0.95563   0.78881   0.82084   0.00000  Uiso   1.00
O1256  O     0.96323   0.74704   0.83229   0.00000  Uiso   1.00
O1257  O     0.92918   0.81203   0.84405   0.00000  Uiso   1.00
N1258  N     0.71112   0.87961   0.68084   0.00000  Uiso   1.00
O1259  O     0.70413   0.92203   0.67144   0.00000  Uiso   1.00
O1260  O     0.73668   0.85698   0.65599   0.00000  Uiso   1.00
loop_
_geom_bond_atom_site_label_1
_geom_bond_atom_site_label_2
_geom_bond_distance
_geom_bond_site_symmetry_2
_ccdc_geom_bond_type
O1     Zn15    1.987   .     S
O1     C7      1.279   .     A
O2     Zn16    1.987   .     S
O2     C8      1.280   .     A
O3     Zn15    1.998   .     S
O3     C8      1.274   .     A
O4     Zn16    1.998   .     S
O4     C7      1.274   .     A
N5     C24     1.365   .     A
N5     Zn15    2.003   .     S
N5     C22     1.365   .     A
N6     C23     1.365   .     A
N6     Zn16    2.003   .     S
N6     C21     1.366   .     A
C7     C42     1.412   .     S
C8     C41     1.416   .     S
O9     Zn15    1.996   .     S
O9     C13     1.292   .     A
O10    Zn16    1.996   .     S
O10    C14     1.285   .     A
O11    Zn15    1.992   .     S
O11    C14     1.291   .     A
O12    C13     1.291   .     A
O12    Zn16    1.992   .     S
C13    C37     1.466   .     S
C14    C38     1.456   .     S
H17    C21     1.082   .     S
H18    C22     1.081   .     S
H19    C23     1.081   .     S
H20    C24     1.082   .     S
C21    C444    1.414   1_545 S
C22    C233    1.414   .     S
C23    C442    1.414   1_545 S
C24    C231    1.414   .     S
C25    C42     1.404   .     A
C25    N59     1.435   .     S
C25    C167    1.385   1_455 S
C26    N62     1.432   .     S
C26    C41     1.402   .     A
C26    C98     1.382   .     S
C27    C41     1.403   .     A
C27    N65     1.437   .     S
C27    C95     1.385   .     S
C28    C42     1.403   .     A
C28    N68     1.438   .     S
C28    C166    1.382   1_455 S
C29    C39     1.392   .     A
C29    H43     1.084   .     S
C29    C33     1.387   .     A
C30    C40     1.395   .     A
C30    H44     1.084   .     S
C30    C34     1.381   .     A
C31    H45     1.084   .     S
C31    C35     1.389   .     A
C31    C40     1.393   .     A
C32    C36     1.383   .     A
C32    C39     1.391   .     A
C32    H46     1.084   .     S
C33    C37     1.422   .     A
C33    N47     1.433   .     S
C34    N50     1.433   .     S
C34    C38     1.415   .     A
C35    N53     1.436   .     S
C35    C38     1.420   .     A
C36    N56     1.432   .     S
C36    C37     1.422   .     A
C39    C670    1.450   1_554 S
C40    C669    1.450   .     S
N47    O48     1.299   .     A
N47    O49     1.301   .     A
N50    O52     1.301   .     A
N50    O51     1.301   .     A
N53    O54     1.301   .     A
N53    O55     1.301   .     A
N56    O58     1.301   .     A
N56    O57     1.301   .     A
N59    O60     1.302   .     A
N59    O61     1.301   .     A
N62    O63     1.301   .     A
N62    O64     1.301   .     A
N65    O67     1.301   .     A
N65    O66     1.301   .     A
N68    O70     1.300   .     A
N68    O69     1.301   .     A
O71    Zn85    1.987   .     S
O71    C77     1.279   .     A
O72    Zn86    1.987   .     S
O72    C78     1.280   .     A
O73    Zn85    1.998   .     S
O73    C78     1.274   .     A
O74    Zn86    1.998   .     S
O74    C77     1.274   .     A
N75    C94     1.365   .     A
N75    Zn85    2.003   .     S
N75    C92     1.365   .     A
N76    C93     1.365   .     A
N76    Zn86    2.003   .     S
N76    C91     1.366   .     A
C77    C112    1.412   .     S
C78    C111    1.416   .     S
O79    Zn85    1.996   .     S
O79    C83     1.292   .     A
O80    Zn86    1.996   .     S
O80    C84     1.285   .     A
O81    Zn85    1.992   .     S
O81    C84     1.291   .     A
O82    C83     1.291   .     A
O82    Zn86    1.992   .     S
C83    C107    1.466   .     S
C84    C108    1.456   .     S
H87    C91     1.082   .     S
H88    C92     1.081   .     S
H89    C93     1.081   .     S
H90    C94     1.082   .     S
C91    C514    1.414   1_545 S
C92    C303    1.414   .     S
C93    C512    1.414   1_545 S
C94    C301    1.414   .     S
C95    C112    1.404   .     A
C95    N129    1.435   .     S
C96    N132    1.432   .     S
C96    C111    1.402   .     A
C96    C168    1.382   .     S
C97    C111    1.403   .     A
C97    N135    1.437   .     S
C97    C165    1.385   .     S
C98    C112    1.403   .     A
C98    N138    1.438   .     S
C99    C109    1.392   .     A
C99    H113    1.084   .     S
C99    C103    1.387   .     A
C100   C110    1.395   .     A
C100   H114    1.084   .     S
C100   C104    1.381   .     A
C101   H115    1.084   .     S
C101   C105    1.389   .     A
C101   C110    1.393   .     A
C102   C106    1.383   .     A
C102   C109    1.391   .     A
C102   H116    1.084   .     S
C103   C107    1.422   .     A
C103   N117    1.433   .     S
C104   N120    1.433   .     S
C104   C108    1.415   .     A
C105   N123    1.436   .     S
C105   C108    1.420   .     A
C106   N126    1.432   .     S
C106   C107    1.422   .     A
C109   C740    1.450   1_554 S
C110   C739    1.450   .     S
N117   O118    1.299   .     A
N117   O119    1.301   .     A
N120   O122    1.301   .     A
N120   O121    1.301   .     A
N123   O124    1.301   .     A
N123   O125    1.301   .     A
N126   O128    1.301   .     A
N126   O127    1.301   .     A
N129   O130    1.302   .     A
N129   O131    1.301   .     A
N132   O133    1.301   .     A
N132   O134    1.301   .     A
N135   O137    1.301   .     A
N135   O136    1.301   .     A
N138   O140    1.300   .     A
N138   O139    1.301   .     A
O141   Zn155   1.987   .     S
O141   C147    1.279   .     A
O142   Zn156   1.987   .     S
O142   C148    1.280   .     A
O143   Zn155   1.998   .     S
O143   C148    1.274   .     A
O144   Zn156   1.998   .     S
O144   C147    1.274   .     A
N145   C164    1.365   .     A
N145   Zn155   2.003   .     S
N145   C162    1.365   .     A
N146   C163    1.365   .     A
N146   Zn156   2.003   .     S
N146   C161    1.366   .     A
C147   C182    1.412   .     S
C148   C181    1.416   .     S
O149   Zn155   1.996   .     S
O149   C153    1.292   .     A
O150   Zn156   1.996   .     S
O150   C154    1.285   .     A
O151   Zn155   1.992   .     S
O151   C154    1.291   .     A
O152   C153    1.291   .     A
O152   Zn156   1.992   .     S
C153   C177    1.466   .     S
C154   C178    1.456   .     S
H157   C161    1.082   .     S
H158   C162    1.081   .     S
H159   C163    1.081   .     S
H160   C164    1.082   .     S
C161   C584    1.414   1_545 S
C162   C373    1.414   .     S
C163   C582    1.414   1_545 S
C164   C371    1.414   .     S
C165   C182    1.404   .     A
C165   N199    1.435   .     S
C166   N202    1.432   .     S
C166   C181    1.402   .     A
C166   C28     1.382   1_655 S
C167   C181    1.403   .     A
C167   N205    1.437   .     S
C167   C25     1.385   1_655 S
C168   C182    1.403   .     A
C168   N208    1.438   .     S
C169   C179    1.392   .     A
C169   H183    1.084   .     S
C169   C173    1.387   .     A
C170   C180    1.395   .     A
C170   H184    1.084   .     S
C170   C174    1.381   .     A
C171   H185    1.084   .     S
C171   C175    1.389   .     A
C171   C180    1.393   .     A
C172   C176    1.383   .     A
C172   C179    1.391   .     A
C172   H186    1.084   .     S
C173   C177    1.422   .     A
C173   N187    1.433   .     S
C174   N190    1.433   .     S
C174   C178    1.415   .     A
C175   N193    1.436   .     S
C175   C178    1.420   .     A
C176   N196    1.432   .     S
C176   C177    1.422   .     A
C179   C810    1.450   1_554 S
C180   C809    1.450   .     S
N187   O188    1.299   .     A
N187   O189    1.301   .     A
N190   O192    1.301   .     A
N190   O191    1.301   .     A
N193   O194    1.301   .     A
N193   O195    1.301   .     A
N196   O198    1.301   .     A
N196   O197    1.301   .     A
N199   O200    1.302   .     A
N199   O201    1.301   .     A
N202   O203    1.301   .     A
N202   O204    1.301   .     A
N205   O207    1.301   .     A
N205   O206    1.301   .     A
N208   O210    1.300   .     A
N208   O209    1.301   .     A
O211   Zn225   1.987   .     S
O211   C217    1.279   .     A
O212   Zn226   1.987   .     S
O212   C218    1.280   .     A
O213   Zn225   1.998   .     S
O213   C218    1.274   .     A
O214   Zn226   1.998   .     S
O214   C217    1.274   .     A
N215   C234    1.365   .     A
N215   Zn225   2.003   .     S
N215   C232    1.365   .     A
N216   C233    1.365   .     A
N216   Zn226   2.003   .     S
N216   C231    1.366   .     A
C217   C252    1.412   .     S
C218   C251    1.416   .     S
O219   Zn225   1.996   .     S
O219   C223    1.292   .     A
O220   Zn226   1.996   .     S
O220   C224    1.285   .     A
O221   Zn225   1.992   .     S
O221   C224    1.291   .     A
O222   C223    1.291   .     A
O222   Zn226   1.992   .     S
C223   C247    1.466   .     S
C224   C248    1.456   .     S
H227   C231    1.082   .     S
H228   C232    1.081   .     S
H229   C233    1.081   .     S
H230   C234    1.082   .     S
C232   C443    1.414   .     S
C234   C441    1.414   .     S
C235   C252    1.404   .     A
C235   N269    1.435   .     S
C235   C377    1.385   1_455 S
C236   N272    1.432   .     S
C236   C251    1.402   .     A
C236   C308    1.382   .     S
C237   C251    1.403   .     A
C237   N275    1.437   .     S
C237   C305    1.385   .     S
C238   C252    1.403   .     A
C238   N278    1.438   .     S
C238   C376    1.382   1_455 S
C239   C249    1.392   .     A
C239   H253    1.084   .     S
C239   C243    1.387   .     A
C240   C250    1.395   .     A
C240   H254    1.084   .     S
C240   C244    1.381   .     A
C241   H255    1.084   .     S
C241   C245    1.389   .     A
C241   C250    1.393   .     A
C242   C246    1.383   .     A
C242   C249    1.391   .     A
C242   H256    1.084   .     S
C243   C247    1.422   .     A
C243   N257    1.433   .     S
C244   N260    1.433   .     S
C244   C248    1.415   .     A
C245   N263    1.436   .     S
C245   C248    1.420   .     A
C246   N266    1.432   .     S
C246   C247    1.422   .     A
C249   C880    1.450   1_554 S
C250   C879    1.450   .     S
N257   O258    1.299   .     A
N257   O259    1.301   .     A
N260   O262    1.301   .     A
N260   O261    1.301   .     A
N263   O264    1.301   .     A
N263   O265    1.301   .     A
N266   O268    1.301   .     A
N266   O267    1.301   .     A
N269   O270    1.302   .     A
N269   O271    1.301   .     A
N272   O273    1.301   .     A
N272   O274    1.301   .     A
N275   O277    1.301   .     A
N275   O276    1.301   .     A
N278   O280    1.300   .     A
N278   O279    1.301   .     A
O281   Zn295   1.987   .     S
O281   C287    1.279   .     A
O282   Zn296   1.987   .     S
O282   C288    1.280   .     A
O283   Zn295   1.998   .     S
O283   C288    1.274   .     A
O284   Zn296   1.998   .     S
O284   C287    1.274   .     A
N285   C304    1.365   .     A
N285   Zn295   2.003   .     S
N285   C302    1.365   .     A
N286   C303    1.365   .     A
N286   Zn296   2.003   .     S
N286   C301    1.366   .     A
C287   C322    1.412   .     S
C288   C321    1.416   .     S
O289   Zn295   1.996   .     S
O289   C293    1.292   .     A
O290   Zn296   1.996   .     S
O290   C294    1.285   .     A
O291   Zn295   1.992   .     S
O291   C294    1.291   .     A
O292   C293    1.291   .     A
O292   Zn296   1.992   .     S
C293   C317    1.466   .     S
C294   C318    1.456   .     S
H297   C301    1.082   .     S
H298   C302    1.081   .     S
H299   C303    1.081   .     S
H300   C304    1.082   .     S
C302   C513    1.414   .     S
C304   C511    1.414   .     S
C305   C322    1.404   .     A
C305   N339    1.435   .     S
C306   N342    1.432   .     S
C306   C321    1.402   .     A
C306   C378    1.382   .     S
C307   C321    1.403   .     A
C307   N345    1.437   .     S
C307   C375    1.385   .     S
C308   C322    1.403   .     A
C308   N348    1.438   .     S
C309   C319    1.392   .     A
C309   H323    1.084   .     S
C309   C313    1.387   .     A
C310   C320    1.395   .     A
C310   H324    1.084   .     S
C310   C314    1.381   .     A
C311   H325    1.084   .     S
C311   C315    1.389   .     A
C311   C320    1.393   .     A
C312   C316    1.383   .     A
C312   C319    1.391   .     A
C312   H326    1.084   .     S
C313   C317    1.422   .     A
C313   N327    1.433   .     S
C314   N330    1.433   .     S
C314   C318    1.415   .     A
C315   N333    1.436   .     S
C315   C318    1.420   .     A
C316   N336    1.432   .     S
C316   C317    1.422   .     A
C319   C950    1.450   1_554 S
C320   C949    1.450   .     S
N327   O328    1.299   .     A
N327   O329    1.301   .     A
N330   O332    1.301   .     A
N330   O331    1.301   .     A
N333   O334    1.301   .     A
N333   O335    1.301   .     A
N336   O338    1.301   .     A
N336   O337    1.301   .     A
N339   O340    1.302   .     A
N339   O341    1.301   .     A
N342   O343    1.301   .     A
N342   O344    1.301   .     A
N345   O347    1.301   .     A
N345   O346    1.301   .     A
N348   O350    1.300   .     A
N348   O349    1.301   .     A
O351   Zn365   1.987   .     S
O351   C357    1.279   .     A
O352   Zn366   1.987   .     S
O352   C358    1.280   .     A
O353   Zn365   1.998   .     S
O353   C358    1.274   .     A
O354   Zn366   1.998   .     S
O354   C357    1.274   .     A
N355   C374    1.365   .     A
N355   Zn365   2.003   .     S
N355   C372    1.365   .     A
N356   C373    1.365   .     A
N356   Zn366   2.003   .     S
N356   C371    1.366   .     A
C357   C392    1.412   .     S
C358   C391    1.416   .     S
O359   Zn365   1.996   .     S
O359   C363    1.292   .     A
O360   Zn366   1.996   .     S
O360   C364    1.285   .     A
O361   Zn365   1.992   .     S
O361   C364    1.291   .     A
O362   C363    1.291   .     A
O362   Zn366   1.992   .     S
C363   C387    1.466   .     S
C364   C388    1.456   .     S
H367   C371    1.082   .     S
H368   C372    1.081   .     S
H369   C373    1.081   .     S
H370   C374    1.082   .     S
C372   C583    1.414   .     S
C374   C581    1.414   .     S
C375   C392    1.404   .     A
C375   N409    1.435   .     S
C376   N412    1.432   .     S
C376   C391    1.402   .     A
C376   C238    1.382   1_655 S
C377   C391    1.403   .     A
C377   N415    1.437   .     S
C377   C235    1.385   1_655 S
C378   C392    1.403   .     A
C378   N418    1.438   .     S
C379   C389    1.392   .     A
C379   H393    1.084   .     S
C379   C383    1.387   .     A
C380   C390    1.395   .     A
C380   H394    1.084   .     S
C380   C384    1.381   .     A
C381   H395    1.084   .     S
C381   C385    1.389   .     A
C381   C390    1.393   .     A
C382   C386    1.383   .     A
C382   C389    1.391   .     A
C382   H396    1.084   .     S
C383   C387    1.422   .     A
C383   N397    1.433   .     S
C384   N400    1.433   .     S
C384   C388    1.415   .     A
C385   N403    1.436   .     S
C385   C388    1.420   .     A
C386   N406    1.432   .     S
C386   C387    1.422   .     A
C389   C1020   1.450   1_554 S
C390   C1019   1.450   .     S
N397   O398    1.299   .     A
N397   O399    1.301   .     A
N400   O402    1.301   .     A
N400   O401    1.301   .     A
N403   O404    1.301   .     A
N403   O405    1.301   .     A
N406   O408    1.301   .     A
N406   O407    1.301   .     A
N409   O410    1.302   .     A
N409   O411    1.301   .     A
N412   O413    1.301   .     A
N412   O414    1.301   .     A
N415   O417    1.301   .     A
N415   O416    1.301   .     A
N418   O420    1.300   .     A
N418   O419    1.301   .     A
O421   Zn435   1.987   .     S
O421   C427    1.279   .     A
O422   Zn436   1.987   .     S
O422   C428    1.280   .     A
O423   Zn435   1.998   .     S
O423   C428    1.274   .     A
O424   Zn436   1.998   .     S
O424   C427    1.274   .     A
N425   C444    1.365   .     A
N425   Zn435   2.003   .     S
N425   C442    1.365   .     A
N426   C443    1.365   .     A
N426   Zn436   2.003   .     S
N426   C441    1.366   .     A
C427   C462    1.412   .     S
C428   C461    1.416   .     S
O429   Zn435   1.996   .     S
O429   C433    1.292   .     A
O430   Zn436   1.996   .     S
O430   C434    1.285   .     A
O431   Zn435   1.992   .     S
O431   C434    1.291   .     A
O432   C433    1.291   .     A
O432   Zn436   1.992   .     S
C433   C457    1.466   .     S
C434   C458    1.456   .     S
H437   C441    1.082   .     S
H438   C442    1.081   .     S
H439   C443    1.081   .     S
H440   C444    1.082   .     S
C442   C23     1.414   1_565 S
C444   C21     1.414   1_565 S
C445   C462    1.404   .     A
C445   N479    1.435   .     S
C445   C587    1.385   1_455 S
C446   N482    1.432   .     S
C446   C461    1.402   .     A
C446   C518    1.382   .     S
C447   C461    1.403   .     A
C447   N485    1.437   .     S
C447   C515    1.385   .     S
C448   C462    1.403   .     A
C448   N488    1.438   .     S
C448   C586    1.382   1_455 S
C449   C459    1.392   .     A
C449   H463    1.084   .     S
C449   C453    1.387   .     A
C450   C460    1.395   .     A
C450   H464    1.084   .     S
C450   C454    1.381   .     A
C451   H465    1.084   .     S
C451   C455    1.389   .     A
C451   C460    1.393   .     A
C452   C456    1.383   .     A
C452   C459    1.391   .     A
C452   H466    1.084   .     S
C453   C457    1.422   .     A
C453   N467    1.433   .     S
C454   N470    1.433   .     S
C454   C458    1.415   .     A
C455   N473    1.436   .     S
C455   C458    1.420   .     A
C456   N476    1.432   .     S
C456   C457    1.422   .     A
C459   C1090   1.450   1_554 S
C460   C1089   1.450   .     S
N467   O468    1.299   .     A
N467   O469    1.301   .     A
N470   O472    1.301   .     A
N470   O471    1.301   .     A
N473   O474    1.301   .     A
N473   O475    1.301   .     A
N476   O478    1.301   .     A
N476   O477    1.301   .     A
N479   O480    1.302   .     A
N479   O481    1.301   .     A
N482   O483    1.301   .     A
N482   O484    1.301   .     A
N485   O487    1.301   .     A
N485   O486    1.301   .     A
N488   O490    1.300   .     A
N488   O489    1.301   .     A
O491   Zn505   1.987   .     S
O491   C497    1.279   .     A
O492   Zn506   1.987   .     S
O492   C498    1.280   .     A
O493   Zn505   1.998   .     S
O493   C498    1.274   .     A
O494   Zn506   1.998   .     S
O494   C497    1.274   .     A
N495   C514    1.365   .     A
N495   Zn505   2.003   .     S
N495   C512    1.365   .     A
N496   C513    1.365   .     A
N496   Zn506   2.003   .     S
N496   C511    1.366   .     A
C497   C532    1.412   .     S
C498   C531    1.416   .     S
O499   Zn505   1.996   .     S
O499   C503    1.292   .     A
O500   Zn506   1.996   .     S
O500   C504    1.285   .     A
O501   Zn505   1.992   .     S
O501   C504    1.291   .     A
O502   C503    1.291   .     A
O502   Zn506   1.992   .     S
C503   C527    1.466   .     S
C504   C528    1.456   .     S
H507   C511    1.082   .     S
H508   C512    1.081   .     S
H509   C513    1.081   .     S
H510   C514    1.082   .     S
C512   C93     1.414   1_565 S
C514   C91     1.414   1_565 S
C515   C532    1.404   .     A
C515   N549    1.435   .     S
C516   N552    1.432   .     S
C516   C531    1.402   .     A
C516   C588    1.382   .     S
C517   C531    1.403   .     A
C517   N555    1.437   .     S
C517   C585    1.385   .     S
C518   C532    1.403   .     A
C518   N558    1.438   .     S
C519   C529    1.392   .     A
C519   H533    1.084   .     S
C519   C523    1.387   .     A
C520   C530    1.395   .     A
C520   H534    1.084   .     S
C520   C524    1.381   .     A
C521   H535    1.084   .     S
C521   C525    1.389   .     A
C521   C530    1.393   .     A
C522   C526    1.383   .     A
C522   C529    1.391   .     A
C522   H536    1.084   .     S
C523   C527    1.422   .     A
C523   N537    1.433   .     S
C524   N540    1.433   .     S
C524   C528    1.415   .     A
C525   N543    1.436   .     S
C525   C528    1.420   .     A
C526   N546    1.432   .     S
C526   C527    1.422   .     A
C529   C1160   1.450   1_554 S
C530   C1159   1.450   .     S
N537   O538    1.299   .     A
N537   O539    1.301   .     A
N540   O542    1.301   .     A
N540   O541    1.301   .     A
N543   O544    1.301   .     A
N543   O545    1.301   .     A
N546   O548    1.301   .     A
N546   O547    1.301   .     A
N549   O550    1.302   .     A
N549   O551    1.301   .     A
N552   O553    1.301   .     A
N552   O554    1.301   .     A
N555   O557    1.301   .     A
N555   O556    1.301   .     A
N558   O560    1.300   .     A
N558   O559    1.301   .     A
O561   Zn575   1.987   .     S
O561   C567    1.279   .     A
O562   Zn576   1.987   .     S
O562   C568    1.280   .     A
O563   Zn575   1.998   .     S
O563   C568    1.274   .     A
O564   Zn576   1.998   .     S
O564   C567    1.274   .     A
N565   C584    1.365   .     A
N565   Zn575   2.003   .     S
N565   C582    1.365   .     A
N566   C583    1.365   .     A
N566   Zn576   2.003   .     S
N566   C581    1.366   .     A
C567   C602    1.412   .     S
C568   C601    1.416   .     S
O569   Zn575   1.996   .     S
O569   C573    1.292   .     A
O570   Zn576   1.996   .     S
O570   C574    1.285   .     A
O571   Zn575   1.992   .     S
O571   C574    1.291   .     A
O572   C573    1.291   .     A
O572   Zn576   1.992   .     S
C573   C597    1.466   .     S
C574   C598    1.456   .     S
H577   C581    1.082   .     S
H578   C582    1.081   .     S
H579   C583    1.081   .     S
H580   C584    1.082   .     S
C582   C163    1.414   1_565 S
C584   C161    1.414   1_565 S
C585   C602    1.404   .     A
C585   N619    1.435   .     S
C586   N622    1.432   .     S
C586   C601    1.402   .     A
C586   C448    1.382   1_655 S
C587   C601    1.403   .     A
C587   N625    1.437   .     S
C587   C445    1.385   1_655 S
C588   C602    1.403   .     A
C588   N628    1.438   .     S
C589   C599    1.392   .     A
C589   H603    1.084   .     S
C589   C593    1.387   .     A
C590   C600    1.395   .     A
C590   H604    1.084   .     S
C590   C594    1.381   .     A
C591   H605    1.084   .     S
C591   C595    1.389   .     A
C591   C600    1.393   .     A
C592   C596    1.383   .     A
C592   C599    1.391   .     A
C592   H606    1.084   .     S
C593   C597    1.422   .     A
C593   N607    1.433   .     S
C594   N610    1.433   .     S
C594   C598    1.415   .     A
C595   N613    1.436   .     S
C595   C598    1.420   .     A
C596   N616    1.432   .     S
C596   C597    1.422   .     A
C599   C1230   1.450   1_554 S
C600   C1229   1.450   .     S
N607   O608    1.299   .     A
N607   O609    1.301   .     A
N610   O612    1.301   .     A
N610   O611    1.301   .     A
N613   O614    1.301   .     A
N613   O615    1.301   .     A
N616   O618    1.301   .     A
N616   O617    1.301   .     A
N619   O620    1.302   .     A
N619   O621    1.301   .     A
N622   O623    1.301   .     A
N622   O624    1.301   .     A
N625   O627    1.301   .     A
N625   O626    1.301   .     A
N628   O630    1.300   .     A
N628   O629    1.301   .     A
O631   Zn645   1.987   .     S
O631   C637    1.279   .     A
O632   Zn646   1.987   .     S
O632   C638    1.280   .     A
O633   Zn645   1.998   .     S
O633   C638    1.274   .     A
O634   Zn646   1.998   .     S
O634   C637    1.274   .     A
N635   C654    1.365   .     A
N635   Zn645   2.003   .     S
N635   C652    1.365   .     A
N636   C653    1.365   .     A
N636   Zn646   2.003   .     S
N636   C651    1.366   .     A
C637   C672    1.412   .     S
C638   C671    1.416   .     S
O639   Zn645   1.996   .     S
O639   C643    1.292   .     A
O640   Zn646   1.996   .     S
O640   C644    1.285   .     A
O641   Zn645   1.992   .     S
O641   C644    1.291   .     A
O642   C643    1.291   .     A
O642   Zn646   1.992   .     S
C643   C667    1.466   .     S
C644   C668    1.456   .     S
H647   C651    1.082   .     S
H648   C652    1.081   .     S
H649   C653    1.081   .     S
H650   C654    1.082   .     S
C651   C1074   1.414   1_545 S
C652   C863    1.414   .     S
C653   C1072   1.414   1_545 S
C654   C861    1.414   .     S
C655   C672    1.404   .     A
C655   N689    1.435   .     S
C655   C797    1.385   1_455 S
C656   N692    1.432   .     S
C656   C671    1.402   .     A
C656   C728    1.382   .     S
C657   C671    1.403   .     A
C657   N695    1.437   .     S
C657   C725    1.385   .     S
C658   C672    1.403   .     A
C658   N698    1.438   .     S
C658   C796    1.382   1_455 S
C659   C669    1.392   .     A
C659   H673    1.084   .     S
C659   C663    1.387   .     A
C660   C670    1.395   .     A
C660   H674    1.084   .     S
C660   C664    1.381   .     A
C661   H675    1.084   .     S
C661   C665    1.389   .     A
C661   C670    1.393   .     A
C662   C666    1.383   .     A
C662   C669    1.391   .     A
C662   H676    1.084   .     S
C663   C667    1.422   .     A
C663   N677    1.433   .     S
C664   N680    1.433   .     S
C664   C668    1.415   .     A
C665   N683    1.436   .     S
C665   C668    1.420   .     A
C666   N686    1.432   .     S
C666   C667    1.422   .     A
C670   C39     1.450   1_556 S
N677   O678    1.299   .     A
N677   O679    1.301   .     A
N680   O682    1.301   .     A
N680   O681    1.301   .     A
N683   O684    1.301   .     A
N683   O685    1.301   .     A
N686   O688    1.301   .     A
N686   O687    1.301   .     A
N689   O690    1.302   .     A
N689   O691    1.301   .     A
N692   O693    1.301   .     A
N692   O694    1.301   .     A
N695   O697    1.301   .     A
N695   O696    1.301   .     A
N698   O700    1.300   .     A
N698   O699    1.301   .     A
O701   Zn715   1.987   .     S
O701   C707    1.279   .     A
O702   Zn716   1.987   .     S
O702   C708    1.280   .     A
O703   Zn715   1.998   .     S
O703   C708    1.274   .     A
O704   Zn716   1.998   .     S
O704   C707    1.274   .     A
N705   C724    1.365   .     A
N705   Zn715   2.003   .     S
N705   C722    1.365   .     A
N706   C723    1.365   .     A
N706   Zn716   2.003   .     S
N706   C721    1.366   .     A
C707   C742    1.412   .     S
C708   C741    1.416   .     S
O709   Zn715   1.996   .     S
O709   C713    1.292   .     A
O710   Zn716   1.996   .     S
O710   C714    1.285   .     A
O711   Zn715   1.992   .     S
O711   C714    1.291   .     A
O712   C713    1.291   .     A
O712   Zn716   1.992   .     S
C713   C737    1.466   .     S
C714   C738    1.456   .     S
H717   C721    1.082   .     S
H718   C722    1.081   .     S
H719   C723    1.081   .     S
H720   C724    1.082   .     S
C721   C1144   1.414   1_545 S
C722   C933    1.414   .     S
C723   C1142   1.414   1_545 S
C724   C931    1.414   .     S
C725   C742    1.404   .     A
C725   N759    1.435   .     S
C726   N762    1.432   .     S
C726   C741    1.402   .     A
C726   C798    1.382   .     S
C727   C741    1.403   .     A
C727   N765    1.437   .     S
C727   C795    1.385   .     S
C728   C742    1.403   .     A
C728   N768    1.438   .     S
C729   C739    1.392   .     A
C729   H743    1.084   .     S
C729   C733    1.387   .     A
C730   C740    1.395   .     A
C730   H744    1.084   .     S
C730   C734    1.381   .     A
C731   H745    1.084   .     S
C731   C735    1.389   .     A
C731   C740    1.393   .     A
C732   C736    1.383   .     A
C732   C739    1.391   .     A
C732   H746    1.084   .     S
C733   C737    1.422   .     A
C733   N747    1.433   .     S
C734   N750    1.433   .     S
C734   C738    1.415   .     A
C735   N753    1.436   .     S
C735   C738    1.420   .     A
C736   N756    1.432   .     S
C736   C737    1.422   .     A
C740   C109    1.450   1_556 S
N747   O748    1.299   .     A
N747   O749    1.301   .     A
N750   O752    1.301   .     A
N750   O751    1.301   .     A
N753   O754    1.301   .     A
N753   O755    1.301   .     A
N756   O758    1.301   .     A
N756   O757    1.301   .     A
N759   O760    1.302   .     A
N759   O761    1.301   .     A
N762   O763    1.301   .     A
N762   O764    1.301   .     A
N765   O767    1.301   .     A
N765   O766    1.301   .     A
N768   O770    1.300   .     A
N768   O769    1.301   .     A
O771   Zn785   1.987   .     S
O771   C777    1.279   .     A
O772   Zn786   1.987   .     S
O772   C778    1.280   .     A
O773   Zn785   1.998   .     S
O773   C778    1.274   .     A
O774   Zn786   1.998   .     S
O774   C777    1.274   .     A
N775   C794    1.365   .     A
N775   Zn785   2.003   .     S
N775   C792    1.365   .     A
N776   C793    1.365   .     A
N776   Zn786   2.003   .     S
N776   C791    1.366   .     A
C777   C812    1.412   .     S
C778   C811    1.416   .     S
O779   Zn785   1.996   .     S
O779   C783    1.292   .     A
O780   Zn786   1.996   .     S
O780   C784    1.285   .     A
O781   Zn785   1.992   .     S
O781   C784    1.291   .     A
O782   C783    1.291   .     A
O782   Zn786   1.992   .     S
C783   C807    1.466   .     S
C784   C808    1.456   .     S
H787   C791    1.082   .     S
H788   C792    1.081   .     S
H789   C793    1.081   .     S
H790   C794    1.082   .     S
C791   C1214   1.414   1_545 S
C792   C1003   1.414   .     S
C793   C1212   1.414   1_545 S
C794   C1001   1.414   .     S
C795   C812    1.404   .     A
C795   N829    1.435   .     S
C796   N832    1.432   .     S
C796   C811    1.402   .     A
C796   C658    1.382   1_655 S
C797   C811    1.403   .     A
C797   N835    1.437   .     S
C797   C655    1.385   1_655 S
C798   C812    1.403   .     A
C798   N838    1.438   .     S
C799   C809    1.392   .     A
C799   H813    1.084   .     S
C799   C803    1.387   .     A
C800   C810    1.395   .     A
C800   H814    1.084   .     S
C800   C804    1.381   .     A
C801   H815    1.084   .     S
C801   C805    1.389   .     A
C801   C810    1.393   .     A
C802   C806    1.383   .     A
C802   C809    1.391   .     A
C802   H816    1.084   .     S
C803   C807    1.422   .     A
C803   N817    1.433   .     S
C804   N820    1.433   .     S
C804   C808    1.415   .     A
C805   N823    1.436   .     S
C805   C808    1.420   .     A
C806   N826    1.432   .     S
C806   C807    1.422   .     A
C810   C179    1.450   1_556 S
N817   O818    1.299   .     A
N817   O819    1.301   .     A
N820   O822    1.301   .     A
N820   O821    1.301   .     A
N823   O824    1.301   .     A
N823   O825    1.301   .     A
N826   O828    1.301   .     A
N826   O827    1.301   .     A
N829   O830    1.302   .     A
N829   O831    1.301   .     A
N832   O833    1.301   .     A
N832   O834    1.301   .     A
N835   O837    1.301   .     A
N835   O836    1.301   .     A
N838   O840    1.300   .     A
N838   O839    1.301   .     A
O841   Zn855   1.987   .     S
O841   C847    1.279   .     A
O842   Zn856   1.987   .     S
O842   C848    1.280   .     A
O843   Zn855   1.998   .     S
O843   C848    1.274   .     A
O844   Zn856   1.998   .     S
O844   C847    1.274   .     A
N845   C864    1.365   .     A
N845   Zn855   2.003   .     S
N845   C862    1.365   .     A
N846   C863    1.365   .     A
N846   Zn856   2.003   .     S
N846   C861    1.366   .     A
C847   C882    1.412   .     S
C848   C881    1.416   .     S
O849   Zn855   1.996   .     S
O849   C853    1.292   .     A
O850   Zn856   1.996   .     S
O850   C854    1.285   .     A
O851   Zn855   1.992   .     S
O851   C854    1.291   .     A
O852   C853    1.291   .     A
O852   Zn856   1.992   .     S
C853   C877    1.466   .     S
C854   C878    1.456   .     S
H857   C861    1.082   .     S
H858   C862    1.081   .     S
H859   C863    1.081   .     S
H860   C864    1.082   .     S
C862   C1073   1.414   .     S
C864   C1071   1.414   .     S
C865   C882    1.404   .     A
C865   N899    1.435   .     S
C865   C1007   1.385   1_455 S
C866   N902    1.432   .     S
C866   C881    1.402   .     A
C866   C938    1.382   .     S
C867   C881    1.403   .     A
C867   N905    1.437   .     S
C867   C935    1.385   .     S
C868   C882    1.403   .     A
C868   N908    1.438   .     S
C868   C1006   1.382   1_455 S
C869   C879    1.392   .     A
C869   H883    1.084   .     S
C869   C873    1.387   .     A
C870   C880    1.395   .     A
C870   H884    1.084   .     S
C870   C874    1.381   .     A
C871   H885    1.084   .     S
C871   C875    1.389   .     A
C871   C880    1.393   .     A
C872   C876    1.383   .     A
C872   C879    1.391   .     A
C872   H886    1.084   .     S
C873   C877    1.422   .     A
C873   N887    1.433   .     S
C874   N890    1.433   .     S
C874   C878    1.415   .     A
C875   N893    1.436   .     S
C875   C878    1.420   .     A
C876   N896    1.432   .     S
C876   C877    1.422   .     A
C880   C249    1.450   1_556 S
N887   O888    1.299   .     A
N887   O889    1.301   .     A
N890   O892    1.301   .     A
N890   O891    1.301   .     A
N893   O894    1.301   .     A
N893   O895    1.301   .     A
N896   O898    1.301   .     A
N896   O897    1.301   .     A
N899   O900    1.302   .     A
N899   O901    1.301   .     A
N902   O903    1.301   .     A
N902   O904    1.301   .     A
N905   O907    1.301   .     A
N905   O906    1.301   .     A
N908   O910    1.300   .     A
N908   O909    1.301   .     A
O911   Zn925   1.987   .     S
O911   C917    1.279   .     A
O912   Zn926   1.987   .     S
O912   C918    1.280   .     A
O913   Zn925   1.998   .     S
O913   C918    1.274   .     A
O914   Zn926   1.998   .     S
O914   C917    1.274   .     A
N915   C934    1.365   .     A
N915   Zn925   2.003   .     S
N915   C932    1.365   .     A
N916   C933    1.365   .     A
N916   Zn926   2.003   .     S
N916   C931    1.366   .     A
C917   C952    1.412   .     S
C918   C951    1.416   .     S
O919   Zn925   1.996   .     S
O919   C923    1.292   .     A
O920   Zn926   1.996   .     S
O920   C924    1.285   .     A
O921   Zn925   1.992   .     S
O921   C924    1.291   .     A
O922   C923    1.291   .     A
O922   Zn926   1.992   .     S
C923   C947    1.466   .     S
C924   C948    1.456   .     S
H927   C931    1.082   .     S
H928   C932    1.081   .     S
H929   C933    1.081   .     S
H930   C934    1.082   .     S
C932   C1143   1.414   .     S
C934   C1141   1.414   .     S
C935   C952    1.404   .     A
C935   N969    1.435   .     S
C936   N972    1.432   .     S
C936   C951    1.402   .     A
C936   C1008   1.382   .     S
C937   C951    1.403   .     A
C937   N975    1.437   .     S
C937   C1005   1.385   .     S
C938   C952    1.403   .     A
C938   N978    1.438   .     S
C939   C949    1.392   .     A
C939   H953    1.084   .     S
C939   C943    1.387   .     A
C940   C950    1.395   .     A
C940   H954    1.084   .     S
C940   C944    1.381   .     A
C941   H955    1.084   .     S
C941   C945    1.389   .     A
C941   C950    1.393   .     A
C942   C946    1.383   .     A
C942   C949    1.391   .     A
C942   H956    1.084   .     S
C943   C947    1.422   .     A
C943   N957    1.433   .     S
C944   N960    1.433   .     S
C944   C948    1.415   .     A
C945   N963    1.436   .     S
C945   C948    1.420   .     A
C946   N966    1.432   .     S
C946   C947    1.422   .     A
C950   C319    1.450   1_556 S
N957   O958    1.299   .     A
N957   O959    1.301   .     A
N960   O962    1.301   .     A
N960   O961    1.301   .     A
N963   O964    1.301   .     A
N963   O965    1.301   .     A
N966   O968    1.301   .     A
N966   O967    1.301   .     A
N969   O970    1.302   .     A
N969   O971    1.301   .     A
N972   O973    1.301   .     A
N972   O974    1.301   .     A
N975   O977    1.301   .     A
N975   O976    1.301   .     A
N978   O980    1.300   .     A
N978   O979    1.301   .     A
O981   Zn995   1.987   .     S
O981   C987    1.279   .     A
O982   Zn996   1.987   .     S
O982   C988    1.280   .     A
O983   Zn995   1.998   .     S
O983   C988    1.274   .     A
O984   Zn996   1.998   .     S
O984   C987    1.274   .     A
N985   C1004   1.365   .     A
N985   Zn995   2.003   .     S
N985   C1002   1.365   .     A
N986   C1003   1.365   .     A
N986   Zn996   2.003   .     S
N986   C1001   1.366   .     A
C987   C1022   1.412   .     S
C988   C1021   1.416   .     S
O989   Zn995   1.996   .     S
O989   C993    1.292   .     A
O990   Zn996   1.996   .     S
O990   C994    1.285   .     A
O991   Zn995   1.992   .     S
O991   C994    1.291   .     A
O992   C993    1.291   .     A
O992   Zn996   1.992   .     S
C993   C1017   1.466   .     S
C994   C1018   1.456   .     S
H997   C1001   1.082   .     S
H998   C1002   1.081   .     S
H999   C1003   1.081   .     S
H1000  C1004   1.082   .     S
C1002  C1213   1.414   .     S
C1004  C1211   1.414   .     S
C1005  C1022   1.404   .     A
C1005  N1039   1.435   .     S
C1006  N1042   1.432   .     S
C1006  C1021   1.402   .     A
C1006  C868    1.382   1_655 S
C1007  C1021   1.403   .     A
C1007  N1045   1.437   .     S
C1007  C865    1.385   1_655 S
C1008  C1022   1.403   .     A
C1008  N1048   1.438   .     S
C1009  C1019   1.392   .     A
C1009  H1023   1.084   .     S
C1009  C1013   1.387   .     A
C1010  C1020   1.395   .     A
C1010  H1024   1.084   .     S
C1010  C1014   1.381   .     A
C1011  H1025   1.084   .     S
C1011  C1015   1.389   .     A
C1011  C1020   1.393   .     A
C1012  C1016   1.383   .     A
C1012  C1019   1.391   .     A
C1012  H1026   1.084   .     S
C1013  C1017   1.422   .     A
C1013  N1027   1.433   .     S
C1014  N1030   1.433   .     S
C1014  C1018   1.415   .     A
C1015  N1033   1.436   .     S
C1015  C1018   1.420   .     A
C1016  N1036   1.432   .     S
C1016  C1017   1.422   .     A
C1020  C389    1.450   1_556 S
N1027  O1028   1.299   .     A
N1027  O1029   1.301   .     A
N1030  O1032   1.301   .     A
N1030  O1031   1.301   .     A
N1033  O1034   1.301   .     A
N1033  O1035   1.301   .     A
N1036  O1038   1.301   .     A
N1036  O1037   1.301   .     A
N1039  O1040   1.302   .     A
N1039  O1041   1.301   .     A
N1042  O1043   1.301   .     A
N1042  O1044   1.301   .     A
N1045  O1047   1.301   .     A
N1045  O1046   1.301   .     A
N1048  O1050   1.300   .     A
N1048  O1049   1.301   .     A
O1051  Zn1065  1.987   .     S
O1051  C1057   1.279   .     A
O1052  Zn1066  1.987   .     S
O1052  C1058   1.280   .     A
O1053  Zn1065  1.998   .     S
O1053  C1058   1.274   .     A
O1054  Zn1066  1.998   .     S
O1054  C1057   1.274   .     A
N1055  C1074   1.365   .     A
N1055  Zn1065  2.003   .     S
N1055  C1072   1.365   .     A
N1056  C1073   1.365   .     A
N1056  Zn1066  2.003   .     S
N1056  C1071   1.366   .     A
C1057  C1092   1.412   .     S
C1058  C1091   1.416   .     S
O1059  Zn1065  1.996   .     S
O1059  C1063   1.292   .     A
O1060  Zn1066  1.996   .     S
O1060  C1064   1.285   .     A
O1061  Zn1065  1.992   .     S
O1061  C1064   1.291   .     A
O1062  C1063   1.291   .     A
O1062  Zn1066  1.992   .     S
C1063  C1087   1.466   .     S
C1064  C1088   1.456   .     S
H1067  C1071   1.082   .     S
H1068  C1072   1.081   .     S
H1069  C1073   1.081   .     S
H1070  C1074   1.082   .     S
C1072  C653    1.414   1_565 S
C1074  C651    1.414   1_565 S
C1075  C1092   1.404   .     A
C1075  N1109   1.435   .     S
C1075  C1217   1.385   1_455 S
C1076  N1112   1.432   .     S
C1076  C1091   1.402   .     A
C1076  C1148   1.382   .     S
C1077  C1091   1.403   .     A
C1077  N1115   1.437   .     S
C1077  C1145   1.385   .     S
C1078  C1092   1.403   .     A
C1078  N1118   1.438   .     S
C1078  C1216   1.382   1_455 S
C1079  C1089   1.392   .     A
C1079  H1093   1.084   .     S
C1079  C1083   1.387   .     A
C1080  C1090   1.395   .     A
C1080  H1094   1.084   .     S
C1080  C1084   1.381   .     A
C1081  H1095   1.084   .     S
C1081  C1085   1.389   .     A
C1081  C1090   1.393   .     A
C1082  C1086   1.383   .     A
C1082  C1089   1.391   .     A
C1082  H1096   1.084   .     S
C1083  C1087   1.422   .     A
C1083  N1097   1.433   .     S
C1084  N1100   1.433   .     S
C1084  C1088   1.415   .     A
C1085  N1103   1.436   .     S
C1085  C1088   1.420   .     A
C1086  N1106   1.432   .     S
C1086  C1087   1.422   .     A
C1090  C459    1.450   1_556 S
N1097  O1098   1.299   .     A
N1097  O1099   1.301   .     A
N1100  O1102   1.301   .     A
N1100  O1101   1.301   .     A
N1103  O1104   1.301   .     A
N1103  O1105   1.301   .     A
N1106  O1108   1.301   .     A
N1106  O1107   1.301   .     A
N1109  O1110   1.302   .     A
N1109  O1111   1.301   .     A
N1112  O1113   1.301   .     A
N1112  O1114   1.301   .     A
N1115  O1117   1.301   .     A
N1115  O1116   1.301   .     A
N1118  O1120   1.300   .     A
N1118  O1119   1.301   .     A
O1121  Zn1135  1.987   .     S
O1121  C1127   1.279   .     A
O1122  Zn1136  1.987   .     S
O1122  C1128   1.280   .     A
O1123  Zn1135  1.998   .     S
O1123  C1128   1.274   .     A
O1124  Zn1136  1.998   .     S
O1124  C1127   1.274   .     A
N1125  C1144   1.365   .     A
N1125  Zn1135  2.003   .     S
N1125  C1142   1.365   .     A
N1126  C1143   1.365   .     A
N1126  Zn1136  2.003   .     S
N1126  C1141   1.366   .     A
C1127  C1162   1.412   .     S
C1128  C1161   1.416   .     S
O1129  Zn1135  1.996   .     S
O1129  C1133   1.292   .     A
O1130  Zn1136  1.996   .     S
O1130  C1134   1.285   .     A
O1131  Zn1135  1.992   .     S
O1131  C1134   1.291   .     A
O1132  C1133   1.291   .     A
O1132  Zn1136  1.992   .     S
C1133  C1157   1.466   .     S
C1134  C1158   1.456   .     S
H1137  C1141   1.082   .     S
H1138  C1142   1.081   .     S
H1139  C1143   1.081   .     S
H1140  C1144   1.082   .     S
C1142  C723    1.414   1_565 S
C1144  C721    1.414   1_565 S
C1145  C1162   1.404   .     A
C1145  N1179   1.435   .     S
C1146  N1182   1.432   .     S
C1146  C1161   1.402   .     A
C1146  C1218   1.382   .     S
C1147  C1161   1.403   .     A
C1147  N1185   1.437   .     S
C1147  C1215   1.385   .     S
C1148  C1162   1.403   .     A
C1148  N1188   1.438   .     S
C1149  C1159   1.392   .     A
C1149  H1163   1.084   .     S
C1149  C1153   1.387   .     A
C1150  C1160   1.395   .     A
C1150  H1164   1.084   .     S
C1150  C1154   1.381   .     A
C1151  H1165   1.084   .     S
C1151  C1155   1.389   .     A
C1151  C1160   1.393   .     A
C1152  C1156   1.383   .     A
C1152  C1159   1.391   .     A
C1152  H1166   1.084   .     S
C1153  C1157   1.422   .     A
C1153  N1167   1.433   .     S
C1154  N1170   1.433   .     S
C1154  C1158   1.415   .     A
C1155  N1173   1.436   .     S
C1155  C1158   1.420   .     A
C1156  N1176   1.432   .     S
C1156  C1157   1.422   .     A
C1160  C529    1.450   1_556 S
N1167  O1168   1.299   .     A
N1167  O1169   1.301   .     A
N1170  O1172   1.301   .     A
N1170  O1171   1.301   .     A
N1173  O1174   1.301   .     A
N1173  O1175   1.301   .     A
N1176  O1178   1.301   .     A
N1176  O1177   1.301   .     A
N1179  O1180   1.302   .     A
N1179  O1181   1.301   .     A
N1182  O1183   1.301   .     A
N1182  O1184   1.301   .     A
N1185  O1187   1.301   .     A
N1185  O1186   1.301   .     A
N1188  O1190   1.300   .     A
N1188  O1189   1.301   .     A
O1191  Zn1205  1.987   .     S
O1191  C1197   1.279   .     A
O1192  Zn1206  1.987   .     S
O1192  C1198   1.280   .     A
O1193  Zn1205  1.998   .     S
O1193  C1198   1.274   .     A
O1194  Zn1206  1.998   .     S
O1194  C1197   1.274   .     A
N1195  C1214   1.365   .     A
N1195  Zn1205  2.003   .     S
N1195  C1212   1.365   .     A
N1196  C1213   1.365   .     A
N1196  Zn1206  2.003   .     S
N1196  C1211   1.366   .     A
C1197  C1232   1.412   .     S
C1198  C1231   1.416   .     S
O1199  Zn1205  1.996   .     S
O1199  C1203   1.292   .     A
O1200  Zn1206  1.996   .     S
O1200  C1204   1.285   .     A
O1201  Zn1205  1.992   .     S
O1201  C1204   1.291   .     A
O1202  C1203   1.291   .     A
O1202  Zn1206  1.992   .     S
C1203  C1227   1.466   .     S
C1204  C1228   1.456   .     S
H1207  C1211   1.082   .     S
H1208  C1212   1.081   .     S
H1209  C1213   1.081   .     S
H1210  C1214   1.082   .     S
C1212  C793    1.414   1_565 S
C1214  C791    1.414   1_565 S
C1215  C1232   1.404   .     A
C1215  N1249   1.435   .     S
C1216  N1252   1.432   .     S
C1216  C1231   1.402   .     A
C1216  C1078   1.382   1_655 S
C1217  C1231   1.403   .     A
C1217  N1255   1.437   .     S
C1217  C1075   1.385   1_655 S
C1218  C1232   1.403   .     A
C1218  N1258   1.438   .     S
C1219  C1229   1.392   .     A
C1219  H1233   1.084   .     S
C1219  C1223   1.387   .     A
C1220  C1230   1.395   .     A
C1220  H1234   1.084   .     S
C1220  C1224   1.381   .     A
C1221  H1235   1.084   .     S
C1221  C1225   1.389   .     A
C1221  C1230   1.393   .     A
C1222  C1226   1.383   .     A
C1222  C1229   1.391   .     A
C1222  H1236   1.084   .     S
C1223  C1227   1.422   .     A
C1223  N1237   1.433   .     S
C1224  N1240   1.433   .     S
C1224  C1228   1.415   .     A
C1225  N1243   1.436   .     S
C1225  C1228   1.420   .     A
C1226  N1246   1.432   .     S
C1226  C1227   1.422   .     A
C1230  C599    1.450   1_556 S
N1237  O1238   1.299   .     A
N1237  O1239   1.301   .     A
N1240  O1242   1.301   .     A
N1240  O1241   1.301   .     A
N1243  O1244   1.301   .     A
N1243  O1245   1.301   .     A
N1246  O1248   1.301   .     A
N1246  O1247   1.301   .     A
N1249  O1250   1.302   .     A
N1249  O1251   1.301   .     A
N1252  O1253   1.301   .     A
N1252  O1254   1.301   .     A
N1255  O1257   1.301   .     A
N1255  O1256   1.301   .     A
N1258  O1260   1.300   .     A
N1258  O1259   1.301   .     A
