data_str_m2_o10_o17_pcu_sym.192
_audit_creation_date              2020-01-03
_audit_creation_method            'Materials Studio'
_symmetry_space_group_name_H-M    'P1'
_symmetry_Int_Tables_number       1
_symmetry_cell_setting            triclinic
loop_
_symmetry_equiv_pos_as_xyz
  x,y,z
_cell_length_a                    29.9173
_cell_length_b                    26.0122
_cell_length_c                    22.5914
_cell_angle_alpha                 103.2209
_cell_angle_beta                  94.7938
_cell_angle_gamma                 93.7055
loop_
_atom_site_label
_atom_site_type_symbol
_atom_site_fract_x
_atom_site_fract_y
_atom_site_fract_z
_atom_site_U_iso_or_equiv
_atom_site_adp_type
_atom_site_occupancy
C1     C     0.24860   0.06662   0.15102   0.00000  Uiso   1.00
C2     C     0.25140   0.26672   0.18231   0.00000  Uiso   1.00
C3     C     0.01446   0.06943   0.13953   0.00000  Uiso   1.00
C4     C     0.48554   0.26390   0.19380   0.00000  Uiso   1.00
C5     C     0.24767   0.01046   0.14244   0.00000  Uiso   1.00
C6     C     0.25233   0.32287   0.19089   0.00000  Uiso   1.00
C7     C     0.16466   0.16606   0.16703   0.00000  Uiso   1.00
C8     C     0.33534   0.16727   0.16631   0.00000  Uiso   1.00
C9     C     0.41019   0.21687   0.17970   0.00000  Uiso   1.00
C10    C     0.08981   0.11646   0.15363   0.00000  Uiso   1.00
C11    C     0.38351   0.16839   0.16553   0.00000  Uiso   1.00
C12    C     0.11649   0.16495   0.16780   0.00000  Uiso   1.00
C13    C     0.40252   0.12012   0.15169   0.00000  Uiso   1.00
C14    C     0.09748   0.21321   0.18165   0.00000  Uiso   1.00
C15    C     0.44891   0.11914   0.15220   0.00000  Uiso   1.00
C16    C     0.05109   0.21420   0.18113   0.00000  Uiso   1.00
C17    C     0.47652   0.16727   0.16638   0.00000  Uiso   1.00
C18    C     0.02348   0.16606   0.16695   0.00000  Uiso   1.00
C19    C     0.45723   0.21653   0.18004   0.00000  Uiso   1.00
C20    C     0.04277   0.11681   0.15330   0.00000  Uiso   1.00
C21    C     0.46803   0.07067   0.13900   0.00000  Uiso   1.00
C22    C     0.03197   0.26267   0.19433   0.00000  Uiso   1.00
Cu23   Cu    0.25500   0.17246   0.22813   0.00000  Uiso   1.00
Cu24   Cu    0.24499   0.16087   0.10521   0.00000  Uiso   1.00
H25    H     0.38100   0.08330   0.14112   0.00000  Uiso   1.00
H26    H     0.11900   0.25003   0.19221   0.00000  Uiso   1.00
H27    H     0.02768   0.03105   0.12898   0.00000  Uiso   1.00
H28    H     0.47232   0.30229   0.20435   0.00000  Uiso   1.00
H29    H     0.24304   0.31959   0.09592   0.00000  Uiso   1.00
H30    H     0.25696   0.01374   0.23742   0.00000  Uiso   1.00
N31    N     0.23744   0.15214   0.01284   0.00000  Uiso   1.00
N32    N     0.26255   0.18119   0.32049   0.00000  Uiso   1.00
O33    O     0.25325   0.09538   0.20659   0.00000  Uiso   1.00
O34    O     0.24674   0.23796   0.12674   0.00000  Uiso   1.00
O35    O     0.24480   0.08559   0.10279   0.00000  Uiso   1.00
O36    O     0.25520   0.24774   0.23055   0.00000  Uiso   1.00
O37    O     0.18935   0.17155   0.21857   0.00000  Uiso   1.00
O38    O     0.31064   0.16179   0.11476   0.00000  Uiso   1.00
O39    O     0.18090   0.16176   0.11477   0.00000  Uiso   1.00
O40    O     0.31910   0.17157   0.21857   0.00000  Uiso   1.00
Br41   Br    0.38154   0.28249   0.19812   0.00000  Uiso   1.00
Br42   Br    0.11846   0.05084   0.13522   0.00000  Uiso   1.00
H43    H     0.44699   0.03356   0.12822   0.00000  Uiso   1.00
H44    H     0.05301   0.29977   0.20511   0.00000  Uiso   1.00
Br45   Br    0.19226   0.10138   0.30091   0.00000  Uiso   1.00
Br46   Br    0.30774   0.23195   0.03243   0.00000  Uiso   1.00
C47    C     0.74860   0.06662   0.15102   0.00000  Uiso   1.00
C48    C     0.75140   0.26672   0.18231   0.00000  Uiso   1.00
C49    C     0.51446   0.06943   0.13953   0.00000  Uiso   1.00
C50    C     0.98554   0.26390   0.19380   0.00000  Uiso   1.00
C51    C     0.74767   0.01046   0.14244   0.00000  Uiso   1.00
C52    C     0.75233   0.32287   0.19089   0.00000  Uiso   1.00
C53    C     0.66466   0.16606   0.16703   0.00000  Uiso   1.00
C54    C     0.83534   0.16727   0.16631   0.00000  Uiso   1.00
C55    C     0.91019   0.21687   0.17970   0.00000  Uiso   1.00
C56    C     0.58981   0.11646   0.15363   0.00000  Uiso   1.00
C57    C     0.88351   0.16839   0.16553   0.00000  Uiso   1.00
C58    C     0.61649   0.16495   0.16780   0.00000  Uiso   1.00
C59    C     0.90252   0.12012   0.15169   0.00000  Uiso   1.00
C60    C     0.59748   0.21321   0.18165   0.00000  Uiso   1.00
C61    C     0.94891   0.11914   0.15220   0.00000  Uiso   1.00
C62    C     0.55109   0.21420   0.18113   0.00000  Uiso   1.00
C63    C     0.97652   0.16727   0.16638   0.00000  Uiso   1.00
C64    C     0.52348   0.16606   0.16695   0.00000  Uiso   1.00
C65    C     0.95723   0.21653   0.18004   0.00000  Uiso   1.00
C66    C     0.54277   0.11681   0.15330   0.00000  Uiso   1.00
C67    C     0.96803   0.07067   0.13900   0.00000  Uiso   1.00
C68    C     0.53197   0.26267   0.19433   0.00000  Uiso   1.00
Cu69   Cu    0.75500   0.17246   0.22813   0.00000  Uiso   1.00
Cu70   Cu    0.74499   0.16087   0.10521   0.00000  Uiso   1.00
H71    H     0.88100   0.08330   0.14112   0.00000  Uiso   1.00
H72    H     0.61900   0.25003   0.19221   0.00000  Uiso   1.00
H73    H     0.52768   0.03105   0.12898   0.00000  Uiso   1.00
H74    H     0.97232   0.30229   0.20435   0.00000  Uiso   1.00
H75    H     0.74304   0.31959   0.09592   0.00000  Uiso   1.00
H76    H     0.75696   0.01374   0.23742   0.00000  Uiso   1.00
N77    N     0.73744   0.15214   0.01284   0.00000  Uiso   1.00
N78    N     0.76255   0.18119   0.32049   0.00000  Uiso   1.00
O79    O     0.75325   0.09538   0.20659   0.00000  Uiso   1.00
O80    O     0.74674   0.23796   0.12674   0.00000  Uiso   1.00
O81    O     0.74480   0.08559   0.10279   0.00000  Uiso   1.00
O82    O     0.75520   0.24774   0.23055   0.00000  Uiso   1.00
O83    O     0.68935   0.17155   0.21857   0.00000  Uiso   1.00
O84    O     0.81064   0.16179   0.11476   0.00000  Uiso   1.00
O85    O     0.68090   0.16176   0.11477   0.00000  Uiso   1.00
O86    O     0.81910   0.17157   0.21857   0.00000  Uiso   1.00
Br87   Br    0.88154   0.28249   0.19812   0.00000  Uiso   1.00
Br88   Br    0.61846   0.05084   0.13522   0.00000  Uiso   1.00
H89    H     0.94699   0.03356   0.12822   0.00000  Uiso   1.00
H90    H     0.55301   0.29977   0.20511   0.00000  Uiso   1.00
Br91   Br    0.69226   0.10138   0.30091   0.00000  Uiso   1.00
Br92   Br    0.80774   0.23195   0.03243   0.00000  Uiso   1.00
C93    C     0.24860   0.39995   0.15102   0.00000  Uiso   1.00
C94    C     0.25140   0.60005   0.18231   0.00000  Uiso   1.00
C95    C     0.01446   0.40276   0.13953   0.00000  Uiso   1.00
C96    C     0.48554   0.59723   0.19380   0.00000  Uiso   1.00
C97    C     0.24767   0.34379   0.14244   0.00000  Uiso   1.00
C98    C     0.25233   0.65621   0.19089   0.00000  Uiso   1.00
C99    C     0.16466   0.49939   0.16703   0.00000  Uiso   1.00
C100   C     0.33534   0.50061   0.16631   0.00000  Uiso   1.00
C101   C     0.41019   0.55020   0.17970   0.00000  Uiso   1.00
C102   C     0.08981   0.44980   0.15363   0.00000  Uiso   1.00
C103   C     0.38351   0.50172   0.16553   0.00000  Uiso   1.00
C104   C     0.11649   0.49828   0.16780   0.00000  Uiso   1.00
C105   C     0.40252   0.45346   0.15169   0.00000  Uiso   1.00
C106   C     0.09748   0.54654   0.18165   0.00000  Uiso   1.00
C107   C     0.44891   0.45247   0.15220   0.00000  Uiso   1.00
C108   C     0.05109   0.54753   0.18113   0.00000  Uiso   1.00
C109   C     0.47652   0.50060   0.16638   0.00000  Uiso   1.00
C110   C     0.02348   0.49940   0.16695   0.00000  Uiso   1.00
C111   C     0.45723   0.54986   0.18004   0.00000  Uiso   1.00
C112   C     0.04277   0.45014   0.15330   0.00000  Uiso   1.00
C113   C     0.46803   0.40400   0.13900   0.00000  Uiso   1.00
C114   C     0.03197   0.59600   0.19433   0.00000  Uiso   1.00
Cu115  Cu    0.25500   0.50579   0.22813   0.00000  Uiso   1.00
Cu116  Cu    0.24499   0.49421   0.10521   0.00000  Uiso   1.00
H117   H     0.38100   0.41664   0.14112   0.00000  Uiso   1.00
H118   H     0.11900   0.58336   0.19221   0.00000  Uiso   1.00
H119   H     0.02768   0.36438   0.12898   0.00000  Uiso   1.00
H120   H     0.47232   0.63562   0.20435   0.00000  Uiso   1.00
H121   H     0.24304   0.65292   0.09592   0.00000  Uiso   1.00
H122   H     0.25696   0.34708   0.23742   0.00000  Uiso   1.00
N123   N     0.23744   0.48547   0.01284   0.00000  Uiso   1.00
N124   N     0.26255   0.51453   0.32049   0.00000  Uiso   1.00
O125   O     0.25325   0.42871   0.20659   0.00000  Uiso   1.00
O126   O     0.24674   0.57129   0.12674   0.00000  Uiso   1.00
O127   O     0.24480   0.41892   0.10279   0.00000  Uiso   1.00
O128   O     0.25520   0.58108   0.23055   0.00000  Uiso   1.00
O129   O     0.18935   0.50488   0.21857   0.00000  Uiso   1.00
O130   O     0.31064   0.49512   0.11476   0.00000  Uiso   1.00
O131   O     0.18090   0.49510   0.11477   0.00000  Uiso   1.00
O132   O     0.31910   0.50490   0.21857   0.00000  Uiso   1.00
Br133  Br    0.38154   0.61582   0.19812   0.00000  Uiso   1.00
Br134  Br    0.11846   0.38418   0.13522   0.00000  Uiso   1.00
H135   H     0.44699   0.36689   0.12822   0.00000  Uiso   1.00
H136   H     0.05301   0.63311   0.20511   0.00000  Uiso   1.00
Br137  Br    0.19226   0.43472   0.30091   0.00000  Uiso   1.00
Br138  Br    0.30774   0.56528   0.03243   0.00000  Uiso   1.00
C139   C     0.74860   0.39995   0.15102   0.00000  Uiso   1.00
C140   C     0.75140   0.60005   0.18231   0.00000  Uiso   1.00
C141   C     0.51446   0.40276   0.13953   0.00000  Uiso   1.00
C142   C     0.98554   0.59723   0.19380   0.00000  Uiso   1.00
C143   C     0.74767   0.34379   0.14244   0.00000  Uiso   1.00
C144   C     0.75233   0.65621   0.19089   0.00000  Uiso   1.00
C145   C     0.66466   0.49939   0.16703   0.00000  Uiso   1.00
C146   C     0.83534   0.50061   0.16631   0.00000  Uiso   1.00
C147   C     0.91019   0.55020   0.17970   0.00000  Uiso   1.00
C148   C     0.58981   0.44980   0.15363   0.00000  Uiso   1.00
C149   C     0.88351   0.50172   0.16553   0.00000  Uiso   1.00
C150   C     0.61649   0.49828   0.16780   0.00000  Uiso   1.00
C151   C     0.90252   0.45346   0.15169   0.00000  Uiso   1.00
C152   C     0.59748   0.54654   0.18165   0.00000  Uiso   1.00
C153   C     0.94891   0.45247   0.15220   0.00000  Uiso   1.00
C154   C     0.55109   0.54753   0.18113   0.00000  Uiso   1.00
C155   C     0.97652   0.50060   0.16638   0.00000  Uiso   1.00
C156   C     0.52348   0.49940   0.16695   0.00000  Uiso   1.00
C157   C     0.95723   0.54986   0.18004   0.00000  Uiso   1.00
C158   C     0.54277   0.45014   0.15330   0.00000  Uiso   1.00
C159   C     0.96803   0.40400   0.13900   0.00000  Uiso   1.00
C160   C     0.53197   0.59600   0.19433   0.00000  Uiso   1.00
Cu161  Cu    0.75500   0.50579   0.22813   0.00000  Uiso   1.00
Cu162  Cu    0.74499   0.49421   0.10521   0.00000  Uiso   1.00
H163   H     0.88100   0.41664   0.14112   0.00000  Uiso   1.00
H164   H     0.61900   0.58336   0.19221   0.00000  Uiso   1.00
H165   H     0.52768   0.36438   0.12898   0.00000  Uiso   1.00
H166   H     0.97232   0.63562   0.20435   0.00000  Uiso   1.00
H167   H     0.74304   0.65292   0.09592   0.00000  Uiso   1.00
H168   H     0.75696   0.34708   0.23742   0.00000  Uiso   1.00
N169   N     0.73744   0.48547   0.01284   0.00000  Uiso   1.00
N170   N     0.76255   0.51453   0.32049   0.00000  Uiso   1.00
O171   O     0.75325   0.42871   0.20659   0.00000  Uiso   1.00
O172   O     0.74674   0.57129   0.12674   0.00000  Uiso   1.00
O173   O     0.74480   0.41892   0.10279   0.00000  Uiso   1.00
O174   O     0.75520   0.58108   0.23055   0.00000  Uiso   1.00
O175   O     0.68935   0.50488   0.21857   0.00000  Uiso   1.00
O176   O     0.81064   0.49512   0.11476   0.00000  Uiso   1.00
O177   O     0.68090   0.49510   0.11477   0.00000  Uiso   1.00
O178   O     0.81910   0.50490   0.21857   0.00000  Uiso   1.00
Br179  Br    0.88154   0.61582   0.19812   0.00000  Uiso   1.00
Br180  Br    0.61846   0.38418   0.13522   0.00000  Uiso   1.00
H181   H     0.94699   0.36689   0.12822   0.00000  Uiso   1.00
H182   H     0.55301   0.63311   0.20511   0.00000  Uiso   1.00
Br183  Br    0.69226   0.43472   0.30091   0.00000  Uiso   1.00
Br184  Br    0.80774   0.56528   0.03243   0.00000  Uiso   1.00
C185   C     0.24860   0.73328   0.15102   0.00000  Uiso   1.00
C186   C     0.25140   0.93338   0.18231   0.00000  Uiso   1.00
C187   C     0.01446   0.73610   0.13953   0.00000  Uiso   1.00
C188   C     0.48554   0.93057   0.19380   0.00000  Uiso   1.00
C189   C     0.24767   0.67713   0.14244   0.00000  Uiso   1.00
C190   C     0.25233   0.98954   0.19089   0.00000  Uiso   1.00
C191   C     0.16466   0.83273   0.16703   0.00000  Uiso   1.00
C192   C     0.33534   0.83394   0.16631   0.00000  Uiso   1.00
C193   C     0.41019   0.88354   0.17970   0.00000  Uiso   1.00
C194   C     0.08981   0.78313   0.15363   0.00000  Uiso   1.00
C195   C     0.38351   0.83505   0.16553   0.00000  Uiso   1.00
C196   C     0.11649   0.83161   0.16780   0.00000  Uiso   1.00
C197   C     0.40252   0.78679   0.15169   0.00000  Uiso   1.00
C198   C     0.09748   0.87988   0.18165   0.00000  Uiso   1.00
C199   C     0.44891   0.78580   0.15220   0.00000  Uiso   1.00
C200   C     0.05109   0.88086   0.18113   0.00000  Uiso   1.00
C201   C     0.47652   0.83394   0.16638   0.00000  Uiso   1.00
C202   C     0.02348   0.83273   0.16695   0.00000  Uiso   1.00
C203   C     0.45723   0.88319   0.18004   0.00000  Uiso   1.00
C204   C     0.04277   0.78347   0.15330   0.00000  Uiso   1.00
C205   C     0.46803   0.73733   0.13900   0.00000  Uiso   1.00
C206   C     0.03197   0.92933   0.19433   0.00000  Uiso   1.00
Cu207  Cu    0.25500   0.83913   0.22813   0.00000  Uiso   1.00
Cu208  Cu    0.24499   0.82754   0.10521   0.00000  Uiso   1.00
H209   H     0.38100   0.74997   0.14112   0.00000  Uiso   1.00
H210   H     0.11900   0.91670   0.19221   0.00000  Uiso   1.00
H211   H     0.02768   0.69771   0.12898   0.00000  Uiso   1.00
H212   H     0.47232   0.96895   0.20435   0.00000  Uiso   1.00
H213   H     0.24304   0.98626   0.09592   0.00000  Uiso   1.00
H214   H     0.25696   0.68041   0.23742   0.00000  Uiso   1.00
N215   N     0.23744   0.81881   0.01284   0.00000  Uiso   1.00
N216   N     0.26255   0.84786   0.32049   0.00000  Uiso   1.00
O217   O     0.25325   0.76204   0.20659   0.00000  Uiso   1.00
O218   O     0.24674   0.90462   0.12674   0.00000  Uiso   1.00
O219   O     0.24480   0.75226   0.10279   0.00000  Uiso   1.00
O220   O     0.25520   0.91441   0.23055   0.00000  Uiso   1.00
O221   O     0.18935   0.83821   0.21857   0.00000  Uiso   1.00
O222   O     0.31064   0.82845   0.11476   0.00000  Uiso   1.00
O223   O     0.18090   0.82843   0.11477   0.00000  Uiso   1.00
O224   O     0.31910   0.83824   0.21857   0.00000  Uiso   1.00
Br225  Br    0.38154   0.94916   0.19812   0.00000  Uiso   1.00
Br226  Br    0.11846   0.71751   0.13522   0.00000  Uiso   1.00
H227   H     0.44699   0.70023   0.12822   0.00000  Uiso   1.00
H228   H     0.05301   0.96644   0.20511   0.00000  Uiso   1.00
Br229  Br    0.19226   0.76805   0.30091   0.00000  Uiso   1.00
Br230  Br    0.30774   0.89862   0.03243   0.00000  Uiso   1.00
C231   C     0.74860   0.73328   0.15102   0.00000  Uiso   1.00
C232   C     0.75140   0.93338   0.18231   0.00000  Uiso   1.00
C233   C     0.51446   0.73610   0.13953   0.00000  Uiso   1.00
C234   C     0.98554   0.93057   0.19380   0.00000  Uiso   1.00
C235   C     0.74767   0.67713   0.14244   0.00000  Uiso   1.00
C236   C     0.75233   0.98954   0.19089   0.00000  Uiso   1.00
C237   C     0.66466   0.83273   0.16703   0.00000  Uiso   1.00
C238   C     0.83534   0.83394   0.16631   0.00000  Uiso   1.00
C239   C     0.91019   0.88354   0.17970   0.00000  Uiso   1.00
C240   C     0.58981   0.78313   0.15363   0.00000  Uiso   1.00
C241   C     0.88351   0.83505   0.16553   0.00000  Uiso   1.00
C242   C     0.61649   0.83161   0.16780   0.00000  Uiso   1.00
C243   C     0.90252   0.78679   0.15169   0.00000  Uiso   1.00
C244   C     0.59748   0.87988   0.18165   0.00000  Uiso   1.00
C245   C     0.94891   0.78580   0.15220   0.00000  Uiso   1.00
C246   C     0.55109   0.88086   0.18113   0.00000  Uiso   1.00
C247   C     0.97652   0.83394   0.16638   0.00000  Uiso   1.00
C248   C     0.52348   0.83273   0.16695   0.00000  Uiso   1.00
C249   C     0.95723   0.88319   0.18004   0.00000  Uiso   1.00
C250   C     0.54277   0.78347   0.15330   0.00000  Uiso   1.00
C251   C     0.96803   0.73733   0.13900   0.00000  Uiso   1.00
C252   C     0.53197   0.92933   0.19433   0.00000  Uiso   1.00
Cu253  Cu    0.75500   0.83913   0.22813   0.00000  Uiso   1.00
Cu254  Cu    0.74499   0.82754   0.10521   0.00000  Uiso   1.00
H255   H     0.88100   0.74997   0.14112   0.00000  Uiso   1.00
H256   H     0.61900   0.91670   0.19221   0.00000  Uiso   1.00
H257   H     0.52768   0.69771   0.12898   0.00000  Uiso   1.00
H258   H     0.97232   0.96895   0.20435   0.00000  Uiso   1.00
H259   H     0.74304   0.98626   0.09592   0.00000  Uiso   1.00
H260   H     0.75696   0.68041   0.23742   0.00000  Uiso   1.00
N261   N     0.73744   0.81881   0.01284   0.00000  Uiso   1.00
N262   N     0.76255   0.84786   0.32049   0.00000  Uiso   1.00
O263   O     0.75325   0.76204   0.20659   0.00000  Uiso   1.00
O264   O     0.74674   0.90462   0.12674   0.00000  Uiso   1.00
O265   O     0.74480   0.75226   0.10279   0.00000  Uiso   1.00
O266   O     0.75520   0.91441   0.23055   0.00000  Uiso   1.00
O267   O     0.68935   0.83821   0.21857   0.00000  Uiso   1.00
O268   O     0.81064   0.82845   0.11476   0.00000  Uiso   1.00
O269   O     0.68090   0.82843   0.11477   0.00000  Uiso   1.00
O270   O     0.81910   0.83824   0.21857   0.00000  Uiso   1.00
Br271  Br    0.88154   0.94916   0.19812   0.00000  Uiso   1.00
Br272  Br    0.61846   0.71751   0.13522   0.00000  Uiso   1.00
H273   H     0.94699   0.70023   0.12822   0.00000  Uiso   1.00
H274   H     0.55301   0.96644   0.20511   0.00000  Uiso   1.00
Br275  Br    0.69226   0.76805   0.30091   0.00000  Uiso   1.00
Br276  Br    0.80774   0.89862   0.03243   0.00000  Uiso   1.00
C277   C     0.24860   0.06662   0.48435   0.00000  Uiso   1.00
C278   C     0.25140   0.26672   0.51565   0.00000  Uiso   1.00
C279   C     0.01446   0.06943   0.47287   0.00000  Uiso   1.00
C280   C     0.48554   0.26390   0.52713   0.00000  Uiso   1.00
C281   C     0.24767   0.01046   0.47577   0.00000  Uiso   1.00
C282   C     0.25233   0.32287   0.52423   0.00000  Uiso   1.00
C283   C     0.16466   0.16606   0.50036   0.00000  Uiso   1.00
C284   C     0.33534   0.16727   0.49964   0.00000  Uiso   1.00
C285   C     0.41019   0.21687   0.51304   0.00000  Uiso   1.00
C286   C     0.08981   0.11646   0.48696   0.00000  Uiso   1.00
C287   C     0.38351   0.16839   0.49887   0.00000  Uiso   1.00
C288   C     0.11649   0.16495   0.50113   0.00000  Uiso   1.00
C289   C     0.40252   0.12012   0.48502   0.00000  Uiso   1.00
C290   C     0.09748   0.21321   0.51498   0.00000  Uiso   1.00
C291   C     0.44891   0.11914   0.48554   0.00000  Uiso   1.00
C292   C     0.05109   0.21420   0.51446   0.00000  Uiso   1.00
C293   C     0.47652   0.16727   0.49972   0.00000  Uiso   1.00
C294   C     0.02348   0.16606   0.50028   0.00000  Uiso   1.00
C295   C     0.45723   0.21653   0.51337   0.00000  Uiso   1.00
C296   C     0.04277   0.11681   0.48663   0.00000  Uiso   1.00
C297   C     0.46803   0.07067   0.47234   0.00000  Uiso   1.00
C298   C     0.03197   0.26267   0.52766   0.00000  Uiso   1.00
Cu299  Cu    0.25500   0.17246   0.56146   0.00000  Uiso   1.00
Cu300  Cu    0.24499   0.16087   0.43854   0.00000  Uiso   1.00
H301   H     0.38100   0.08330   0.47446   0.00000  Uiso   1.00
H302   H     0.11900   0.25003   0.52554   0.00000  Uiso   1.00
H303   H     0.02768   0.03105   0.46232   0.00000  Uiso   1.00
H304   H     0.47232   0.30229   0.53768   0.00000  Uiso   1.00
H305   H     0.24304   0.31959   0.42925   0.00000  Uiso   1.00
H306   H     0.25696   0.01374   0.57075   0.00000  Uiso   1.00
N307   N     0.23744   0.15214   0.34617   0.00000  Uiso   1.00
N308   N     0.26255   0.18119   0.65383   0.00000  Uiso   1.00
O309   O     0.25325   0.09538   0.53992   0.00000  Uiso   1.00
O310   O     0.24674   0.23796   0.46008   0.00000  Uiso   1.00
O311   O     0.24480   0.08559   0.43612   0.00000  Uiso   1.00
O312   O     0.25520   0.24774   0.56388   0.00000  Uiso   1.00
O313   O     0.18935   0.17155   0.55191   0.00000  Uiso   1.00
O314   O     0.31064   0.16179   0.44809   0.00000  Uiso   1.00
O315   O     0.18090   0.16176   0.44810   0.00000  Uiso   1.00
O316   O     0.31910   0.17157   0.55190   0.00000  Uiso   1.00
Br317  Br    0.38154   0.28249   0.53145   0.00000  Uiso   1.00
Br318  Br    0.11846   0.05084   0.46855   0.00000  Uiso   1.00
H319   H     0.44699   0.03356   0.46155   0.00000  Uiso   1.00
H320   H     0.05301   0.29977   0.53845   0.00000  Uiso   1.00
Br321  Br    0.19226   0.10138   0.63424   0.00000  Uiso   1.00
Br322  Br    0.30774   0.23195   0.36576   0.00000  Uiso   1.00
C323   C     0.74860   0.06662   0.48435   0.00000  Uiso   1.00
C324   C     0.75140   0.26672   0.51565   0.00000  Uiso   1.00
C325   C     0.51446   0.06943   0.47287   0.00000  Uiso   1.00
C326   C     0.98554   0.26390   0.52713   0.00000  Uiso   1.00
C327   C     0.74767   0.01046   0.47577   0.00000  Uiso   1.00
C328   C     0.75233   0.32287   0.52423   0.00000  Uiso   1.00
C329   C     0.66466   0.16606   0.50036   0.00000  Uiso   1.00
C330   C     0.83534   0.16727   0.49964   0.00000  Uiso   1.00
C331   C     0.91019   0.21687   0.51304   0.00000  Uiso   1.00
C332   C     0.58981   0.11646   0.48696   0.00000  Uiso   1.00
C333   C     0.88351   0.16839   0.49887   0.00000  Uiso   1.00
C334   C     0.61649   0.16495   0.50113   0.00000  Uiso   1.00
C335   C     0.90252   0.12012   0.48502   0.00000  Uiso   1.00
C336   C     0.59748   0.21321   0.51498   0.00000  Uiso   1.00
C337   C     0.94891   0.11914   0.48554   0.00000  Uiso   1.00
C338   C     0.55109   0.21420   0.51446   0.00000  Uiso   1.00
C339   C     0.97652   0.16727   0.49972   0.00000  Uiso   1.00
C340   C     0.52348   0.16606   0.50028   0.00000  Uiso   1.00
C341   C     0.95723   0.21653   0.51337   0.00000  Uiso   1.00
C342   C     0.54277   0.11681   0.48663   0.00000  Uiso   1.00
C343   C     0.96803   0.07067   0.47234   0.00000  Uiso   1.00
C344   C     0.53197   0.26267   0.52766   0.00000  Uiso   1.00
Cu345  Cu    0.75500   0.17246   0.56146   0.00000  Uiso   1.00
Cu346  Cu    0.74499   0.16087   0.43854   0.00000  Uiso   1.00
H347   H     0.88100   0.08330   0.47446   0.00000  Uiso   1.00
H348   H     0.61900   0.25003   0.52554   0.00000  Uiso   1.00
H349   H     0.52768   0.03105   0.46232   0.00000  Uiso   1.00
H350   H     0.97232   0.30229   0.53768   0.00000  Uiso   1.00
H351   H     0.74304   0.31959   0.42925   0.00000  Uiso   1.00
H352   H     0.75696   0.01374   0.57075   0.00000  Uiso   1.00
N353   N     0.73744   0.15214   0.34617   0.00000  Uiso   1.00
N354   N     0.76255   0.18119   0.65383   0.00000  Uiso   1.00
O355   O     0.75325   0.09538   0.53992   0.00000  Uiso   1.00
O356   O     0.74674   0.23796   0.46008   0.00000  Uiso   1.00
O357   O     0.74480   0.08559   0.43612   0.00000  Uiso   1.00
O358   O     0.75520   0.24774   0.56388   0.00000  Uiso   1.00
O359   O     0.68935   0.17155   0.55191   0.00000  Uiso   1.00
O360   O     0.81064   0.16179   0.44809   0.00000  Uiso   1.00
O361   O     0.68090   0.16176   0.44810   0.00000  Uiso   1.00
O362   O     0.81910   0.17157   0.55190   0.00000  Uiso   1.00
Br363  Br    0.88154   0.28249   0.53145   0.00000  Uiso   1.00
Br364  Br    0.61846   0.05084   0.46855   0.00000  Uiso   1.00
H365   H     0.94699   0.03356   0.46155   0.00000  Uiso   1.00
H366   H     0.55301   0.29977   0.53845   0.00000  Uiso   1.00
Br367  Br    0.69226   0.10138   0.63424   0.00000  Uiso   1.00
Br368  Br    0.80774   0.23195   0.36576   0.00000  Uiso   1.00
C369   C     0.24860   0.39995   0.48435   0.00000  Uiso   1.00
C370   C     0.25140   0.60005   0.51565   0.00000  Uiso   1.00
C371   C     0.01446   0.40276   0.47287   0.00000  Uiso   1.00
C372   C     0.48554   0.59723   0.52713   0.00000  Uiso   1.00
C373   C     0.24767   0.34379   0.47577   0.00000  Uiso   1.00
C374   C     0.25233   0.65621   0.52423   0.00000  Uiso   1.00
C375   C     0.16466   0.49939   0.50036   0.00000  Uiso   1.00
C376   C     0.33534   0.50061   0.49964   0.00000  Uiso   1.00
C377   C     0.41019   0.55020   0.51304   0.00000  Uiso   1.00
C378   C     0.08981   0.44980   0.48696   0.00000  Uiso   1.00
C379   C     0.38351   0.50172   0.49887   0.00000  Uiso   1.00
C380   C     0.11649   0.49828   0.50113   0.00000  Uiso   1.00
C381   C     0.40252   0.45346   0.48502   0.00000  Uiso   1.00
C382   C     0.09748   0.54654   0.51498   0.00000  Uiso   1.00
C383   C     0.44891   0.45247   0.48554   0.00000  Uiso   1.00
C384   C     0.05109   0.54753   0.51446   0.00000  Uiso   1.00
C385   C     0.47652   0.50060   0.49972   0.00000  Uiso   1.00
C386   C     0.02348   0.49940   0.50028   0.00000  Uiso   1.00
C387   C     0.45723   0.54986   0.51337   0.00000  Uiso   1.00
C388   C     0.04277   0.45014   0.48663   0.00000  Uiso   1.00
C389   C     0.46803   0.40400   0.47234   0.00000  Uiso   1.00
C390   C     0.03197   0.59600   0.52766   0.00000  Uiso   1.00
Cu391  Cu    0.25500   0.50579   0.56146   0.00000  Uiso   1.00
Cu392  Cu    0.24499   0.49421   0.43854   0.00000  Uiso   1.00
H393   H     0.38100   0.41664   0.47446   0.00000  Uiso   1.00
H394   H     0.11900   0.58336   0.52554   0.00000  Uiso   1.00
H395   H     0.02768   0.36438   0.46232   0.00000  Uiso   1.00
H396   H     0.47232   0.63562   0.53768   0.00000  Uiso   1.00
H397   H     0.24304   0.65292   0.42925   0.00000  Uiso   1.00
H398   H     0.25696   0.34708   0.57075   0.00000  Uiso   1.00
N399   N     0.23744   0.48547   0.34617   0.00000  Uiso   1.00
N400   N     0.26255   0.51453   0.65383   0.00000  Uiso   1.00
O401   O     0.25325   0.42871   0.53992   0.00000  Uiso   1.00
O402   O     0.24674   0.57129   0.46008   0.00000  Uiso   1.00
O403   O     0.24480   0.41892   0.43612   0.00000  Uiso   1.00
O404   O     0.25520   0.58108   0.56388   0.00000  Uiso   1.00
O405   O     0.18935   0.50488   0.55191   0.00000  Uiso   1.00
O406   O     0.31064   0.49512   0.44809   0.00000  Uiso   1.00
O407   O     0.18090   0.49510   0.44810   0.00000  Uiso   1.00
O408   O     0.31910   0.50490   0.55190   0.00000  Uiso   1.00
Br409  Br    0.38154   0.61582   0.53145   0.00000  Uiso   1.00
Br410  Br    0.11846   0.38418   0.46855   0.00000  Uiso   1.00
H411   H     0.44699   0.36689   0.46155   0.00000  Uiso   1.00
H412   H     0.05301   0.63311   0.53845   0.00000  Uiso   1.00
Br413  Br    0.19226   0.43472   0.63424   0.00000  Uiso   1.00
Br414  Br    0.30774   0.56528   0.36576   0.00000  Uiso   1.00
C415   C     0.74860   0.39995   0.48435   0.00000  Uiso   1.00
C416   C     0.75140   0.60005   0.51565   0.00000  Uiso   1.00
C417   C     0.51446   0.40276   0.47287   0.00000  Uiso   1.00
C418   C     0.98554   0.59723   0.52713   0.00000  Uiso   1.00
C419   C     0.74767   0.34379   0.47577   0.00000  Uiso   1.00
C420   C     0.75233   0.65621   0.52423   0.00000  Uiso   1.00
C421   C     0.66466   0.49939   0.50036   0.00000  Uiso   1.00
C422   C     0.83534   0.50061   0.49964   0.00000  Uiso   1.00
C423   C     0.91019   0.55020   0.51304   0.00000  Uiso   1.00
C424   C     0.58981   0.44980   0.48696   0.00000  Uiso   1.00
C425   C     0.88351   0.50172   0.49887   0.00000  Uiso   1.00
C426   C     0.61649   0.49828   0.50113   0.00000  Uiso   1.00
C427   C     0.90252   0.45346   0.48502   0.00000  Uiso   1.00
C428   C     0.59748   0.54654   0.51498   0.00000  Uiso   1.00
C429   C     0.94891   0.45247   0.48554   0.00000  Uiso   1.00
C430   C     0.55109   0.54753   0.51446   0.00000  Uiso   1.00
C431   C     0.97652   0.50060   0.49972   0.00000  Uiso   1.00
C432   C     0.52348   0.49940   0.50028   0.00000  Uiso   1.00
C433   C     0.95723   0.54986   0.51337   0.00000  Uiso   1.00
C434   C     0.54277   0.45014   0.48663   0.00000  Uiso   1.00
C435   C     0.96803   0.40400   0.47234   0.00000  Uiso   1.00
C436   C     0.53197   0.59600   0.52766   0.00000  Uiso   1.00
Cu437  Cu    0.75500   0.50579   0.56146   0.00000  Uiso   1.00
Cu438  Cu    0.74499   0.49421   0.43854   0.00000  Uiso   1.00
H439   H     0.88100   0.41664   0.47446   0.00000  Uiso   1.00
H440   H     0.61900   0.58336   0.52554   0.00000  Uiso   1.00
H441   H     0.52768   0.36438   0.46232   0.00000  Uiso   1.00
H442   H     0.97232   0.63562   0.53768   0.00000  Uiso   1.00
H443   H     0.74304   0.65292   0.42925   0.00000  Uiso   1.00
H444   H     0.75696   0.34708   0.57075   0.00000  Uiso   1.00
N445   N     0.73744   0.48547   0.34617   0.00000  Uiso   1.00
N446   N     0.76255   0.51453   0.65383   0.00000  Uiso   1.00
O447   O     0.75325   0.42871   0.53992   0.00000  Uiso   1.00
O448   O     0.74674   0.57129   0.46008   0.00000  Uiso   1.00
O449   O     0.74480   0.41892   0.43612   0.00000  Uiso   1.00
O450   O     0.75520   0.58108   0.56388   0.00000  Uiso   1.00
O451   O     0.68935   0.50488   0.55191   0.00000  Uiso   1.00
O452   O     0.81064   0.49512   0.44809   0.00000  Uiso   1.00
O453   O     0.68090   0.49510   0.44810   0.00000  Uiso   1.00
O454   O     0.81910   0.50490   0.55190   0.00000  Uiso   1.00
Br455  Br    0.88154   0.61582   0.53145   0.00000  Uiso   1.00
Br456  Br    0.61846   0.38418   0.46855   0.00000  Uiso   1.00
H457   H     0.94699   0.36689   0.46155   0.00000  Uiso   1.00
H458   H     0.55301   0.63311   0.53845   0.00000  Uiso   1.00
Br459  Br    0.69226   0.43472   0.63424   0.00000  Uiso   1.00
Br460  Br    0.80774   0.56528   0.36576   0.00000  Uiso   1.00
C461   C     0.24860   0.73328   0.48435   0.00000  Uiso   1.00
C462   C     0.25140   0.93338   0.51565   0.00000  Uiso   1.00
C463   C     0.01446   0.73610   0.47287   0.00000  Uiso   1.00
C464   C     0.48554   0.93057   0.52713   0.00000  Uiso   1.00
C465   C     0.24767   0.67713   0.47577   0.00000  Uiso   1.00
C466   C     0.25233   0.98954   0.52423   0.00000  Uiso   1.00
C467   C     0.16466   0.83273   0.50036   0.00000  Uiso   1.00
C468   C     0.33534   0.83394   0.49964   0.00000  Uiso   1.00
C469   C     0.41019   0.88354   0.51304   0.00000  Uiso   1.00
C470   C     0.08981   0.78313   0.48696   0.00000  Uiso   1.00
C471   C     0.38351   0.83505   0.49887   0.00000  Uiso   1.00
C472   C     0.11649   0.83161   0.50113   0.00000  Uiso   1.00
C473   C     0.40252   0.78679   0.48502   0.00000  Uiso   1.00
C474   C     0.09748   0.87988   0.51498   0.00000  Uiso   1.00
C475   C     0.44891   0.78580   0.48554   0.00000  Uiso   1.00
C476   C     0.05109   0.88086   0.51446   0.00000  Uiso   1.00
C477   C     0.47652   0.83394   0.49972   0.00000  Uiso   1.00
C478   C     0.02348   0.83273   0.50028   0.00000  Uiso   1.00
C479   C     0.45723   0.88319   0.51337   0.00000  Uiso   1.00
C480   C     0.04277   0.78347   0.48663   0.00000  Uiso   1.00
C481   C     0.46803   0.73733   0.47234   0.00000  Uiso   1.00
C482   C     0.03197   0.92933   0.52766   0.00000  Uiso   1.00
Cu483  Cu    0.25500   0.83913   0.56146   0.00000  Uiso   1.00
Cu484  Cu    0.24499   0.82754   0.43854   0.00000  Uiso   1.00
H485   H     0.38100   0.74997   0.47446   0.00000  Uiso   1.00
H486   H     0.11900   0.91670   0.52554   0.00000  Uiso   1.00
H487   H     0.02768   0.69771   0.46232   0.00000  Uiso   1.00
H488   H     0.47232   0.96895   0.53768   0.00000  Uiso   1.00
H489   H     0.24304   0.98626   0.42925   0.00000  Uiso   1.00
H490   H     0.25696   0.68041   0.57075   0.00000  Uiso   1.00
N491   N     0.23744   0.81881   0.34617   0.00000  Uiso   1.00
N492   N     0.26255   0.84786   0.65383   0.00000  Uiso   1.00
O493   O     0.25325   0.76204   0.53992   0.00000  Uiso   1.00
O494   O     0.24674   0.90462   0.46008   0.00000  Uiso   1.00
O495   O     0.24480   0.75226   0.43612   0.00000  Uiso   1.00
O496   O     0.25520   0.91441   0.56388   0.00000  Uiso   1.00
O497   O     0.18935   0.83821   0.55191   0.00000  Uiso   1.00
O498   O     0.31064   0.82845   0.44809   0.00000  Uiso   1.00
O499   O     0.18090   0.82843   0.44810   0.00000  Uiso   1.00
O500   O     0.31910   0.83824   0.55190   0.00000  Uiso   1.00
Br501  Br    0.38154   0.94916   0.53145   0.00000  Uiso   1.00
Br502  Br    0.11846   0.71751   0.46855   0.00000  Uiso   1.00
H503   H     0.44699   0.70023   0.46155   0.00000  Uiso   1.00
H504   H     0.05301   0.96644   0.53845   0.00000  Uiso   1.00
Br505  Br    0.19226   0.76805   0.63424   0.00000  Uiso   1.00
Br506  Br    0.30774   0.89862   0.36576   0.00000  Uiso   1.00
C507   C     0.74860   0.73328   0.48435   0.00000  Uiso   1.00
C508   C     0.75140   0.93338   0.51565   0.00000  Uiso   1.00
C509   C     0.51446   0.73610   0.47287   0.00000  Uiso   1.00
C510   C     0.98554   0.93057   0.52713   0.00000  Uiso   1.00
C511   C     0.74767   0.67713   0.47577   0.00000  Uiso   1.00
C512   C     0.75233   0.98954   0.52423   0.00000  Uiso   1.00
C513   C     0.66466   0.83273   0.50036   0.00000  Uiso   1.00
C514   C     0.83534   0.83394   0.49964   0.00000  Uiso   1.00
C515   C     0.91019   0.88354   0.51304   0.00000  Uiso   1.00
C516   C     0.58981   0.78313   0.48696   0.00000  Uiso   1.00
C517   C     0.88351   0.83505   0.49887   0.00000  Uiso   1.00
C518   C     0.61649   0.83161   0.50113   0.00000  Uiso   1.00
C519   C     0.90252   0.78679   0.48502   0.00000  Uiso   1.00
C520   C     0.59748   0.87988   0.51498   0.00000  Uiso   1.00
C521   C     0.94891   0.78580   0.48554   0.00000  Uiso   1.00
C522   C     0.55109   0.88086   0.51446   0.00000  Uiso   1.00
C523   C     0.97652   0.83394   0.49972   0.00000  Uiso   1.00
C524   C     0.52348   0.83273   0.50028   0.00000  Uiso   1.00
C525   C     0.95723   0.88319   0.51337   0.00000  Uiso   1.00
C526   C     0.54277   0.78347   0.48663   0.00000  Uiso   1.00
C527   C     0.96803   0.73733   0.47234   0.00000  Uiso   1.00
C528   C     0.53197   0.92933   0.52766   0.00000  Uiso   1.00
Cu529  Cu    0.75500   0.83913   0.56146   0.00000  Uiso   1.00
Cu530  Cu    0.74499   0.82754   0.43854   0.00000  Uiso   1.00
H531   H     0.88100   0.74997   0.47446   0.00000  Uiso   1.00
H532   H     0.61900   0.91670   0.52554   0.00000  Uiso   1.00
H533   H     0.52768   0.69771   0.46232   0.00000  Uiso   1.00
H534   H     0.97232   0.96895   0.53768   0.00000  Uiso   1.00
H535   H     0.74304   0.98626   0.42925   0.00000  Uiso   1.00
H536   H     0.75696   0.68041   0.57075   0.00000  Uiso   1.00
N537   N     0.73744   0.81881   0.34617   0.00000  Uiso   1.00
N538   N     0.76255   0.84786   0.65383   0.00000  Uiso   1.00
O539   O     0.75325   0.76204   0.53992   0.00000  Uiso   1.00
O540   O     0.74674   0.90462   0.46008   0.00000  Uiso   1.00
O541   O     0.74480   0.75226   0.43612   0.00000  Uiso   1.00
O542   O     0.75520   0.91441   0.56388   0.00000  Uiso   1.00
O543   O     0.68935   0.83821   0.55191   0.00000  Uiso   1.00
O544   O     0.81064   0.82845   0.44809   0.00000  Uiso   1.00
O545   O     0.68090   0.82843   0.44810   0.00000  Uiso   1.00
O546   O     0.81910   0.83824   0.55190   0.00000  Uiso   1.00
Br547  Br    0.88154   0.94916   0.53145   0.00000  Uiso   1.00
Br548  Br    0.61846   0.71751   0.46855   0.00000  Uiso   1.00
H549   H     0.94699   0.70023   0.46155   0.00000  Uiso   1.00
H550   H     0.55301   0.96644   0.53845   0.00000  Uiso   1.00
Br551  Br    0.69226   0.76805   0.63424   0.00000  Uiso   1.00
Br552  Br    0.80774   0.89862   0.36576   0.00000  Uiso   1.00
C553   C     0.24860   0.06662   0.81769   0.00000  Uiso   1.00
C554   C     0.25140   0.26672   0.84898   0.00000  Uiso   1.00
C555   C     0.01446   0.06943   0.80620   0.00000  Uiso   1.00
C556   C     0.48554   0.26390   0.86047   0.00000  Uiso   1.00
C557   C     0.24767   0.01046   0.80911   0.00000  Uiso   1.00
C558   C     0.25233   0.32287   0.85756   0.00000  Uiso   1.00
C559   C     0.16466   0.16606   0.83369   0.00000  Uiso   1.00
C560   C     0.33534   0.16727   0.83297   0.00000  Uiso   1.00
C561   C     0.41019   0.21687   0.84637   0.00000  Uiso   1.00
C562   C     0.08981   0.11646   0.82030   0.00000  Uiso   1.00
C563   C     0.38351   0.16839   0.83220   0.00000  Uiso   1.00
C564   C     0.11649   0.16495   0.83447   0.00000  Uiso   1.00
C565   C     0.40252   0.12012   0.81835   0.00000  Uiso   1.00
C566   C     0.09748   0.21321   0.84831   0.00000  Uiso   1.00
C567   C     0.44891   0.11914   0.81887   0.00000  Uiso   1.00
C568   C     0.05109   0.21420   0.84780   0.00000  Uiso   1.00
C569   C     0.47652   0.16727   0.83305   0.00000  Uiso   1.00
C570   C     0.02348   0.16606   0.83362   0.00000  Uiso   1.00
C571   C     0.45723   0.21653   0.84670   0.00000  Uiso   1.00
C572   C     0.04277   0.11681   0.81996   0.00000  Uiso   1.00
C573   C     0.46803   0.07067   0.80567   0.00000  Uiso   1.00
C574   C     0.03197   0.26267   0.86100   0.00000  Uiso   1.00
Cu575  Cu    0.25500   0.17246   0.89479   0.00000  Uiso   1.00
Cu576  Cu    0.24499   0.16087   0.77187   0.00000  Uiso   1.00
H577   H     0.38100   0.08330   0.80779   0.00000  Uiso   1.00
H578   H     0.11900   0.25003   0.85888   0.00000  Uiso   1.00
H579   H     0.02768   0.03105   0.79565   0.00000  Uiso   1.00
H580   H     0.47232   0.30229   0.87102   0.00000  Uiso   1.00
H581   H     0.24304   0.31959   0.76258   0.00000  Uiso   1.00
H582   H     0.25696   0.01374   0.90408   0.00000  Uiso   1.00
N583   N     0.23744   0.15214   0.67951   0.00000  Uiso   1.00
N584   N     0.26255   0.18119   0.98716   0.00000  Uiso   1.00
O585   O     0.25325   0.09538   0.87326   0.00000  Uiso   1.00
O586   O     0.24674   0.23796   0.79341   0.00000  Uiso   1.00
O587   O     0.24480   0.08559   0.76945   0.00000  Uiso   1.00
O588   O     0.25520   0.24774   0.89721   0.00000  Uiso   1.00
O589   O     0.18935   0.17155   0.88524   0.00000  Uiso   1.00
O590   O     0.31064   0.16179   0.78143   0.00000  Uiso   1.00
O591   O     0.18090   0.16176   0.78143   0.00000  Uiso   1.00
O592   O     0.31910   0.17157   0.88523   0.00000  Uiso   1.00
Br593  Br    0.38154   0.28249   0.86478   0.00000  Uiso   1.00
Br594  Br    0.11846   0.05084   0.80188   0.00000  Uiso   1.00
H595   H     0.44699   0.03356   0.79489   0.00000  Uiso   1.00
H596   H     0.05301   0.29977   0.87178   0.00000  Uiso   1.00
Br597  Br    0.19226   0.10138   0.96757   0.00000  Uiso   1.00
Br598  Br    0.30774   0.23195   0.69909   0.00000  Uiso   1.00
C599   C     0.74860   0.06662   0.81769   0.00000  Uiso   1.00
C600   C     0.75140   0.26672   0.84898   0.00000  Uiso   1.00
C601   C     0.51446   0.06943   0.80620   0.00000  Uiso   1.00
C602   C     0.98554   0.26390   0.86047   0.00000  Uiso   1.00
C603   C     0.74767   0.01046   0.80911   0.00000  Uiso   1.00
C604   C     0.75233   0.32287   0.85756   0.00000  Uiso   1.00
C605   C     0.66466   0.16606   0.83369   0.00000  Uiso   1.00
C606   C     0.83534   0.16727   0.83297   0.00000  Uiso   1.00
C607   C     0.91019   0.21687   0.84637   0.00000  Uiso   1.00
C608   C     0.58981   0.11646   0.82030   0.00000  Uiso   1.00
C609   C     0.88351   0.16839   0.83220   0.00000  Uiso   1.00
C610   C     0.61649   0.16495   0.83447   0.00000  Uiso   1.00
C611   C     0.90252   0.12012   0.81835   0.00000  Uiso   1.00
C612   C     0.59748   0.21321   0.84831   0.00000  Uiso   1.00
C613   C     0.94891   0.11914   0.81887   0.00000  Uiso   1.00
C614   C     0.55109   0.21420   0.84780   0.00000  Uiso   1.00
C615   C     0.97652   0.16727   0.83305   0.00000  Uiso   1.00
C616   C     0.52348   0.16606   0.83362   0.00000  Uiso   1.00
C617   C     0.95723   0.21653   0.84670   0.00000  Uiso   1.00
C618   C     0.54277   0.11681   0.81996   0.00000  Uiso   1.00
C619   C     0.96803   0.07067   0.80567   0.00000  Uiso   1.00
C620   C     0.53197   0.26267   0.86100   0.00000  Uiso   1.00
Cu621  Cu    0.75500   0.17246   0.89479   0.00000  Uiso   1.00
Cu622  Cu    0.74499   0.16087   0.77187   0.00000  Uiso   1.00
H623   H     0.88100   0.08330   0.80779   0.00000  Uiso   1.00
H624   H     0.61900   0.25003   0.85888   0.00000  Uiso   1.00
H625   H     0.52768   0.03105   0.79565   0.00000  Uiso   1.00
H626   H     0.97232   0.30229   0.87102   0.00000  Uiso   1.00
H627   H     0.74304   0.31959   0.76258   0.00000  Uiso   1.00
H628   H     0.75696   0.01374   0.90408   0.00000  Uiso   1.00
N629   N     0.73744   0.15214   0.67951   0.00000  Uiso   1.00
N630   N     0.76255   0.18119   0.98716   0.00000  Uiso   1.00
O631   O     0.75325   0.09538   0.87326   0.00000  Uiso   1.00
O632   O     0.74674   0.23796   0.79341   0.00000  Uiso   1.00
O633   O     0.74480   0.08559   0.76945   0.00000  Uiso   1.00
O634   O     0.75520   0.24774   0.89721   0.00000  Uiso   1.00
O635   O     0.68935   0.17155   0.88524   0.00000  Uiso   1.00
O636   O     0.81064   0.16179   0.78143   0.00000  Uiso   1.00
O637   O     0.68090   0.16176   0.78143   0.00000  Uiso   1.00
O638   O     0.81910   0.17157   0.88523   0.00000  Uiso   1.00
Br639  Br    0.88154   0.28249   0.86478   0.00000  Uiso   1.00
Br640  Br    0.61846   0.05084   0.80188   0.00000  Uiso   1.00
H641   H     0.94699   0.03356   0.79489   0.00000  Uiso   1.00
H642   H     0.55301   0.29977   0.87178   0.00000  Uiso   1.00
Br643  Br    0.69226   0.10138   0.96757   0.00000  Uiso   1.00
Br644  Br    0.80774   0.23195   0.69909   0.00000  Uiso   1.00
C645   C     0.24860   0.39995   0.81769   0.00000  Uiso   1.00
C646   C     0.25140   0.60005   0.84898   0.00000  Uiso   1.00
C647   C     0.01446   0.40276   0.80620   0.00000  Uiso   1.00
C648   C     0.48554   0.59723   0.86047   0.00000  Uiso   1.00
C649   C     0.24767   0.34379   0.80911   0.00000  Uiso   1.00
C650   C     0.25233   0.65621   0.85756   0.00000  Uiso   1.00
C651   C     0.16466   0.49939   0.83369   0.00000  Uiso   1.00
C652   C     0.33534   0.50061   0.83297   0.00000  Uiso   1.00
C653   C     0.41019   0.55020   0.84637   0.00000  Uiso   1.00
C654   C     0.08981   0.44980   0.82030   0.00000  Uiso   1.00
C655   C     0.38351   0.50172   0.83220   0.00000  Uiso   1.00
C656   C     0.11649   0.49828   0.83447   0.00000  Uiso   1.00
C657   C     0.40252   0.45346   0.81835   0.00000  Uiso   1.00
C658   C     0.09748   0.54654   0.84831   0.00000  Uiso   1.00
C659   C     0.44891   0.45247   0.81887   0.00000  Uiso   1.00
C660   C     0.05109   0.54753   0.84780   0.00000  Uiso   1.00
C661   C     0.47652   0.50060   0.83305   0.00000  Uiso   1.00
C662   C     0.02348   0.49940   0.83362   0.00000  Uiso   1.00
C663   C     0.45723   0.54986   0.84670   0.00000  Uiso   1.00
C664   C     0.04277   0.45014   0.81996   0.00000  Uiso   1.00
C665   C     0.46803   0.40400   0.80567   0.00000  Uiso   1.00
C666   C     0.03197   0.59600   0.86100   0.00000  Uiso   1.00
Cu667  Cu    0.25500   0.50579   0.89479   0.00000  Uiso   1.00
Cu668  Cu    0.24499   0.49421   0.77187   0.00000  Uiso   1.00
H669   H     0.38100   0.41664   0.80779   0.00000  Uiso   1.00
H670   H     0.11900   0.58336   0.85888   0.00000  Uiso   1.00
H671   H     0.02768   0.36438   0.79565   0.00000  Uiso   1.00
H672   H     0.47232   0.63562   0.87102   0.00000  Uiso   1.00
H673   H     0.24304   0.65292   0.76258   0.00000  Uiso   1.00
H674   H     0.25696   0.34708   0.90408   0.00000  Uiso   1.00
N675   N     0.23744   0.48547   0.67951   0.00000  Uiso   1.00
N676   N     0.26255   0.51453   0.98716   0.00000  Uiso   1.00
O677   O     0.25325   0.42871   0.87326   0.00000  Uiso   1.00
O678   O     0.24674   0.57129   0.79341   0.00000  Uiso   1.00
O679   O     0.24480   0.41892   0.76945   0.00000  Uiso   1.00
O680   O     0.25520   0.58108   0.89721   0.00000  Uiso   1.00
O681   O     0.18935   0.50488   0.88524   0.00000  Uiso   1.00
O682   O     0.31064   0.49512   0.78143   0.00000  Uiso   1.00
O683   O     0.18090   0.49510   0.78143   0.00000  Uiso   1.00
O684   O     0.31910   0.50490   0.88523   0.00000  Uiso   1.00
Br685  Br    0.38154   0.61582   0.86478   0.00000  Uiso   1.00
Br686  Br    0.11846   0.38418   0.80188   0.00000  Uiso   1.00
H687   H     0.44699   0.36689   0.79489   0.00000  Uiso   1.00
H688   H     0.05301   0.63311   0.87178   0.00000  Uiso   1.00
Br689  Br    0.19226   0.43472   0.96757   0.00000  Uiso   1.00
Br690  Br    0.30774   0.56528   0.69909   0.00000  Uiso   1.00
C691   C     0.74860   0.39995   0.81769   0.00000  Uiso   1.00
C692   C     0.75140   0.60005   0.84898   0.00000  Uiso   1.00
C693   C     0.51446   0.40276   0.80620   0.00000  Uiso   1.00
C694   C     0.98554   0.59723   0.86047   0.00000  Uiso   1.00
C695   C     0.74767   0.34379   0.80911   0.00000  Uiso   1.00
C696   C     0.75233   0.65621   0.85756   0.00000  Uiso   1.00
C697   C     0.66466   0.49939   0.83369   0.00000  Uiso   1.00
C698   C     0.83534   0.50061   0.83297   0.00000  Uiso   1.00
C699   C     0.91019   0.55020   0.84637   0.00000  Uiso   1.00
C700   C     0.58981   0.44980   0.82030   0.00000  Uiso   1.00
C701   C     0.88351   0.50172   0.83220   0.00000  Uiso   1.00
C702   C     0.61649   0.49828   0.83447   0.00000  Uiso   1.00
C703   C     0.90252   0.45346   0.81835   0.00000  Uiso   1.00
C704   C     0.59748   0.54654   0.84831   0.00000  Uiso   1.00
C705   C     0.94891   0.45247   0.81887   0.00000  Uiso   1.00
C706   C     0.55109   0.54753   0.84780   0.00000  Uiso   1.00
C707   C     0.97652   0.50060   0.83305   0.00000  Uiso   1.00
C708   C     0.52348   0.49940   0.83362   0.00000  Uiso   1.00
C709   C     0.95723   0.54986   0.84670   0.00000  Uiso   1.00
C710   C     0.54277   0.45014   0.81996   0.00000  Uiso   1.00
C711   C     0.96803   0.40400   0.80567   0.00000  Uiso   1.00
C712   C     0.53197   0.59600   0.86100   0.00000  Uiso   1.00
Cu713  Cu    0.75500   0.50579   0.89479   0.00000  Uiso   1.00
Cu714  Cu    0.74499   0.49421   0.77187   0.00000  Uiso   1.00
H715   H     0.88100   0.41664   0.80779   0.00000  Uiso   1.00
H716   H     0.61900   0.58336   0.85888   0.00000  Uiso   1.00
H717   H     0.52768   0.36438   0.79565   0.00000  Uiso   1.00
H718   H     0.97232   0.63562   0.87102   0.00000  Uiso   1.00
H719   H     0.74304   0.65292   0.76258   0.00000  Uiso   1.00
H720   H     0.75696   0.34708   0.90408   0.00000  Uiso   1.00
N721   N     0.73744   0.48547   0.67951   0.00000  Uiso   1.00
N722   N     0.76255   0.51453   0.98716   0.00000  Uiso   1.00
O723   O     0.75325   0.42871   0.87326   0.00000  Uiso   1.00
O724   O     0.74674   0.57129   0.79341   0.00000  Uiso   1.00
O725   O     0.74480   0.41892   0.76945   0.00000  Uiso   1.00
O726   O     0.75520   0.58108   0.89721   0.00000  Uiso   1.00
O727   O     0.68935   0.50488   0.88524   0.00000  Uiso   1.00
O728   O     0.81064   0.49512   0.78143   0.00000  Uiso   1.00
O729   O     0.68090   0.49510   0.78143   0.00000  Uiso   1.00
O730   O     0.81910   0.50490   0.88523   0.00000  Uiso   1.00
Br731  Br    0.88154   0.61582   0.86478   0.00000  Uiso   1.00
Br732  Br    0.61846   0.38418   0.80188   0.00000  Uiso   1.00
H733   H     0.94699   0.36689   0.79489   0.00000  Uiso   1.00
H734   H     0.55301   0.63311   0.87178   0.00000  Uiso   1.00
Br735  Br    0.69226   0.43472   0.96757   0.00000  Uiso   1.00
Br736  Br    0.80774   0.56528   0.69909   0.00000  Uiso   1.00
C737   C     0.24860   0.73328   0.81769   0.00000  Uiso   1.00
C738   C     0.25140   0.93338   0.84898   0.00000  Uiso   1.00
C739   C     0.01446   0.73610   0.80620   0.00000  Uiso   1.00
C740   C     0.48554   0.93057   0.86047   0.00000  Uiso   1.00
C741   C     0.24767   0.67713   0.80911   0.00000  Uiso   1.00
C742   C     0.25233   0.98954   0.85756   0.00000  Uiso   1.00
C743   C     0.16466   0.83273   0.83369   0.00000  Uiso   1.00
C744   C     0.33534   0.83394   0.83297   0.00000  Uiso   1.00
C745   C     0.41019   0.88354   0.84637   0.00000  Uiso   1.00
C746   C     0.08981   0.78313   0.82030   0.00000  Uiso   1.00
C747   C     0.38351   0.83505   0.83220   0.00000  Uiso   1.00
C748   C     0.11649   0.83161   0.83447   0.00000  Uiso   1.00
C749   C     0.40252   0.78679   0.81835   0.00000  Uiso   1.00
C750   C     0.09748   0.87988   0.84831   0.00000  Uiso   1.00
C751   C     0.44891   0.78580   0.81887   0.00000  Uiso   1.00
C752   C     0.05109   0.88086   0.84780   0.00000  Uiso   1.00
C753   C     0.47652   0.83394   0.83305   0.00000  Uiso   1.00
C754   C     0.02348   0.83273   0.83362   0.00000  Uiso   1.00
C755   C     0.45723   0.88319   0.84670   0.00000  Uiso   1.00
C756   C     0.04277   0.78347   0.81996   0.00000  Uiso   1.00
C757   C     0.46803   0.73733   0.80567   0.00000  Uiso   1.00
C758   C     0.03197   0.92933   0.86100   0.00000  Uiso   1.00
Cu759  Cu    0.25500   0.83913   0.89479   0.00000  Uiso   1.00
Cu760  Cu    0.24499   0.82754   0.77187   0.00000  Uiso   1.00
H761   H     0.38100   0.74997   0.80779   0.00000  Uiso   1.00
H762   H     0.11900   0.91670   0.85888   0.00000  Uiso   1.00
H763   H     0.02768   0.69771   0.79565   0.00000  Uiso   1.00
H764   H     0.47232   0.96895   0.87102   0.00000  Uiso   1.00
H765   H     0.24304   0.98626   0.76258   0.00000  Uiso   1.00
H766   H     0.25696   0.68041   0.90408   0.00000  Uiso   1.00
N767   N     0.23744   0.81881   0.67951   0.00000  Uiso   1.00
N768   N     0.26255   0.84786   0.98716   0.00000  Uiso   1.00
O769   O     0.25325   0.76204   0.87326   0.00000  Uiso   1.00
O770   O     0.24674   0.90462   0.79341   0.00000  Uiso   1.00
O771   O     0.24480   0.75226   0.76945   0.00000  Uiso   1.00
O772   O     0.25520   0.91441   0.89721   0.00000  Uiso   1.00
O773   O     0.18935   0.83821   0.88524   0.00000  Uiso   1.00
O774   O     0.31064   0.82845   0.78143   0.00000  Uiso   1.00
O775   O     0.18090   0.82843   0.78143   0.00000  Uiso   1.00
O776   O     0.31910   0.83824   0.88523   0.00000  Uiso   1.00
Br777  Br    0.38154   0.94916   0.86478   0.00000  Uiso   1.00
Br778  Br    0.11846   0.71751   0.80188   0.00000  Uiso   1.00
H779   H     0.44699   0.70023   0.79489   0.00000  Uiso   1.00
H780   H     0.05301   0.96644   0.87178   0.00000  Uiso   1.00
Br781  Br    0.19226   0.76805   0.96757   0.00000  Uiso   1.00
Br782  Br    0.30774   0.89862   0.69909   0.00000  Uiso   1.00
C783   C     0.74860   0.73328   0.81769   0.00000  Uiso   1.00
C784   C     0.75140   0.93338   0.84898   0.00000  Uiso   1.00
C785   C     0.51446   0.73610   0.80620   0.00000  Uiso   1.00
C786   C     0.98554   0.93057   0.86047   0.00000  Uiso   1.00
C787   C     0.74767   0.67713   0.80911   0.00000  Uiso   1.00
C788   C     0.75233   0.98954   0.85756   0.00000  Uiso   1.00
C789   C     0.66466   0.83273   0.83369   0.00000  Uiso   1.00
C790   C     0.83534   0.83394   0.83297   0.00000  Uiso   1.00
C791   C     0.91019   0.88354   0.84637   0.00000  Uiso   1.00
C792   C     0.58981   0.78313   0.82030   0.00000  Uiso   1.00
C793   C     0.88351   0.83505   0.83220   0.00000  Uiso   1.00
C794   C     0.61649   0.83161   0.83447   0.00000  Uiso   1.00
C795   C     0.90252   0.78679   0.81835   0.00000  Uiso   1.00
C796   C     0.59748   0.87988   0.84831   0.00000  Uiso   1.00
C797   C     0.94891   0.78580   0.81887   0.00000  Uiso   1.00
C798   C     0.55109   0.88086   0.84780   0.00000  Uiso   1.00
C799   C     0.97652   0.83394   0.83305   0.00000  Uiso   1.00
C800   C     0.52348   0.83273   0.83362   0.00000  Uiso   1.00
C801   C     0.95723   0.88319   0.84670   0.00000  Uiso   1.00
C802   C     0.54277   0.78347   0.81996   0.00000  Uiso   1.00
C803   C     0.96803   0.73733   0.80567   0.00000  Uiso   1.00
C804   C     0.53197   0.92933   0.86100   0.00000  Uiso   1.00
Cu805  Cu    0.75500   0.83913   0.89479   0.00000  Uiso   1.00
Cu806  Cu    0.74499   0.82754   0.77187   0.00000  Uiso   1.00
H807   H     0.88100   0.74997   0.80779   0.00000  Uiso   1.00
H808   H     0.61900   0.91670   0.85888   0.00000  Uiso   1.00
H809   H     0.52768   0.69771   0.79565   0.00000  Uiso   1.00
H810   H     0.97232   0.96895   0.87102   0.00000  Uiso   1.00
H811   H     0.74304   0.98626   0.76258   0.00000  Uiso   1.00
H812   H     0.75696   0.68041   0.90408   0.00000  Uiso   1.00
N813   N     0.73744   0.81881   0.67951   0.00000  Uiso   1.00
N814   N     0.76255   0.84786   0.98716   0.00000  Uiso   1.00
O815   O     0.75325   0.76204   0.87326   0.00000  Uiso   1.00
O816   O     0.74674   0.90462   0.79341   0.00000  Uiso   1.00
O817   O     0.74480   0.75226   0.76945   0.00000  Uiso   1.00
O818   O     0.75520   0.91441   0.89721   0.00000  Uiso   1.00
O819   O     0.68935   0.83821   0.88524   0.00000  Uiso   1.00
O820   O     0.81064   0.82845   0.78143   0.00000  Uiso   1.00
O821   O     0.68090   0.82843   0.78143   0.00000  Uiso   1.00
O822   O     0.81910   0.83824   0.88523   0.00000  Uiso   1.00
Br823  Br    0.88154   0.94916   0.86478   0.00000  Uiso   1.00
Br824  Br    0.61846   0.71751   0.80188   0.00000  Uiso   1.00
H825   H     0.94699   0.70023   0.79489   0.00000  Uiso   1.00
H826   H     0.55301   0.96644   0.87178   0.00000  Uiso   1.00
Br827  Br    0.69226   0.76805   0.96757   0.00000  Uiso   1.00
Br828  Br    0.80774   0.89862   0.69909   0.00000  Uiso   1.00
loop_
_geom_bond_atom_site_label_1
_geom_bond_atom_site_label_2
_geom_bond_distance
_geom_bond_site_symmetry_2
_ccdc_geom_bond_type
C1     O33     1.297   .     A
C1     C5      1.427   .     S
C1     O35     1.295   .     A
C2     O34     1.297   .     A
C2     C6      1.427   .     S
C2     O36     1.295   .     A
C3     H27     1.081   .     S
C3     C20     1.407   .     A
C3     C67     1.391   1_455 S
C4     H28     1.081   .     S
C4     C19     1.407   .     A
C4     C68     1.391   .     S
C5     C190    1.331   1_545 S
C5     H213    1.087   1_545 S
C6     C97     1.331   .     S
C6     H122    1.087   .     S
C7     O37     1.300   .     A
C7     C12     1.441   .     S
C7     O39     1.298   .     A
C8     O38     1.300   .     A
C8     C11     1.441   .     S
C8     O40     1.298   .     A
C9     Br41    1.935   .     S
C9     C11     1.405   .     A
C9     C19     1.407   .     A
C10    Br42    1.935   .     S
C10    C12     1.405   .     A
C10    C20     1.407   .     A
C11    C13     1.393   .     A
C12    C14     1.393   .     A
C13    H25     1.086   .     S
C13    C15     1.389   .     A
C14    H26     1.086   .     S
C14    C16     1.389   .     A
C15    C21     1.398   .     A
C15    C17     1.411   .     A
C16    C18     1.411   .     A
C16    C22     1.398   .     A
C17    C19     1.419   .     A
C17    C64     1.406   .     S
C18    C20     1.419   .     A
C18    C63     1.406   1_455 S
C21    H43     1.084   .     S
C21    C49     1.391   .     S
C22    H44     1.084   .     S
C22    C50     1.391   1_455 S
Cu23   Cu24    2.713   .     S
Cu23   N32     2.038   .     S
Cu23   O37     1.956   .     S
Cu23   O40     1.949   .     S
Cu23   O36     1.946   .     S
Cu23   O33     1.948   .     S
Cu24   O38     1.956   .     S
Cu24   N31     2.038   .     S
Cu24   O35     1.946   .     S
Cu24   O39     1.949   .     S
Cu24   O34     1.948   .     S
H29    C97     1.087   .     S
H30    C190    1.087   1_545 S
N31    N584    1.293   1_554 S
N31    Br597   1.881   1_554 S
N32    N307    1.293   .     S
N32    Br322   1.881   .     S
Br45   N307    1.881   .     S
Br46   N584    1.881   1_554 S
C47    O79     1.297   .     A
C47    C51     1.427   .     S
C47    O81     1.295   .     A
C48    O80     1.297   .     A
C48    C52     1.427   .     S
C48    O82     1.295   .     A
C49    H73     1.081   .     S
C49    C66     1.407   .     A
C50    H74     1.081   .     S
C50    C65     1.407   .     A
C50    C22     1.391   1_655 S
C51    C236    1.331   1_545 S
C51    H259    1.087   1_545 S
C52    C143    1.331   .     S
C52    H168    1.087   .     S
C53    O83     1.300   .     A
C53    C58     1.441   .     S
C53    O85     1.298   .     A
C54    O84     1.300   .     A
C54    C57     1.441   .     S
C54    O86     1.298   .     A
C55    Br87    1.935   .     S
C55    C57     1.405   .     A
C55    C65     1.407   .     A
C56    Br88    1.935   .     S
C56    C58     1.405   .     A
C56    C66     1.407   .     A
C57    C59     1.393   .     A
C58    C60     1.393   .     A
C59    H71     1.086   .     S
C59    C61     1.389   .     A
C60    H72     1.086   .     S
C60    C62     1.389   .     A
C61    C67     1.398   .     A
C61    C63     1.411   .     A
C62    C64     1.411   .     A
C62    C68     1.398   .     A
C63    C65     1.419   .     A
C63    C18     1.406   1_655 S
C64    C66     1.419   .     A
C67    H89     1.084   .     S
C67    C3      1.391   1_655 S
C68    H90     1.084   .     S
Cu69   Cu70    2.713   .     S
Cu69   N78     2.038   .     S
Cu69   O83     1.956   .     S
Cu69   O86     1.949   .     S
Cu69   O82     1.946   .     S
Cu69   O79     1.948   .     S
Cu70   O84     1.956   .     S
Cu70   N77     2.038   .     S
Cu70   O81     1.946   .     S
Cu70   O85     1.949   .     S
Cu70   O80     1.948   .     S
H75    C143    1.087   .     S
H76    C236    1.087   1_545 S
N77    N630    1.293   1_554 S
N77    Br643   1.881   1_554 S
N78    N353    1.293   .     S
N78    Br368   1.881   .     S
Br91   N353    1.881   .     S
Br92   N630    1.881   1_554 S
C93    O125    1.297   .     A
C93    C97     1.427   .     S
C93    O127    1.295   .     A
C94    O126    1.297   .     A
C94    C98     1.427   .     S
C94    O128    1.295   .     A
C95    H119    1.081   .     S
C95    C112    1.407   .     A
C95    C159    1.391   1_455 S
C96    H120    1.081   .     S
C96    C111    1.407   .     A
C96    C160    1.391   .     S
C98    C189    1.331   .     S
C98    H214    1.087   .     S
C99    O129    1.300   .     A
C99    C104    1.441   .     S
C99    O131    1.298   .     A
C100   O130    1.300   .     A
C100   C103    1.441   .     S
C100   O132    1.298   .     A
C101   Br133   1.935   .     S
C101   C103    1.405   .     A
C101   C111    1.407   .     A
C102   Br134   1.935   .     S
C102   C104    1.405   .     A
C102   C112    1.407   .     A
C103   C105    1.393   .     A
C104   C106    1.393   .     A
C105   H117    1.086   .     S
C105   C107    1.389   .     A
C106   H118    1.086   .     S
C106   C108    1.389   .     A
C107   C113    1.398   .     A
C107   C109    1.411   .     A
C108   C110    1.411   .     A
C108   C114    1.398   .     A
C109   C111    1.419   .     A
C109   C156    1.406   .     S
C110   C112    1.419   .     A
C110   C155    1.406   1_455 S
C113   H135    1.084   .     S
C113   C141    1.391   .     S
C114   H136    1.084   .     S
C114   C142    1.391   1_455 S
Cu115  Cu116   2.713   .     S
Cu115  N124    2.038   .     S
Cu115  O129    1.956   .     S
Cu115  O132    1.949   .     S
Cu115  O128    1.946   .     S
Cu115  O125    1.948   .     S
Cu116  O130    1.956   .     S
Cu116  N123    2.038   .     S
Cu116  O127    1.946   .     S
Cu116  O131    1.949   .     S
Cu116  O126    1.948   .     S
H121   C189    1.087   .     S
N123   N676    1.293   1_554 S
N123   Br689   1.881   1_554 S
N124   N399    1.293   .     S
N124   Br414   1.881   .     S
Br137  N399    1.881   .     S
Br138  N676    1.881   1_554 S
C139   O171    1.297   .     A
C139   C143    1.427   .     S
C139   O173    1.295   .     A
C140   O172    1.297   .     A
C140   C144    1.427   .     S
C140   O174    1.295   .     A
C141   H165    1.081   .     S
C141   C158    1.407   .     A
C142   H166    1.081   .     S
C142   C157    1.407   .     A
C142   C114    1.391   1_655 S
C144   C235    1.331   .     S
C144   H260    1.087   .     S
C145   O175    1.300   .     A
C145   C150    1.441   .     S
C145   O177    1.298   .     A
C146   O176    1.300   .     A
C146   C149    1.441   .     S
C146   O178    1.298   .     A
C147   Br179   1.935   .     S
C147   C149    1.405   .     A
C147   C157    1.407   .     A
C148   Br180   1.935   .     S
C148   C150    1.405   .     A
C148   C158    1.407   .     A
C149   C151    1.393   .     A
C150   C152    1.393   .     A
C151   H163    1.086   .     S
C151   C153    1.389   .     A
C152   H164    1.086   .     S
C152   C154    1.389   .     A
C153   C159    1.398   .     A
C153   C155    1.411   .     A
C154   C156    1.411   .     A
C154   C160    1.398   .     A
C155   C157    1.419   .     A
C155   C110    1.406   1_655 S
C156   C158    1.419   .     A
C159   H181    1.084   .     S
C159   C95     1.391   1_655 S
C160   H182    1.084   .     S
Cu161  Cu162   2.713   .     S
Cu161  N170    2.038   .     S
Cu161  O175    1.956   .     S
Cu161  O178    1.949   .     S
Cu161  O174    1.946   .     S
Cu161  O171    1.948   .     S
Cu162  O176    1.956   .     S
Cu162  N169    2.038   .     S
Cu162  O173    1.946   .     S
Cu162  O177    1.949   .     S
Cu162  O172    1.948   .     S
H167   C235    1.087   .     S
N169   N722    1.293   1_554 S
N169   Br735   1.881   1_554 S
N170   N445    1.293   .     S
N170   Br460   1.881   .     S
Br183  N445    1.881   .     S
Br184  N722    1.881   1_554 S
C185   O217    1.297   .     A
C185   C189    1.427   .     S
C185   O219    1.295   .     A
C186   O218    1.297   .     A
C186   C190    1.427   .     S
C186   O220    1.295   .     A
C187   H211    1.081   .     S
C187   C204    1.407   .     A
C187   C251    1.391   1_455 S
C188   H212    1.081   .     S
C188   C203    1.407   .     A
C188   C252    1.391   .     S
C190   C5      1.331   1_565 S
C190   H30     1.087   1_565 S
C191   O221    1.300   .     A
C191   C196    1.441   .     S
C191   O223    1.298   .     A
C192   O222    1.300   .     A
C192   C195    1.441   .     S
C192   O224    1.298   .     A
C193   Br225   1.935   .     S
C193   C195    1.405   .     A
C193   C203    1.407   .     A
C194   Br226   1.935   .     S
C194   C196    1.405   .     A
C194   C204    1.407   .     A
C195   C197    1.393   .     A
C196   C198    1.393   .     A
C197   H209    1.086   .     S
C197   C199    1.389   .     A
C198   H210    1.086   .     S
C198   C200    1.389   .     A
C199   C205    1.398   .     A
C199   C201    1.411   .     A
C200   C202    1.411   .     A
C200   C206    1.398   .     A
C201   C203    1.419   .     A
C201   C248    1.406   .     S
C202   C204    1.419   .     A
C202   C247    1.406   1_455 S
C205   H227    1.084   .     S
C205   C233    1.391   .     S
C206   H228    1.084   .     S
C206   C234    1.391   1_455 S
Cu207  Cu208   2.713   .     S
Cu207  N216    2.038   .     S
Cu207  O221    1.956   .     S
Cu207  O224    1.949   .     S
Cu207  O220    1.946   .     S
Cu207  O217    1.948   .     S
Cu208  O222    1.956   .     S
Cu208  N215    2.038   .     S
Cu208  O219    1.946   .     S
Cu208  O223    1.949   .     S
Cu208  O218    1.948   .     S
H213   C5      1.087   1_565 S
N215   N768    1.293   1_554 S
N215   Br781   1.881   1_554 S
N216   N491    1.293   .     S
N216   Br506   1.881   .     S
Br229  N491    1.881   .     S
Br230  N768    1.881   1_554 S
C231   O263    1.297   .     A
C231   C235    1.427   .     S
C231   O265    1.295   .     A
C232   O264    1.297   .     A
C232   C236    1.427   .     S
C232   O266    1.295   .     A
C233   H257    1.081   .     S
C233   C250    1.407   .     A
C234   H258    1.081   .     S
C234   C249    1.407   .     A
C234   C206    1.391   1_655 S
C236   C51     1.331   1_565 S
C236   H76     1.087   1_565 S
C237   O267    1.300   .     A
C237   C242    1.441   .     S
C237   O269    1.298   .     A
C238   O268    1.300   .     A
C238   C241    1.441   .     S
C238   O270    1.298   .     A
C239   Br271   1.935   .     S
C239   C241    1.405   .     A
C239   C249    1.407   .     A
C240   Br272   1.935   .     S
C240   C242    1.405   .     A
C240   C250    1.407   .     A
C241   C243    1.393   .     A
C242   C244    1.393   .     A
C243   H255    1.086   .     S
C243   C245    1.389   .     A
C244   H256    1.086   .     S
C244   C246    1.389   .     A
C245   C251    1.398   .     A
C245   C247    1.411   .     A
C246   C248    1.411   .     A
C246   C252    1.398   .     A
C247   C249    1.419   .     A
C247   C202    1.406   1_655 S
C248   C250    1.419   .     A
C251   H273    1.084   .     S
C251   C187    1.391   1_655 S
C252   H274    1.084   .     S
Cu253  Cu254   2.713   .     S
Cu253  N262    2.038   .     S
Cu253  O267    1.956   .     S
Cu253  O270    1.949   .     S
Cu253  O266    1.946   .     S
Cu253  O263    1.948   .     S
Cu254  O268    1.956   .     S
Cu254  N261    2.038   .     S
Cu254  O265    1.946   .     S
Cu254  O269    1.949   .     S
Cu254  O264    1.948   .     S
H259   C51     1.087   1_565 S
N261   N814    1.293   1_554 S
N261   Br827   1.881   1_554 S
N262   N537    1.293   .     S
N262   Br552   1.881   .     S
Br275  N537    1.881   .     S
Br276  N814    1.881   1_554 S
C277   O309    1.297   .     A
C277   C281    1.427   .     S
C277   O311    1.295   .     A
C278   O310    1.297   .     A
C278   C282    1.427   .     S
C278   O312    1.295   .     A
C279   H303    1.081   .     S
C279   C296    1.407   .     A
C279   C343    1.391   1_455 S
C280   H304    1.081   .     S
C280   C295    1.407   .     A
C280   C344    1.391   .     S
C281   C466    1.331   1_545 S
C281   H489    1.087   1_545 S
C282   C373    1.331   .     S
C282   H398    1.087   .     S
C283   O313    1.300   .     A
C283   C288    1.441   .     S
C283   O315    1.298   .     A
C284   O314    1.300   .     A
C284   C287    1.441   .     S
C284   O316    1.298   .     A
C285   Br317   1.935   .     S
C285   C287    1.405   .     A
C285   C295    1.407   .     A
C286   Br318   1.935   .     S
C286   C288    1.405   .     A
C286   C296    1.407   .     A
C287   C289    1.393   .     A
C288   C290    1.393   .     A
C289   H301    1.086   .     S
C289   C291    1.389   .     A
C290   H302    1.086   .     S
C290   C292    1.389   .     A
C291   C297    1.398   .     A
C291   C293    1.411   .     A
C292   C294    1.411   .     A
C292   C298    1.398   .     A
C293   C295    1.419   .     A
C293   C340    1.406   .     S
C294   C296    1.419   .     A
C294   C339    1.406   1_455 S
C297   H319    1.084   .     S
C297   C325    1.391   .     S
C298   H320    1.084   .     S
C298   C326    1.391   1_455 S
Cu299  Cu300   2.713   .     S
Cu299  N308    2.038   .     S
Cu299  O313    1.956   .     S
Cu299  O316    1.949   .     S
Cu299  O312    1.946   .     S
Cu299  O309    1.948   .     S
Cu300  O314    1.956   .     S
Cu300  N307    2.038   .     S
Cu300  O311    1.946   .     S
Cu300  O315    1.949   .     S
Cu300  O310    1.948   .     S
H305   C373    1.087   .     S
H306   C466    1.087   1_545 S
N308   N583    1.293   .     S
N308   Br598   1.881   .     S
Br321  N583    1.881   .     S
C323   O355    1.297   .     A
C323   C327    1.427   .     S
C323   O357    1.295   .     A
C324   O356    1.297   .     A
C324   C328    1.427   .     S
C324   O358    1.295   .     A
C325   H349    1.081   .     S
C325   C342    1.407   .     A
C326   H350    1.081   .     S
C326   C341    1.407   .     A
C326   C298    1.391   1_655 S
C327   C512    1.331   1_545 S
C327   H535    1.087   1_545 S
C328   C419    1.331   .     S
C328   H444    1.087   .     S
C329   O359    1.300   .     A
C329   C334    1.441   .     S
C329   O361    1.298   .     A
C330   O360    1.300   .     A
C330   C333    1.441   .     S
C330   O362    1.298   .     A
C331   Br363   1.935   .     S
C331   C333    1.405   .     A
C331   C341    1.407   .     A
C332   Br364   1.935   .     S
C332   C334    1.405   .     A
C332   C342    1.407   .     A
C333   C335    1.393   .     A
C334   C336    1.393   .     A
C335   H347    1.086   .     S
C335   C337    1.389   .     A
C336   H348    1.086   .     S
C336   C338    1.389   .     A
C337   C343    1.398   .     A
C337   C339    1.411   .     A
C338   C340    1.411   .     A
C338   C344    1.398   .     A
C339   C341    1.419   .     A
C339   C294    1.406   1_655 S
C340   C342    1.419   .     A
C343   H365    1.084   .     S
C343   C279    1.391   1_655 S
C344   H366    1.084   .     S
Cu345  Cu346   2.713   .     S
Cu345  N354    2.038   .     S
Cu345  O359    1.956   .     S
Cu345  O362    1.949   .     S
Cu345  O358    1.946   .     S
Cu345  O355    1.948   .     S
Cu346  O360    1.956   .     S
Cu346  N353    2.038   .     S
Cu346  O357    1.946   .     S
Cu346  O361    1.949   .     S
Cu346  O356    1.948   .     S
H351   C419    1.087   .     S
H352   C512    1.087   1_545 S
N354   N629    1.293   .     S
N354   Br644   1.881   .     S
Br367  N629    1.881   .     S
C369   O401    1.297   .     A
C369   C373    1.427   .     S
C369   O403    1.295   .     A
C370   O402    1.297   .     A
C370   C374    1.427   .     S
C370   O404    1.295   .     A
C371   H395    1.081   .     S
C371   C388    1.407   .     A
C371   C435    1.391   1_455 S
C372   H396    1.081   .     S
C372   C387    1.407   .     A
C372   C436    1.391   .     S
C374   C465    1.331   .     S
C374   H490    1.087   .     S
C375   O405    1.300   .     A
C375   C380    1.441   .     S
C375   O407    1.298   .     A
C376   O406    1.300   .     A
C376   C379    1.441   .     S
C376   O408    1.298   .     A
C377   Br409   1.935   .     S
C377   C379    1.405   .     A
C377   C387    1.407   .     A
C378   Br410   1.935   .     S
C378   C380    1.405   .     A
C378   C388    1.407   .     A
C379   C381    1.393   .     A
C380   C382    1.393   .     A
C381   H393    1.086   .     S
C381   C383    1.389   .     A
C382   H394    1.086   .     S
C382   C384    1.389   .     A
C383   C389    1.398   .     A
C383   C385    1.411   .     A
C384   C386    1.411   .     A
C384   C390    1.398   .     A
C385   C387    1.419   .     A
C385   C432    1.406   .     S
C386   C388    1.419   .     A
C386   C431    1.406   1_455 S
C389   H411    1.084   .     S
C389   C417    1.391   .     S
C390   H412    1.084   .     S
C390   C418    1.391   1_455 S
Cu391  Cu392   2.713   .     S
Cu391  N400    2.038   .     S
Cu391  O405    1.956   .     S
Cu391  O408    1.949   .     S
Cu391  O404    1.946   .     S
Cu391  O401    1.948   .     S
Cu392  O406    1.956   .     S
Cu392  N399    2.038   .     S
Cu392  O403    1.946   .     S
Cu392  O407    1.949   .     S
Cu392  O402    1.948   .     S
H397   C465    1.087   .     S
N400   N675    1.293   .     S
N400   Br690   1.881   .     S
Br413  N675    1.881   .     S
C415   O447    1.297   .     A
C415   C419    1.427   .     S
C415   O449    1.295   .     A
C416   O448    1.297   .     A
C416   C420    1.427   .     S
C416   O450    1.295   .     A
C417   H441    1.081   .     S
C417   C434    1.407   .     A
C418   H442    1.081   .     S
C418   C433    1.407   .     A
C418   C390    1.391   1_655 S
C420   C511    1.331   .     S
C420   H536    1.087   .     S
C421   O451    1.300   .     A
C421   C426    1.441   .     S
C421   O453    1.298   .     A
C422   O452    1.300   .     A
C422   C425    1.441   .     S
C422   O454    1.298   .     A
C423   Br455   1.935   .     S
C423   C425    1.405   .     A
C423   C433    1.407   .     A
C424   Br456   1.935   .     S
C424   C426    1.405   .     A
C424   C434    1.407   .     A
C425   C427    1.393   .     A
C426   C428    1.393   .     A
C427   H439    1.086   .     S
C427   C429    1.389   .     A
C428   H440    1.086   .     S
C428   C430    1.389   .     A
C429   C435    1.398   .     A
C429   C431    1.411   .     A
C430   C432    1.411   .     A
C430   C436    1.398   .     A
C431   C433    1.419   .     A
C431   C386    1.406   1_655 S
C432   C434    1.419   .     A
C435   H457    1.084   .     S
C435   C371    1.391   1_655 S
C436   H458    1.084   .     S
Cu437  Cu438   2.713   .     S
Cu437  N446    2.038   .     S
Cu437  O451    1.956   .     S
Cu437  O454    1.949   .     S
Cu437  O450    1.946   .     S
Cu437  O447    1.948   .     S
Cu438  O452    1.956   .     S
Cu438  N445    2.038   .     S
Cu438  O449    1.946   .     S
Cu438  O453    1.949   .     S
Cu438  O448    1.948   .     S
H443   C511    1.087   .     S
N446   N721    1.293   .     S
N446   Br736   1.881   .     S
Br459  N721    1.881   .     S
C461   O493    1.297   .     A
C461   C465    1.427   .     S
C461   O495    1.295   .     A
C462   O494    1.297   .     A
C462   C466    1.427   .     S
C462   O496    1.295   .     A
C463   H487    1.081   .     S
C463   C480    1.407   .     A
C463   C527    1.391   1_455 S
C464   H488    1.081   .     S
C464   C479    1.407   .     A
C464   C528    1.391   .     S
C466   C281    1.331   1_565 S
C466   H306    1.087   1_565 S
C467   O497    1.300   .     A
C467   C472    1.441   .     S
C467   O499    1.298   .     A
C468   O498    1.300   .     A
C468   C471    1.441   .     S
C468   O500    1.298   .     A
C469   Br501   1.935   .     S
C469   C471    1.405   .     A
C469   C479    1.407   .     A
C470   Br502   1.935   .     S
C470   C472    1.405   .     A
C470   C480    1.407   .     A
C471   C473    1.393   .     A
C472   C474    1.393   .     A
C473   H485    1.086   .     S
C473   C475    1.389   .     A
C474   H486    1.086   .     S
C474   C476    1.389   .     A
C475   C481    1.398   .     A
C475   C477    1.411   .     A
C476   C478    1.411   .     A
C476   C482    1.398   .     A
C477   C479    1.419   .     A
C477   C524    1.406   .     S
C478   C480    1.419   .     A
C478   C523    1.406   1_455 S
C481   H503    1.084   .     S
C481   C509    1.391   .     S
C482   H504    1.084   .     S
C482   C510    1.391   1_455 S
Cu483  Cu484   2.713   .     S
Cu483  N492    2.038   .     S
Cu483  O497    1.956   .     S
Cu483  O500    1.949   .     S
Cu483  O496    1.946   .     S
Cu483  O493    1.948   .     S
Cu484  O498    1.956   .     S
Cu484  N491    2.038   .     S
Cu484  O495    1.946   .     S
Cu484  O499    1.949   .     S
Cu484  O494    1.948   .     S
H489   C281    1.087   1_565 S
N492   N767    1.293   .     S
N492   Br782   1.881   .     S
Br505  N767    1.881   .     S
C507   O539    1.297   .     A
C507   C511    1.427   .     S
C507   O541    1.295   .     A
C508   O540    1.297   .     A
C508   C512    1.427   .     S
C508   O542    1.295   .     A
C509   H533    1.081   .     S
C509   C526    1.407   .     A
C510   H534    1.081   .     S
C510   C525    1.407   .     A
C510   C482    1.391   1_655 S
C512   C327    1.331   1_565 S
C512   H352    1.087   1_565 S
C513   O543    1.300   .     A
C513   C518    1.441   .     S
C513   O545    1.298   .     A
C514   O544    1.300   .     A
C514   C517    1.441   .     S
C514   O546    1.298   .     A
C515   Br547   1.935   .     S
C515   C517    1.405   .     A
C515   C525    1.407   .     A
C516   Br548   1.935   .     S
C516   C518    1.405   .     A
C516   C526    1.407   .     A
C517   C519    1.393   .     A
C518   C520    1.393   .     A
C519   H531    1.086   .     S
C519   C521    1.389   .     A
C520   H532    1.086   .     S
C520   C522    1.389   .     A
C521   C527    1.398   .     A
C521   C523    1.411   .     A
C522   C524    1.411   .     A
C522   C528    1.398   .     A
C523   C525    1.419   .     A
C523   C478    1.406   1_655 S
C524   C526    1.419   .     A
C527   H549    1.084   .     S
C527   C463    1.391   1_655 S
C528   H550    1.084   .     S
Cu529  Cu530   2.713   .     S
Cu529  N538    2.038   .     S
Cu529  O543    1.956   .     S
Cu529  O546    1.949   .     S
Cu529  O542    1.946   .     S
Cu529  O539    1.948   .     S
Cu530  O544    1.956   .     S
Cu530  N537    2.038   .     S
Cu530  O541    1.946   .     S
Cu530  O545    1.949   .     S
Cu530  O540    1.948   .     S
H535   C327    1.087   1_565 S
N538   N813    1.293   .     S
N538   Br828   1.881   .     S
Br551  N813    1.881   .     S
C553   O585    1.297   .     A
C553   C557    1.427   .     S
C553   O587    1.295   .     A
C554   O586    1.297   .     A
C554   C558    1.427   .     S
C554   O588    1.295   .     A
C555   H579    1.081   .     S
C555   C572    1.407   .     A
C555   C619    1.391   1_455 S
C556   H580    1.081   .     S
C556   C571    1.407   .     A
C556   C620    1.391   .     S
C557   C742    1.331   1_545 S
C557   H765    1.087   1_545 S
C558   C649    1.331   .     S
C558   H674    1.087   .     S
C559   O589    1.300   .     A
C559   C564    1.441   .     S
C559   O591    1.298   .     A
C560   O590    1.300   .     A
C560   C563    1.441   .     S
C560   O592    1.298   .     A
C561   Br593   1.935   .     S
C561   C563    1.405   .     A
C561   C571    1.407   .     A
C562   Br594   1.935   .     S
C562   C564    1.405   .     A
C562   C572    1.407   .     A
C563   C565    1.393   .     A
C564   C566    1.393   .     A
C565   H577    1.086   .     S
C565   C567    1.389   .     A
C566   H578    1.086   .     S
C566   C568    1.389   .     A
C567   C573    1.398   .     A
C567   C569    1.411   .     A
C568   C570    1.411   .     A
C568   C574    1.398   .     A
C569   C571    1.419   .     A
C569   C616    1.406   .     S
C570   C572    1.419   .     A
C570   C615    1.406   1_455 S
C573   H595    1.084   .     S
C573   C601    1.391   .     S
C574   H596    1.084   .     S
C574   C602    1.391   1_455 S
Cu575  Cu576   2.713   .     S
Cu575  N584    2.038   .     S
Cu575  O589    1.956   .     S
Cu575  O592    1.949   .     S
Cu575  O588    1.946   .     S
Cu575  O585    1.948   .     S
Cu576  O590    1.956   .     S
Cu576  N583    2.038   .     S
Cu576  O587    1.946   .     S
Cu576  O591    1.949   .     S
Cu576  O586    1.948   .     S
H581   C649    1.087   .     S
H582   C742    1.087   1_545 S
N584   N31     1.293   1_556 S
N584   Br46    1.881   1_556 S
Br597  N31     1.881   1_556 S
C599   O631    1.297   .     A
C599   C603    1.427   .     S
C599   O633    1.295   .     A
C600   O632    1.297   .     A
C600   C604    1.427   .     S
C600   O634    1.295   .     A
C601   H625    1.081   .     S
C601   C618    1.407   .     A
C602   H626    1.081   .     S
C602   C617    1.407   .     A
C602   C574    1.391   1_655 S
C603   C788    1.331   1_545 S
C603   H811    1.087   1_545 S
C604   C695    1.331   .     S
C604   H720    1.087   .     S
C605   O635    1.300   .     A
C605   C610    1.441   .     S
C605   O637    1.298   .     A
C606   O636    1.300   .     A
C606   C609    1.441   .     S
C606   O638    1.298   .     A
C607   Br639   1.935   .     S
C607   C609    1.405   .     A
C607   C617    1.407   .     A
C608   Br640   1.935   .     S
C608   C610    1.405   .     A
C608   C618    1.407   .     A
C609   C611    1.393   .     A
C610   C612    1.393   .     A
C611   H623    1.086   .     S
C611   C613    1.389   .     A
C612   H624    1.086   .     S
C612   C614    1.389   .     A
C613   C619    1.398   .     A
C613   C615    1.411   .     A
C614   C616    1.411   .     A
C614   C620    1.398   .     A
C615   C617    1.419   .     A
C615   C570    1.406   1_655 S
C616   C618    1.419   .     A
C619   H641    1.084   .     S
C619   C555    1.391   1_655 S
C620   H642    1.084   .     S
Cu621  Cu622   2.713   .     S
Cu621  N630    2.038   .     S
Cu621  O635    1.956   .     S
Cu621  O638    1.949   .     S
Cu621  O634    1.946   .     S
Cu621  O631    1.948   .     S
Cu622  O636    1.956   .     S
Cu622  N629    2.038   .     S
Cu622  O633    1.946   .     S
Cu622  O637    1.949   .     S
Cu622  O632    1.948   .     S
H627   C695    1.087   .     S
H628   C788    1.087   1_545 S
N630   N77     1.293   1_556 S
N630   Br92    1.881   1_556 S
Br643  N77     1.881   1_556 S
C645   O677    1.297   .     A
C645   C649    1.427   .     S
C645   O679    1.295   .     A
C646   O678    1.297   .     A
C646   C650    1.427   .     S
C646   O680    1.295   .     A
C647   H671    1.081   .     S
C647   C664    1.407   .     A
C647   C711    1.391   1_455 S
C648   H672    1.081   .     S
C648   C663    1.407   .     A
C648   C712    1.391   .     S
C650   C741    1.331   .     S
C650   H766    1.087   .     S
C651   O681    1.300   .     A
C651   C656    1.441   .     S
C651   O683    1.298   .     A
C652   O682    1.300   .     A
C652   C655    1.441   .     S
C652   O684    1.298   .     A
C653   Br685   1.935   .     S
C653   C655    1.405   .     A
C653   C663    1.407   .     A
C654   Br686   1.935   .     S
C654   C656    1.405   .     A
C654   C664    1.407   .     A
C655   C657    1.393   .     A
C656   C658    1.393   .     A
C657   H669    1.086   .     S
C657   C659    1.389   .     A
C658   H670    1.086   .     S
C658   C660    1.389   .     A
C659   C665    1.398   .     A
C659   C661    1.411   .     A
C660   C662    1.411   .     A
C660   C666    1.398   .     A
C661   C663    1.419   .     A
C661   C708    1.406   .     S
C662   C664    1.419   .     A
C662   C707    1.406   1_455 S
C665   H687    1.084   .     S
C665   C693    1.391   .     S
C666   H688    1.084   .     S
C666   C694    1.391   1_455 S
Cu667  Cu668   2.713   .     S
Cu667  N676    2.038   .     S
Cu667  O681    1.956   .     S
Cu667  O684    1.949   .     S
Cu667  O680    1.946   .     S
Cu667  O677    1.948   .     S
Cu668  O682    1.956   .     S
Cu668  N675    2.038   .     S
Cu668  O679    1.946   .     S
Cu668  O683    1.949   .     S
Cu668  O678    1.948   .     S
H673   C741    1.087   .     S
N676   N123    1.293   1_556 S
N676   Br138   1.881   1_556 S
Br689  N123    1.881   1_556 S
C691   O723    1.297   .     A
C691   C695    1.427   .     S
C691   O725    1.295   .     A
C692   O724    1.297   .     A
C692   C696    1.427   .     S
C692   O726    1.295   .     A
C693   H717    1.081   .     S
C693   C710    1.407   .     A
C694   H718    1.081   .     S
C694   C709    1.407   .     A
C694   C666    1.391   1_655 S
C696   C787    1.331   .     S
C696   H812    1.087   .     S
C697   O727    1.300   .     A
C697   C702    1.441   .     S
C697   O729    1.298   .     A
C698   O728    1.300   .     A
C698   C701    1.441   .     S
C698   O730    1.298   .     A
C699   Br731   1.935   .     S
C699   C701    1.405   .     A
C699   C709    1.407   .     A
C700   Br732   1.935   .     S
C700   C702    1.405   .     A
C700   C710    1.407   .     A
C701   C703    1.393   .     A
C702   C704    1.393   .     A
C703   H715    1.086   .     S
C703   C705    1.389   .     A
C704   H716    1.086   .     S
C704   C706    1.389   .     A
C705   C711    1.398   .     A
C705   C707    1.411   .     A
C706   C708    1.411   .     A
C706   C712    1.398   .     A
C707   C709    1.419   .     A
C707   C662    1.406   1_655 S
C708   C710    1.419   .     A
C711   H733    1.084   .     S
C711   C647    1.391   1_655 S
C712   H734    1.084   .     S
Cu713  Cu714   2.713   .     S
Cu713  N722    2.038   .     S
Cu713  O727    1.956   .     S
Cu713  O730    1.949   .     S
Cu713  O726    1.946   .     S
Cu713  O723    1.948   .     S
Cu714  O728    1.956   .     S
Cu714  N721    2.038   .     S
Cu714  O725    1.946   .     S
Cu714  O729    1.949   .     S
Cu714  O724    1.948   .     S
H719   C787    1.087   .     S
N722   N169    1.293   1_556 S
N722   Br184   1.881   1_556 S
Br735  N169    1.881   1_556 S
C737   O769    1.297   .     A
C737   C741    1.427   .     S
C737   O771    1.295   .     A
C738   O770    1.297   .     A
C738   C742    1.427   .     S
C738   O772    1.295   .     A
C739   H763    1.081   .     S
C739   C756    1.407   .     A
C739   C803    1.391   1_455 S
C740   H764    1.081   .     S
C740   C755    1.407   .     A
C740   C804    1.391   .     S
C742   C557    1.331   1_565 S
C742   H582    1.087   1_565 S
C743   O773    1.300   .     A
C743   C748    1.441   .     S
C743   O775    1.298   .     A
C744   O774    1.300   .     A
C744   C747    1.441   .     S
C744   O776    1.298   .     A
C745   Br777   1.935   .     S
C745   C747    1.405   .     A
C745   C755    1.407   .     A
C746   Br778   1.935   .     S
C746   C748    1.405   .     A
C746   C756    1.407   .     A
C747   C749    1.393   .     A
C748   C750    1.393   .     A
C749   H761    1.086   .     S
C749   C751    1.389   .     A
C750   H762    1.086   .     S
C750   C752    1.389   .     A
C751   C757    1.398   .     A
C751   C753    1.411   .     A
C752   C754    1.411   .     A
C752   C758    1.398   .     A
C753   C755    1.419   .     A
C753   C800    1.406   .     S
C754   C756    1.419   .     A
C754   C799    1.406   1_455 S
C757   H779    1.084   .     S
C757   C785    1.391   .     S
C758   H780    1.084   .     S
C758   C786    1.391   1_455 S
Cu759  Cu760   2.713   .     S
Cu759  N768    2.038   .     S
Cu759  O773    1.956   .     S
Cu759  O776    1.949   .     S
Cu759  O772    1.946   .     S
Cu759  O769    1.948   .     S
Cu760  O774    1.956   .     S
Cu760  N767    2.038   .     S
Cu760  O771    1.946   .     S
Cu760  O775    1.949   .     S
Cu760  O770    1.948   .     S
H765   C557    1.087   1_565 S
N768   N215    1.293   1_556 S
N768   Br230   1.881   1_556 S
Br781  N215    1.881   1_556 S
C783   O815    1.297   .     A
C783   C787    1.427   .     S
C783   O817    1.295   .     A
C784   O816    1.297   .     A
C784   C788    1.427   .     S
C784   O818    1.295   .     A
C785   H809    1.081   .     S
C785   C802    1.407   .     A
C786   H810    1.081   .     S
C786   C801    1.407   .     A
C786   C758    1.391   1_655 S
C788   C603    1.331   1_565 S
C788   H628    1.087   1_565 S
C789   O819    1.300   .     A
C789   C794    1.441   .     S
C789   O821    1.298   .     A
C790   O820    1.300   .     A
C790   C793    1.441   .     S
C790   O822    1.298   .     A
C791   Br823   1.935   .     S
C791   C793    1.405   .     A
C791   C801    1.407   .     A
C792   Br824   1.935   .     S
C792   C794    1.405   .     A
C792   C802    1.407   .     A
C793   C795    1.393   .     A
C794   C796    1.393   .     A
C795   H807    1.086   .     S
C795   C797    1.389   .     A
C796   H808    1.086   .     S
C796   C798    1.389   .     A
C797   C803    1.398   .     A
C797   C799    1.411   .     A
C798   C800    1.411   .     A
C798   C804    1.398   .     A
C799   C801    1.419   .     A
C799   C754    1.406   1_655 S
C800   C802    1.419   .     A
C803   H825    1.084   .     S
C803   C739    1.391   1_655 S
C804   H826    1.084   .     S
Cu805  Cu806   2.713   .     S
Cu805  N814    2.038   .     S
Cu805  O819    1.956   .     S
Cu805  O822    1.949   .     S
Cu805  O818    1.946   .     S
Cu805  O815    1.948   .     S
Cu806  O820    1.956   .     S
Cu806  N813    2.038   .     S
Cu806  O817    1.946   .     S
Cu806  O821    1.949   .     S
Cu806  O816    1.948   .     S
H811   C603    1.087   1_565 S
N814   N261    1.293   1_556 S
N814   Br276   1.881   1_556 S
Br827  N261    1.881   1_556 S
