data_str_m2_o10_o18_pcu_sym.7
_audit_creation_date              2020-01-03
_audit_creation_method            'Materials Studio'
_symmetry_space_group_name_H-M    'P1'
_symmetry_Int_Tables_number       1
_symmetry_cell_setting            triclinic
loop_
_symmetry_equiv_pos_as_xyz
  x,y,z
_cell_length_a                    22.5240
_cell_length_b                    26.0441
_cell_length_c                    31.6457
_cell_angle_alpha                 94.3983
_cell_angle_beta                  76.5657
_cell_angle_gamma                 100.9090
loop_
_atom_site_label
_atom_site_type_symbol
_atom_site_fract_x
_atom_site_fract_y
_atom_site_fract_z
_atom_site_U_iso_or_equiv
_atom_site_adp_type
_atom_site_occupancy
Br1    Br    0.00198   0.25671   0.14109   0.00000  Uiso   1.00
Br2    Br    0.33135   0.07663   0.35891   0.00000  Uiso   1.00
Br3    Br    0.04784   0.13417   0.09709   0.00000  Uiso   1.00
Br4    Br    0.28549   0.19917   0.40291   0.00000  Uiso   1.00
C5     C     0.18119   0.26601   0.24882   0.00000  Uiso   1.00
C6     C     0.20469   0.17246   0.16738   0.00000  Uiso   1.00
C7     C     0.10617   0.14951   0.37895   0.00000  Uiso   1.00
C8     C     0.22717   0.18383   0.12105   0.00000  Uiso   1.00
C9     C     0.03836   0.09909   0.43801   0.00000  Uiso   1.00
C10    C     0.29498   0.23425   0.06199   0.00000  Uiso   1.00
C11    C     0.05309   0.11183   0.39446   0.00000  Uiso   1.00
C12    C     0.28025   0.22151   0.10554   0.00000  Uiso   1.00
C13    C     0.14302   0.17308   0.40754   0.00000  Uiso   1.00
C14    C     0.19032   0.16026   0.09246   0.00000  Uiso   1.00
C15    C     0.13392   0.15506   0.44970   0.00000  Uiso   1.00
C16    C     0.15214   0.06733   0.25118   0.00000  Uiso   1.00
C17    C     0.19941   0.17827   0.05030   0.00000  Uiso   1.00
C18    C     0.07796   0.12046   0.46555   0.00000  Uiso   1.00
C19    C     0.25538   0.21287   0.03444   0.00000  Uiso   1.00
C20    C     0.17650   0.17234   0.47731   0.00000  Uiso   1.00
C21    C     0.15684   0.16099   0.02269   0.00000  Uiso   1.00
C22    C     0.09515   0.13357   0.03826   0.00000  Uiso   1.00
C23    C     0.23819   0.19976   0.46174   0.00000  Uiso   1.00
C24    C     0.05936   0.11037   0.00941   0.00000  Uiso   1.00
C25    C     0.27397   0.22297   0.49059   0.00000  Uiso   1.00
C26    C     0.18728   0.31935   0.23846   0.00000  Uiso   1.00
C27    C     0.14605   0.01399   0.26154   0.00000  Uiso   1.00
C28    C     0.12865   0.16087   0.33262   0.00000  Uiso   1.00
Cl29   Cl    0.22844   0.00287   0.18535   0.00000  Uiso   1.00
Cl30   Cl    0.10489   0.33047   0.31465   0.00000  Uiso   1.00
Cl31   Cl    0.00817   0.22785   0.29750   0.00000  Uiso   1.00
Cl32   Cl    0.32516   0.10549   0.20250   0.00000  Uiso   1.00
Cu33   Cu    0.10737   0.16108   0.24516   0.00000  Uiso   1.00
Cu34   Cu    0.22596   0.17225   0.25483   0.00000  Uiso   1.00
H35    H     0.01377   0.08771   0.02198   0.00000  Uiso   1.00
H36    H     0.31956   0.24563   0.47802   0.00000  Uiso   1.00
H37    H     0.15631   0.12634   0.10344   0.00000  Uiso   1.00
H38    H     0.17702   0.20700   0.39656   0.00000  Uiso   1.00
H39    H     0.32928   0.07201   0.45032   0.00000  Uiso   1.00
H40    H     0.00405   0.26132   0.04968   0.00000  Uiso   1.00
N41    N     0.31506   0.18068   0.26212   0.00000  Uiso   1.00
N42    N     0.01827   0.15265   0.23788   0.00000  Uiso   1.00
O43    O     0.12815   0.23809   0.24686   0.00000  Uiso   1.00
O44    O     0.20518   0.09524   0.25314   0.00000  Uiso   1.00
O45    O     0.22829   0.24753   0.25502   0.00000  Uiso   1.00
O46    O     0.10504   0.08580   0.24497   0.00000  Uiso   1.00
O47    O     0.08851   0.15930   0.30854   0.00000  Uiso   1.00
O48    O     0.24482   0.17403   0.19145   0.00000  Uiso   1.00
O49    O     0.18866   0.16874   0.31671   0.00000  Uiso   1.00
O50    O     0.14468   0.16460   0.18329   0.00000  Uiso   1.00
Br51   Br    0.33532   0.25671   0.14109   0.00000  Uiso   1.00
Br52   Br    0.66468   0.07663   0.35891   0.00000  Uiso   1.00
Br53   Br    0.38117   0.13417   0.09709   0.00000  Uiso   1.00
Br54   Br    0.61883   0.19917   0.40291   0.00000  Uiso   1.00
C55    C     0.51452   0.26601   0.24882   0.00000  Uiso   1.00
C56    C     0.53802   0.17246   0.16738   0.00000  Uiso   1.00
C57    C     0.43950   0.14951   0.37895   0.00000  Uiso   1.00
C58    C     0.56050   0.18383   0.12105   0.00000  Uiso   1.00
C59    C     0.37169   0.09909   0.43801   0.00000  Uiso   1.00
C60    C     0.62831   0.23425   0.06199   0.00000  Uiso   1.00
C61    C     0.38642   0.11183   0.39446   0.00000  Uiso   1.00
C62    C     0.61358   0.22151   0.10554   0.00000  Uiso   1.00
C63    C     0.47635   0.17308   0.40754   0.00000  Uiso   1.00
C64    C     0.52365   0.16026   0.09246   0.00000  Uiso   1.00
C65    C     0.46726   0.15506   0.44970   0.00000  Uiso   1.00
C66    C     0.48548   0.06733   0.25118   0.00000  Uiso   1.00
C67    C     0.53274   0.17827   0.05030   0.00000  Uiso   1.00
C68    C     0.41129   0.12046   0.46555   0.00000  Uiso   1.00
C69    C     0.58871   0.21287   0.03444   0.00000  Uiso   1.00
C70    C     0.50983   0.17234   0.47731   0.00000  Uiso   1.00
C71    C     0.49017   0.16099   0.02269   0.00000  Uiso   1.00
C72    C     0.42848   0.13357   0.03826   0.00000  Uiso   1.00
C73    C     0.57152   0.19976   0.46174   0.00000  Uiso   1.00
C74    C     0.39269   0.11037   0.00941   0.00000  Uiso   1.00
C75    C     0.60731   0.22297   0.49059   0.00000  Uiso   1.00
C76    C     0.52062   0.31935   0.23846   0.00000  Uiso   1.00
C77    C     0.47938   0.01399   0.26154   0.00000  Uiso   1.00
C78    C     0.46198   0.16087   0.33262   0.00000  Uiso   1.00
Cl79   Cl    0.56178   0.00287   0.18535   0.00000  Uiso   1.00
Cl80   Cl    0.43822   0.33047   0.31465   0.00000  Uiso   1.00
Cl81   Cl    0.34150   0.22785   0.29750   0.00000  Uiso   1.00
Cl82   Cl    0.65850   0.10549   0.20250   0.00000  Uiso   1.00
Cu83   Cu    0.44071   0.16108   0.24516   0.00000  Uiso   1.00
Cu84   Cu    0.55929   0.17225   0.25483   0.00000  Uiso   1.00
H85    H     0.34711   0.08771   0.02198   0.00000  Uiso   1.00
H86    H     0.65289   0.24563   0.47802   0.00000  Uiso   1.00
H87    H     0.48964   0.12634   0.10344   0.00000  Uiso   1.00
H88    H     0.51036   0.20700   0.39656   0.00000  Uiso   1.00
H89    H     0.66261   0.07201   0.45032   0.00000  Uiso   1.00
H90    H     0.33739   0.26132   0.04968   0.00000  Uiso   1.00
N91    N     0.64839   0.18068   0.26212   0.00000  Uiso   1.00
N92    N     0.35161   0.15265   0.23788   0.00000  Uiso   1.00
O93    O     0.46148   0.23809   0.24686   0.00000  Uiso   1.00
O94    O     0.53852   0.09524   0.25314   0.00000  Uiso   1.00
O95    O     0.56163   0.24753   0.25502   0.00000  Uiso   1.00
O96    O     0.43837   0.08580   0.24497   0.00000  Uiso   1.00
O97    O     0.42185   0.15930   0.30854   0.00000  Uiso   1.00
O98    O     0.57815   0.17403   0.19145   0.00000  Uiso   1.00
O99    O     0.52199   0.16874   0.31671   0.00000  Uiso   1.00
O100   O     0.47801   0.16460   0.18329   0.00000  Uiso   1.00
Br101  Br    0.66865   0.25671   0.14109   0.00000  Uiso   1.00
Br102  Br    0.99802   0.07663   0.35891   0.00000  Uiso   1.00
Br103  Br    0.71451   0.13417   0.09709   0.00000  Uiso   1.00
Br104  Br    0.95216   0.19917   0.40291   0.00000  Uiso   1.00
C105   C     0.84786   0.26601   0.24882   0.00000  Uiso   1.00
C106   C     0.87135   0.17246   0.16738   0.00000  Uiso   1.00
C107   C     0.77283   0.14951   0.37895   0.00000  Uiso   1.00
C108   C     0.89383   0.18383   0.12105   0.00000  Uiso   1.00
C109   C     0.70502   0.09909   0.43801   0.00000  Uiso   1.00
C110   C     0.96164   0.23425   0.06199   0.00000  Uiso   1.00
C111   C     0.71975   0.11183   0.39446   0.00000  Uiso   1.00
C112   C     0.94691   0.22151   0.10554   0.00000  Uiso   1.00
C113   C     0.80968   0.17308   0.40754   0.00000  Uiso   1.00
C114   C     0.85698   0.16026   0.09246   0.00000  Uiso   1.00
C115   C     0.80059   0.15506   0.44970   0.00000  Uiso   1.00
C116   C     0.81881   0.06733   0.25118   0.00000  Uiso   1.00
C117   C     0.86608   0.17827   0.05030   0.00000  Uiso   1.00
C118   C     0.74462   0.12046   0.46555   0.00000  Uiso   1.00
C119   C     0.92204   0.21287   0.03444   0.00000  Uiso   1.00
C120   C     0.84316   0.17234   0.47731   0.00000  Uiso   1.00
C121   C     0.82350   0.16099   0.02269   0.00000  Uiso   1.00
C122   C     0.76181   0.13357   0.03826   0.00000  Uiso   1.00
C123   C     0.90485   0.19976   0.46174   0.00000  Uiso   1.00
C124   C     0.72603   0.11037   0.00941   0.00000  Uiso   1.00
C125   C     0.94064   0.22297   0.49059   0.00000  Uiso   1.00
C126   C     0.85395   0.31935   0.23846   0.00000  Uiso   1.00
C127   C     0.81272   0.01399   0.26154   0.00000  Uiso   1.00
C128   C     0.79531   0.16087   0.33262   0.00000  Uiso   1.00
Cl129  Cl    0.89511   0.00287   0.18535   0.00000  Uiso   1.00
Cl130  Cl    0.77156   0.33047   0.31465   0.00000  Uiso   1.00
Cl131  Cl    0.67484   0.22785   0.29750   0.00000  Uiso   1.00
Cl132  Cl    0.99183   0.10549   0.20250   0.00000  Uiso   1.00
Cu133  Cu    0.77404   0.16108   0.24516   0.00000  Uiso   1.00
Cu134  Cu    0.89263   0.17225   0.25483   0.00000  Uiso   1.00
H135   H     0.68044   0.08771   0.02198   0.00000  Uiso   1.00
H136   H     0.98623   0.24563   0.47802   0.00000  Uiso   1.00
H137   H     0.82298   0.12634   0.10344   0.00000  Uiso   1.00
H138   H     0.84369   0.20700   0.39656   0.00000  Uiso   1.00
H139   H     0.99595   0.07201   0.45032   0.00000  Uiso   1.00
H140   H     0.67072   0.26132   0.04968   0.00000  Uiso   1.00
N141   N     0.98173   0.18068   0.26212   0.00000  Uiso   1.00
N142   N     0.68494   0.15265   0.23788   0.00000  Uiso   1.00
O143   O     0.79482   0.23809   0.24686   0.00000  Uiso   1.00
O144   O     0.87185   0.09524   0.25314   0.00000  Uiso   1.00
O145   O     0.89496   0.24753   0.25502   0.00000  Uiso   1.00
O146   O     0.77171   0.08580   0.24497   0.00000  Uiso   1.00
O147   O     0.75518   0.15930   0.30854   0.00000  Uiso   1.00
O148   O     0.91149   0.17403   0.19145   0.00000  Uiso   1.00
O149   O     0.85532   0.16874   0.31671   0.00000  Uiso   1.00
O150   O     0.81134   0.16460   0.18329   0.00000  Uiso   1.00
Br151  Br    0.00198   0.59004   0.14109   0.00000  Uiso   1.00
Br152  Br    0.33135   0.40996   0.35891   0.00000  Uiso   1.00
Br153  Br    0.04784   0.46750   0.09709   0.00000  Uiso   1.00
Br154  Br    0.28549   0.53250   0.40291   0.00000  Uiso   1.00
C155   C     0.18119   0.59934   0.24882   0.00000  Uiso   1.00
C156   C     0.20469   0.50579   0.16738   0.00000  Uiso   1.00
C157   C     0.10617   0.48284   0.37895   0.00000  Uiso   1.00
C158   C     0.22717   0.51716   0.12105   0.00000  Uiso   1.00
C159   C     0.03836   0.43242   0.43801   0.00000  Uiso   1.00
C160   C     0.29498   0.56758   0.06199   0.00000  Uiso   1.00
C161   C     0.05309   0.44516   0.39446   0.00000  Uiso   1.00
C162   C     0.28025   0.55484   0.10554   0.00000  Uiso   1.00
C163   C     0.14302   0.50641   0.40754   0.00000  Uiso   1.00
C164   C     0.19032   0.49359   0.09246   0.00000  Uiso   1.00
C165   C     0.13392   0.48839   0.44970   0.00000  Uiso   1.00
C166   C     0.15214   0.40066   0.25118   0.00000  Uiso   1.00
C167   C     0.19941   0.51161   0.05030   0.00000  Uiso   1.00
C168   C     0.07796   0.45380   0.46555   0.00000  Uiso   1.00
C169   C     0.25538   0.54620   0.03444   0.00000  Uiso   1.00
C170   C     0.17650   0.50568   0.47731   0.00000  Uiso   1.00
C171   C     0.15684   0.49432   0.02269   0.00000  Uiso   1.00
C172   C     0.09515   0.46691   0.03826   0.00000  Uiso   1.00
C173   C     0.23819   0.53309   0.46174   0.00000  Uiso   1.00
C174   C     0.05936   0.44370   0.00941   0.00000  Uiso   1.00
C175   C     0.27397   0.55630   0.49059   0.00000  Uiso   1.00
C176   C     0.18728   0.65268   0.23846   0.00000  Uiso   1.00
C177   C     0.14605   0.34732   0.26154   0.00000  Uiso   1.00
C178   C     0.12865   0.49421   0.33262   0.00000  Uiso   1.00
Cl179  Cl    0.22844   0.33620   0.18535   0.00000  Uiso   1.00
Cl180  Cl    0.10489   0.66380   0.31465   0.00000  Uiso   1.00
Cl181  Cl    0.00817   0.56118   0.29750   0.00000  Uiso   1.00
Cl182  Cl    0.32516   0.43882   0.20250   0.00000  Uiso   1.00
Cu183  Cu    0.10737   0.49441   0.24516   0.00000  Uiso   1.00
Cu184  Cu    0.22596   0.50559   0.25483   0.00000  Uiso   1.00
H185   H     0.01377   0.42104   0.02198   0.00000  Uiso   1.00
H186   H     0.31956   0.57896   0.47802   0.00000  Uiso   1.00
H187   H     0.15631   0.45967   0.10344   0.00000  Uiso   1.00
H188   H     0.17702   0.54033   0.39656   0.00000  Uiso   1.00
H189   H     0.32928   0.40534   0.45032   0.00000  Uiso   1.00
H190   H     0.00405   0.59466   0.04968   0.00000  Uiso   1.00
N191   N     0.31506   0.51401   0.26212   0.00000  Uiso   1.00
N192   N     0.01827   0.48599   0.23788   0.00000  Uiso   1.00
O193   O     0.12815   0.57142   0.24686   0.00000  Uiso   1.00
O194   O     0.20518   0.42858   0.25314   0.00000  Uiso   1.00
O195   O     0.22829   0.58086   0.25502   0.00000  Uiso   1.00
O196   O     0.10504   0.41914   0.24497   0.00000  Uiso   1.00
O197   O     0.08851   0.49263   0.30854   0.00000  Uiso   1.00
O198   O     0.24482   0.50737   0.19145   0.00000  Uiso   1.00
O199   O     0.18866   0.50207   0.31671   0.00000  Uiso   1.00
O200   O     0.14468   0.49793   0.18329   0.00000  Uiso   1.00
Br201  Br    0.33532   0.59004   0.14109   0.00000  Uiso   1.00
Br202  Br    0.66468   0.40996   0.35891   0.00000  Uiso   1.00
Br203  Br    0.38117   0.46750   0.09709   0.00000  Uiso   1.00
Br204  Br    0.61883   0.53250   0.40291   0.00000  Uiso   1.00
C205   C     0.51452   0.59934   0.24882   0.00000  Uiso   1.00
C206   C     0.53802   0.50579   0.16738   0.00000  Uiso   1.00
C207   C     0.43950   0.48284   0.37895   0.00000  Uiso   1.00
C208   C     0.56050   0.51716   0.12105   0.00000  Uiso   1.00
C209   C     0.37169   0.43242   0.43801   0.00000  Uiso   1.00
C210   C     0.62831   0.56758   0.06199   0.00000  Uiso   1.00
C211   C     0.38642   0.44516   0.39446   0.00000  Uiso   1.00
C212   C     0.61358   0.55484   0.10554   0.00000  Uiso   1.00
C213   C     0.47635   0.50641   0.40754   0.00000  Uiso   1.00
C214   C     0.52365   0.49359   0.09246   0.00000  Uiso   1.00
C215   C     0.46726   0.48839   0.44970   0.00000  Uiso   1.00
C216   C     0.48548   0.40066   0.25118   0.00000  Uiso   1.00
C217   C     0.53274   0.51161   0.05030   0.00000  Uiso   1.00
C218   C     0.41129   0.45380   0.46555   0.00000  Uiso   1.00
C219   C     0.58871   0.54620   0.03444   0.00000  Uiso   1.00
C220   C     0.50983   0.50568   0.47731   0.00000  Uiso   1.00
C221   C     0.49017   0.49432   0.02269   0.00000  Uiso   1.00
C222   C     0.42848   0.46691   0.03826   0.00000  Uiso   1.00
C223   C     0.57152   0.53309   0.46174   0.00000  Uiso   1.00
C224   C     0.39269   0.44370   0.00941   0.00000  Uiso   1.00
C225   C     0.60731   0.55630   0.49059   0.00000  Uiso   1.00
C226   C     0.52062   0.65268   0.23846   0.00000  Uiso   1.00
C227   C     0.47938   0.34732   0.26154   0.00000  Uiso   1.00
C228   C     0.46198   0.49421   0.33262   0.00000  Uiso   1.00
Cl229  Cl    0.56178   0.33620   0.18535   0.00000  Uiso   1.00
Cl230  Cl    0.43822   0.66380   0.31465   0.00000  Uiso   1.00
Cl231  Cl    0.34150   0.56118   0.29750   0.00000  Uiso   1.00
Cl232  Cl    0.65850   0.43882   0.20250   0.00000  Uiso   1.00
Cu233  Cu    0.44071   0.49441   0.24516   0.00000  Uiso   1.00
Cu234  Cu    0.55929   0.50559   0.25483   0.00000  Uiso   1.00
H235   H     0.34711   0.42104   0.02198   0.00000  Uiso   1.00
H236   H     0.65289   0.57896   0.47802   0.00000  Uiso   1.00
H237   H     0.48964   0.45967   0.10344   0.00000  Uiso   1.00
H238   H     0.51036   0.54033   0.39656   0.00000  Uiso   1.00
H239   H     0.66261   0.40534   0.45032   0.00000  Uiso   1.00
H240   H     0.33739   0.59466   0.04968   0.00000  Uiso   1.00
N241   N     0.64839   0.51401   0.26212   0.00000  Uiso   1.00
N242   N     0.35161   0.48599   0.23788   0.00000  Uiso   1.00
O243   O     0.46148   0.57142   0.24686   0.00000  Uiso   1.00
O244   O     0.53852   0.42858   0.25314   0.00000  Uiso   1.00
O245   O     0.56163   0.58086   0.25502   0.00000  Uiso   1.00
O246   O     0.43837   0.41914   0.24497   0.00000  Uiso   1.00
O247   O     0.42185   0.49263   0.30854   0.00000  Uiso   1.00
O248   O     0.57815   0.50737   0.19145   0.00000  Uiso   1.00
O249   O     0.52199   0.50207   0.31671   0.00000  Uiso   1.00
O250   O     0.47801   0.49793   0.18329   0.00000  Uiso   1.00
Br251  Br    0.66865   0.59004   0.14109   0.00000  Uiso   1.00
Br252  Br    0.99802   0.40996   0.35891   0.00000  Uiso   1.00
Br253  Br    0.71451   0.46750   0.09709   0.00000  Uiso   1.00
Br254  Br    0.95216   0.53250   0.40291   0.00000  Uiso   1.00
C255   C     0.84786   0.59934   0.24882   0.00000  Uiso   1.00
C256   C     0.87135   0.50579   0.16738   0.00000  Uiso   1.00
C257   C     0.77283   0.48284   0.37895   0.00000  Uiso   1.00
C258   C     0.89383   0.51716   0.12105   0.00000  Uiso   1.00
C259   C     0.70502   0.43242   0.43801   0.00000  Uiso   1.00
C260   C     0.96164   0.56758   0.06199   0.00000  Uiso   1.00
C261   C     0.71975   0.44516   0.39446   0.00000  Uiso   1.00
C262   C     0.94691   0.55484   0.10554   0.00000  Uiso   1.00
C263   C     0.80968   0.50641   0.40754   0.00000  Uiso   1.00
C264   C     0.85698   0.49359   0.09246   0.00000  Uiso   1.00
C265   C     0.80059   0.48839   0.44970   0.00000  Uiso   1.00
C266   C     0.81881   0.40066   0.25118   0.00000  Uiso   1.00
C267   C     0.86608   0.51161   0.05030   0.00000  Uiso   1.00
C268   C     0.74462   0.45380   0.46555   0.00000  Uiso   1.00
C269   C     0.92204   0.54620   0.03444   0.00000  Uiso   1.00
C270   C     0.84316   0.50568   0.47731   0.00000  Uiso   1.00
C271   C     0.82350   0.49432   0.02269   0.00000  Uiso   1.00
C272   C     0.76181   0.46691   0.03826   0.00000  Uiso   1.00
C273   C     0.90485   0.53309   0.46174   0.00000  Uiso   1.00
C274   C     0.72603   0.44370   0.00941   0.00000  Uiso   1.00
C275   C     0.94064   0.55630   0.49059   0.00000  Uiso   1.00
C276   C     0.85395   0.65268   0.23846   0.00000  Uiso   1.00
C277   C     0.81272   0.34732   0.26154   0.00000  Uiso   1.00
C278   C     0.79531   0.49421   0.33262   0.00000  Uiso   1.00
Cl279  Cl    0.89511   0.33620   0.18535   0.00000  Uiso   1.00
Cl280  Cl    0.77156   0.66380   0.31465   0.00000  Uiso   1.00
Cl281  Cl    0.67484   0.56118   0.29750   0.00000  Uiso   1.00
Cl282  Cl    0.99183   0.43882   0.20250   0.00000  Uiso   1.00
Cu283  Cu    0.77404   0.49441   0.24516   0.00000  Uiso   1.00
Cu284  Cu    0.89263   0.50559   0.25483   0.00000  Uiso   1.00
H285   H     0.68044   0.42104   0.02198   0.00000  Uiso   1.00
H286   H     0.98623   0.57896   0.47802   0.00000  Uiso   1.00
H287   H     0.82298   0.45967   0.10344   0.00000  Uiso   1.00
H288   H     0.84369   0.54033   0.39656   0.00000  Uiso   1.00
H289   H     0.99595   0.40534   0.45032   0.00000  Uiso   1.00
H290   H     0.67072   0.59466   0.04968   0.00000  Uiso   1.00
N291   N     0.98173   0.51401   0.26212   0.00000  Uiso   1.00
N292   N     0.68494   0.48599   0.23788   0.00000  Uiso   1.00
O293   O     0.79482   0.57142   0.24686   0.00000  Uiso   1.00
O294   O     0.87185   0.42858   0.25314   0.00000  Uiso   1.00
O295   O     0.89496   0.58086   0.25502   0.00000  Uiso   1.00
O296   O     0.77171   0.41914   0.24497   0.00000  Uiso   1.00
O297   O     0.75518   0.49263   0.30854   0.00000  Uiso   1.00
O298   O     0.91149   0.50737   0.19145   0.00000  Uiso   1.00
O299   O     0.85532   0.50207   0.31671   0.00000  Uiso   1.00
O300   O     0.81134   0.49793   0.18329   0.00000  Uiso   1.00
Br301  Br    0.00198   0.92337   0.14109   0.00000  Uiso   1.00
Br302  Br    0.33135   0.74330   0.35891   0.00000  Uiso   1.00
Br303  Br    0.04784   0.80083   0.09709   0.00000  Uiso   1.00
Br304  Br    0.28549   0.86583   0.40291   0.00000  Uiso   1.00
C305   C     0.18119   0.93267   0.24882   0.00000  Uiso   1.00
C306   C     0.20469   0.83913   0.16738   0.00000  Uiso   1.00
C307   C     0.10617   0.81617   0.37895   0.00000  Uiso   1.00
C308   C     0.22717   0.85049   0.12105   0.00000  Uiso   1.00
C309   C     0.03836   0.76575   0.43801   0.00000  Uiso   1.00
C310   C     0.29498   0.90091   0.06199   0.00000  Uiso   1.00
C311   C     0.05309   0.77849   0.39446   0.00000  Uiso   1.00
C312   C     0.28025   0.88817   0.10554   0.00000  Uiso   1.00
C313   C     0.14302   0.83975   0.40754   0.00000  Uiso   1.00
C314   C     0.19032   0.82692   0.09246   0.00000  Uiso   1.00
C315   C     0.13392   0.82173   0.44970   0.00000  Uiso   1.00
C316   C     0.15214   0.73399   0.25118   0.00000  Uiso   1.00
C317   C     0.19941   0.84494   0.05030   0.00000  Uiso   1.00
C318   C     0.07796   0.78713   0.46555   0.00000  Uiso   1.00
C319   C     0.25538   0.87954   0.03444   0.00000  Uiso   1.00
C320   C     0.17650   0.83901   0.47731   0.00000  Uiso   1.00
C321   C     0.15684   0.82766   0.02269   0.00000  Uiso   1.00
C322   C     0.09515   0.80024   0.03826   0.00000  Uiso   1.00
C323   C     0.23819   0.86643   0.46174   0.00000  Uiso   1.00
C324   C     0.05936   0.77703   0.00941   0.00000  Uiso   1.00
C325   C     0.27397   0.88963   0.49059   0.00000  Uiso   1.00
C326   C     0.18728   0.98601   0.23846   0.00000  Uiso   1.00
C327   C     0.14605   0.68065   0.26154   0.00000  Uiso   1.00
C328   C     0.12865   0.82754   0.33262   0.00000  Uiso   1.00
Cl329  Cl    0.22844   0.66953   0.18535   0.00000  Uiso   1.00
Cl330  Cl    0.10489   0.99713   0.31465   0.00000  Uiso   1.00
Cl331  Cl    0.00817   0.89451   0.29750   0.00000  Uiso   1.00
Cl332  Cl    0.32516   0.77215   0.20250   0.00000  Uiso   1.00
Cu333  Cu    0.10737   0.82775   0.24516   0.00000  Uiso   1.00
Cu334  Cu    0.22596   0.83892   0.25483   0.00000  Uiso   1.00
H335   H     0.01377   0.75438   0.02198   0.00000  Uiso   1.00
H336   H     0.31956   0.91229   0.47802   0.00000  Uiso   1.00
H337   H     0.15631   0.79301   0.10344   0.00000  Uiso   1.00
H338   H     0.17702   0.87366   0.39656   0.00000  Uiso   1.00
H339   H     0.32928   0.73868   0.45032   0.00000  Uiso   1.00
H340   H     0.00405   0.92799   0.04968   0.00000  Uiso   1.00
N341   N     0.31506   0.84735   0.26212   0.00000  Uiso   1.00
N342   N     0.01827   0.81932   0.23788   0.00000  Uiso   1.00
O343   O     0.12815   0.90476   0.24686   0.00000  Uiso   1.00
O344   O     0.20518   0.76191   0.25314   0.00000  Uiso   1.00
O345   O     0.22829   0.91420   0.25502   0.00000  Uiso   1.00
O346   O     0.10504   0.75247   0.24497   0.00000  Uiso   1.00
O347   O     0.08851   0.82597   0.30854   0.00000  Uiso   1.00
O348   O     0.24482   0.84070   0.19145   0.00000  Uiso   1.00
O349   O     0.18866   0.83540   0.31671   0.00000  Uiso   1.00
O350   O     0.14468   0.83126   0.18329   0.00000  Uiso   1.00
Br351  Br    0.33532   0.92337   0.14109   0.00000  Uiso   1.00
Br352  Br    0.66468   0.74330   0.35891   0.00000  Uiso   1.00
Br353  Br    0.38117   0.80083   0.09709   0.00000  Uiso   1.00
Br354  Br    0.61883   0.86583   0.40291   0.00000  Uiso   1.00
C355   C     0.51452   0.93267   0.24882   0.00000  Uiso   1.00
C356   C     0.53802   0.83913   0.16738   0.00000  Uiso   1.00
C357   C     0.43950   0.81617   0.37895   0.00000  Uiso   1.00
C358   C     0.56050   0.85049   0.12105   0.00000  Uiso   1.00
C359   C     0.37169   0.76575   0.43801   0.00000  Uiso   1.00
C360   C     0.62831   0.90091   0.06199   0.00000  Uiso   1.00
C361   C     0.38642   0.77849   0.39446   0.00000  Uiso   1.00
C362   C     0.61358   0.88817   0.10554   0.00000  Uiso   1.00
C363   C     0.47635   0.83975   0.40754   0.00000  Uiso   1.00
C364   C     0.52365   0.82692   0.09246   0.00000  Uiso   1.00
C365   C     0.46726   0.82173   0.44970   0.00000  Uiso   1.00
C366   C     0.48548   0.73399   0.25118   0.00000  Uiso   1.00
C367   C     0.53274   0.84494   0.05030   0.00000  Uiso   1.00
C368   C     0.41129   0.78713   0.46555   0.00000  Uiso   1.00
C369   C     0.58871   0.87954   0.03444   0.00000  Uiso   1.00
C370   C     0.50983   0.83901   0.47731   0.00000  Uiso   1.00
C371   C     0.49017   0.82766   0.02269   0.00000  Uiso   1.00
C372   C     0.42848   0.80024   0.03826   0.00000  Uiso   1.00
C373   C     0.57152   0.86643   0.46174   0.00000  Uiso   1.00
C374   C     0.39269   0.77703   0.00941   0.00000  Uiso   1.00
C375   C     0.60731   0.88963   0.49059   0.00000  Uiso   1.00
C376   C     0.52062   0.98601   0.23846   0.00000  Uiso   1.00
C377   C     0.47938   0.68065   0.26154   0.00000  Uiso   1.00
C378   C     0.46198   0.82754   0.33262   0.00000  Uiso   1.00
Cl379  Cl    0.56178   0.66953   0.18535   0.00000  Uiso   1.00
Cl380  Cl    0.43822   0.99713   0.31465   0.00000  Uiso   1.00
Cl381  Cl    0.34150   0.89451   0.29750   0.00000  Uiso   1.00
Cl382  Cl    0.65850   0.77215   0.20250   0.00000  Uiso   1.00
Cu383  Cu    0.44071   0.82775   0.24516   0.00000  Uiso   1.00
Cu384  Cu    0.55929   0.83892   0.25483   0.00000  Uiso   1.00
H385   H     0.34711   0.75438   0.02198   0.00000  Uiso   1.00
H386   H     0.65289   0.91229   0.47802   0.00000  Uiso   1.00
H387   H     0.48964   0.79301   0.10344   0.00000  Uiso   1.00
H388   H     0.51036   0.87366   0.39656   0.00000  Uiso   1.00
H389   H     0.66261   0.73868   0.45032   0.00000  Uiso   1.00
H390   H     0.33739   0.92799   0.04968   0.00000  Uiso   1.00
N391   N     0.64839   0.84735   0.26212   0.00000  Uiso   1.00
N392   N     0.35161   0.81932   0.23788   0.00000  Uiso   1.00
O393   O     0.46148   0.90476   0.24686   0.00000  Uiso   1.00
O394   O     0.53852   0.76191   0.25314   0.00000  Uiso   1.00
O395   O     0.56163   0.91420   0.25502   0.00000  Uiso   1.00
O396   O     0.43837   0.75247   0.24497   0.00000  Uiso   1.00
O397   O     0.42185   0.82597   0.30854   0.00000  Uiso   1.00
O398   O     0.57815   0.84070   0.19145   0.00000  Uiso   1.00
O399   O     0.52199   0.83540   0.31671   0.00000  Uiso   1.00
O400   O     0.47801   0.83126   0.18329   0.00000  Uiso   1.00
Br401  Br    0.66865   0.92337   0.14109   0.00000  Uiso   1.00
Br402  Br    0.99802   0.74330   0.35891   0.00000  Uiso   1.00
Br403  Br    0.71451   0.80083   0.09709   0.00000  Uiso   1.00
Br404  Br    0.95216   0.86583   0.40291   0.00000  Uiso   1.00
C405   C     0.84786   0.93267   0.24882   0.00000  Uiso   1.00
C406   C     0.87135   0.83913   0.16738   0.00000  Uiso   1.00
C407   C     0.77283   0.81617   0.37895   0.00000  Uiso   1.00
C408   C     0.89383   0.85049   0.12105   0.00000  Uiso   1.00
C409   C     0.70502   0.76575   0.43801   0.00000  Uiso   1.00
C410   C     0.96164   0.90091   0.06199   0.00000  Uiso   1.00
C411   C     0.71975   0.77849   0.39446   0.00000  Uiso   1.00
C412   C     0.94691   0.88817   0.10554   0.00000  Uiso   1.00
C413   C     0.80968   0.83975   0.40754   0.00000  Uiso   1.00
C414   C     0.85698   0.82692   0.09246   0.00000  Uiso   1.00
C415   C     0.80059   0.82173   0.44970   0.00000  Uiso   1.00
C416   C     0.81881   0.73399   0.25118   0.00000  Uiso   1.00
C417   C     0.86608   0.84494   0.05030   0.00000  Uiso   1.00
C418   C     0.74462   0.78713   0.46555   0.00000  Uiso   1.00
C419   C     0.92204   0.87954   0.03444   0.00000  Uiso   1.00
C420   C     0.84316   0.83901   0.47731   0.00000  Uiso   1.00
C421   C     0.82350   0.82766   0.02269   0.00000  Uiso   1.00
C422   C     0.76181   0.80024   0.03826   0.00000  Uiso   1.00
C423   C     0.90485   0.86643   0.46174   0.00000  Uiso   1.00
C424   C     0.72603   0.77703   0.00941   0.00000  Uiso   1.00
C425   C     0.94064   0.88963   0.49059   0.00000  Uiso   1.00
C426   C     0.85395   0.98601   0.23846   0.00000  Uiso   1.00
C427   C     0.81272   0.68065   0.26154   0.00000  Uiso   1.00
C428   C     0.79531   0.82754   0.33262   0.00000  Uiso   1.00
Cl429  Cl    0.89511   0.66953   0.18535   0.00000  Uiso   1.00
Cl430  Cl    0.77156   0.99713   0.31465   0.00000  Uiso   1.00
Cl431  Cl    0.67484   0.89451   0.29750   0.00000  Uiso   1.00
Cl432  Cl    0.99183   0.77215   0.20250   0.00000  Uiso   1.00
Cu433  Cu    0.77404   0.82775   0.24516   0.00000  Uiso   1.00
Cu434  Cu    0.89263   0.83892   0.25483   0.00000  Uiso   1.00
H435   H     0.68044   0.75438   0.02198   0.00000  Uiso   1.00
H436   H     0.98623   0.91229   0.47802   0.00000  Uiso   1.00
H437   H     0.82298   0.79301   0.10344   0.00000  Uiso   1.00
H438   H     0.84369   0.87366   0.39656   0.00000  Uiso   1.00
H439   H     0.99595   0.73868   0.45032   0.00000  Uiso   1.00
H440   H     0.67072   0.92799   0.04968   0.00000  Uiso   1.00
N441   N     0.98173   0.84735   0.26212   0.00000  Uiso   1.00
N442   N     0.68494   0.81932   0.23788   0.00000  Uiso   1.00
O443   O     0.79482   0.90476   0.24686   0.00000  Uiso   1.00
O444   O     0.87185   0.76191   0.25314   0.00000  Uiso   1.00
O445   O     0.89496   0.91420   0.25502   0.00000  Uiso   1.00
O446   O     0.77171   0.75247   0.24497   0.00000  Uiso   1.00
O447   O     0.75518   0.82597   0.30854   0.00000  Uiso   1.00
O448   O     0.91149   0.84070   0.19145   0.00000  Uiso   1.00
O449   O     0.85532   0.83540   0.31671   0.00000  Uiso   1.00
O450   O     0.81134   0.83126   0.18329   0.00000  Uiso   1.00
Br451  Br    0.00198   0.25671   0.64109   0.00000  Uiso   1.00
Br452  Br    0.33135   0.07663   0.85891   0.00000  Uiso   1.00
Br453  Br    0.04784   0.13417   0.59709   0.00000  Uiso   1.00
Br454  Br    0.28549   0.19917   0.90291   0.00000  Uiso   1.00
C455   C     0.18119   0.26601   0.74882   0.00000  Uiso   1.00
C456   C     0.20469   0.17246   0.66738   0.00000  Uiso   1.00
C457   C     0.10617   0.14951   0.87895   0.00000  Uiso   1.00
C458   C     0.22717   0.18383   0.62105   0.00000  Uiso   1.00
C459   C     0.03836   0.09909   0.93801   0.00000  Uiso   1.00
C460   C     0.29498   0.23425   0.56199   0.00000  Uiso   1.00
C461   C     0.05309   0.11183   0.89446   0.00000  Uiso   1.00
C462   C     0.28025   0.22151   0.60554   0.00000  Uiso   1.00
C463   C     0.14302   0.17308   0.90754   0.00000  Uiso   1.00
C464   C     0.19032   0.16026   0.59246   0.00000  Uiso   1.00
C465   C     0.13392   0.15506   0.94970   0.00000  Uiso   1.00
C466   C     0.15214   0.06733   0.75118   0.00000  Uiso   1.00
C467   C     0.19941   0.17827   0.55030   0.00000  Uiso   1.00
C468   C     0.07796   0.12046   0.96555   0.00000  Uiso   1.00
C469   C     0.25538   0.21287   0.53444   0.00000  Uiso   1.00
C470   C     0.17650   0.17234   0.97731   0.00000  Uiso   1.00
C471   C     0.15684   0.16099   0.52269   0.00000  Uiso   1.00
C472   C     0.09515   0.13357   0.53826   0.00000  Uiso   1.00
C473   C     0.23819   0.19976   0.96174   0.00000  Uiso   1.00
C474   C     0.05936   0.11037   0.50941   0.00000  Uiso   1.00
C475   C     0.27397   0.22297   0.99059   0.00000  Uiso   1.00
C476   C     0.18728   0.31935   0.73846   0.00000  Uiso   1.00
C477   C     0.14605   0.01399   0.76154   0.00000  Uiso   1.00
C478   C     0.12865   0.16087   0.83262   0.00000  Uiso   1.00
Cl479  Cl    0.22844   0.00287   0.68535   0.00000  Uiso   1.00
Cl480  Cl    0.10489   0.33047   0.81465   0.00000  Uiso   1.00
Cl481  Cl    0.00817   0.22785   0.79750   0.00000  Uiso   1.00
Cl482  Cl    0.32516   0.10549   0.70250   0.00000  Uiso   1.00
Cu483  Cu    0.10737   0.16108   0.74516   0.00000  Uiso   1.00
Cu484  Cu    0.22596   0.17225   0.75483   0.00000  Uiso   1.00
H485   H     0.01377   0.08771   0.52198   0.00000  Uiso   1.00
H486   H     0.31956   0.24563   0.97802   0.00000  Uiso   1.00
H487   H     0.15631   0.12634   0.60344   0.00000  Uiso   1.00
H488   H     0.17702   0.20700   0.89656   0.00000  Uiso   1.00
H489   H     0.32928   0.07201   0.95032   0.00000  Uiso   1.00
H490   H     0.00405   0.26132   0.54968   0.00000  Uiso   1.00
N491   N     0.31506   0.18068   0.76212   0.00000  Uiso   1.00
N492   N     0.01827   0.15265   0.73788   0.00000  Uiso   1.00
O493   O     0.12815   0.23809   0.74686   0.00000  Uiso   1.00
O494   O     0.20518   0.09524   0.75314   0.00000  Uiso   1.00
O495   O     0.22829   0.24753   0.75502   0.00000  Uiso   1.00
O496   O     0.10504   0.08580   0.74497   0.00000  Uiso   1.00
O497   O     0.08851   0.15930   0.80854   0.00000  Uiso   1.00
O498   O     0.24482   0.17403   0.69145   0.00000  Uiso   1.00
O499   O     0.18866   0.16874   0.81671   0.00000  Uiso   1.00
O500   O     0.14468   0.16460   0.68329   0.00000  Uiso   1.00
Br501  Br    0.33532   0.25671   0.64109   0.00000  Uiso   1.00
Br502  Br    0.66468   0.07663   0.85891   0.00000  Uiso   1.00
Br503  Br    0.38117   0.13417   0.59709   0.00000  Uiso   1.00
Br504  Br    0.61883   0.19917   0.90291   0.00000  Uiso   1.00
C505   C     0.51452   0.26601   0.74882   0.00000  Uiso   1.00
C506   C     0.53802   0.17246   0.66738   0.00000  Uiso   1.00
C507   C     0.43950   0.14951   0.87895   0.00000  Uiso   1.00
C508   C     0.56050   0.18383   0.62105   0.00000  Uiso   1.00
C509   C     0.37169   0.09909   0.93801   0.00000  Uiso   1.00
C510   C     0.62831   0.23425   0.56199   0.00000  Uiso   1.00
C511   C     0.38642   0.11183   0.89446   0.00000  Uiso   1.00
C512   C     0.61358   0.22151   0.60554   0.00000  Uiso   1.00
C513   C     0.47635   0.17308   0.90754   0.00000  Uiso   1.00
C514   C     0.52365   0.16026   0.59246   0.00000  Uiso   1.00
C515   C     0.46726   0.15506   0.94970   0.00000  Uiso   1.00
C516   C     0.48548   0.06733   0.75118   0.00000  Uiso   1.00
C517   C     0.53274   0.17827   0.55030   0.00000  Uiso   1.00
C518   C     0.41129   0.12046   0.96555   0.00000  Uiso   1.00
C519   C     0.58871   0.21287   0.53444   0.00000  Uiso   1.00
C520   C     0.50983   0.17234   0.97731   0.00000  Uiso   1.00
C521   C     0.49017   0.16099   0.52269   0.00000  Uiso   1.00
C522   C     0.42848   0.13357   0.53826   0.00000  Uiso   1.00
C523   C     0.57152   0.19976   0.96174   0.00000  Uiso   1.00
C524   C     0.39269   0.11037   0.50941   0.00000  Uiso   1.00
C525   C     0.60731   0.22297   0.99059   0.00000  Uiso   1.00
C526   C     0.52062   0.31935   0.73846   0.00000  Uiso   1.00
C527   C     0.47938   0.01399   0.76154   0.00000  Uiso   1.00
C528   C     0.46198   0.16087   0.83262   0.00000  Uiso   1.00
Cl529  Cl    0.56178   0.00287   0.68535   0.00000  Uiso   1.00
Cl530  Cl    0.43822   0.33047   0.81465   0.00000  Uiso   1.00
Cl531  Cl    0.34150   0.22785   0.79750   0.00000  Uiso   1.00
Cl532  Cl    0.65850   0.10549   0.70250   0.00000  Uiso   1.00
Cu533  Cu    0.44071   0.16108   0.74516   0.00000  Uiso   1.00
Cu534  Cu    0.55929   0.17225   0.75483   0.00000  Uiso   1.00
H535   H     0.34711   0.08771   0.52198   0.00000  Uiso   1.00
H536   H     0.65289   0.24563   0.97802   0.00000  Uiso   1.00
H537   H     0.48964   0.12634   0.60344   0.00000  Uiso   1.00
H538   H     0.51036   0.20700   0.89656   0.00000  Uiso   1.00
H539   H     0.66261   0.07201   0.95032   0.00000  Uiso   1.00
H540   H     0.33739   0.26132   0.54968   0.00000  Uiso   1.00
N541   N     0.64839   0.18068   0.76212   0.00000  Uiso   1.00
N542   N     0.35161   0.15265   0.73788   0.00000  Uiso   1.00
O543   O     0.46148   0.23809   0.74686   0.00000  Uiso   1.00
O544   O     0.53852   0.09524   0.75314   0.00000  Uiso   1.00
O545   O     0.56163   0.24753   0.75502   0.00000  Uiso   1.00
O546   O     0.43837   0.08580   0.74497   0.00000  Uiso   1.00
O547   O     0.42185   0.15930   0.80854   0.00000  Uiso   1.00
O548   O     0.57815   0.17403   0.69145   0.00000  Uiso   1.00
O549   O     0.52199   0.16874   0.81671   0.00000  Uiso   1.00
O550   O     0.47801   0.16460   0.68329   0.00000  Uiso   1.00
Br551  Br    0.66865   0.25671   0.64109   0.00000  Uiso   1.00
Br552  Br    0.99802   0.07663   0.85891   0.00000  Uiso   1.00
Br553  Br    0.71451   0.13417   0.59709   0.00000  Uiso   1.00
Br554  Br    0.95216   0.19917   0.90291   0.00000  Uiso   1.00
C555   C     0.84786   0.26601   0.74882   0.00000  Uiso   1.00
C556   C     0.87135   0.17246   0.66738   0.00000  Uiso   1.00
C557   C     0.77283   0.14951   0.87895   0.00000  Uiso   1.00
C558   C     0.89383   0.18383   0.62105   0.00000  Uiso   1.00
C559   C     0.70502   0.09909   0.93801   0.00000  Uiso   1.00
C560   C     0.96164   0.23425   0.56199   0.00000  Uiso   1.00
C561   C     0.71975   0.11183   0.89446   0.00000  Uiso   1.00
C562   C     0.94691   0.22151   0.60554   0.00000  Uiso   1.00
C563   C     0.80968   0.17308   0.90754   0.00000  Uiso   1.00
C564   C     0.85698   0.16026   0.59246   0.00000  Uiso   1.00
C565   C     0.80059   0.15506   0.94970   0.00000  Uiso   1.00
C566   C     0.81881   0.06733   0.75118   0.00000  Uiso   1.00
C567   C     0.86608   0.17827   0.55030   0.00000  Uiso   1.00
C568   C     0.74462   0.12046   0.96555   0.00000  Uiso   1.00
C569   C     0.92204   0.21287   0.53444   0.00000  Uiso   1.00
C570   C     0.84316   0.17234   0.97731   0.00000  Uiso   1.00
C571   C     0.82350   0.16099   0.52269   0.00000  Uiso   1.00
C572   C     0.76181   0.13357   0.53826   0.00000  Uiso   1.00
C573   C     0.90485   0.19976   0.96174   0.00000  Uiso   1.00
C574   C     0.72603   0.11037   0.50941   0.00000  Uiso   1.00
C575   C     0.94064   0.22297   0.99059   0.00000  Uiso   1.00
C576   C     0.85395   0.31935   0.73846   0.00000  Uiso   1.00
C577   C     0.81272   0.01399   0.76154   0.00000  Uiso   1.00
C578   C     0.79531   0.16087   0.83262   0.00000  Uiso   1.00
Cl579  Cl    0.89511   0.00287   0.68535   0.00000  Uiso   1.00
Cl580  Cl    0.77156   0.33047   0.81465   0.00000  Uiso   1.00
Cl581  Cl    0.67484   0.22785   0.79750   0.00000  Uiso   1.00
Cl582  Cl    0.99183   0.10549   0.70250   0.00000  Uiso   1.00
Cu583  Cu    0.77404   0.16108   0.74516   0.00000  Uiso   1.00
Cu584  Cu    0.89263   0.17225   0.75483   0.00000  Uiso   1.00
H585   H     0.68044   0.08771   0.52198   0.00000  Uiso   1.00
H586   H     0.98623   0.24563   0.97802   0.00000  Uiso   1.00
H587   H     0.82298   0.12634   0.60344   0.00000  Uiso   1.00
H588   H     0.84369   0.20700   0.89656   0.00000  Uiso   1.00
H589   H     0.99595   0.07201   0.95032   0.00000  Uiso   1.00
H590   H     0.67072   0.26132   0.54968   0.00000  Uiso   1.00
N591   N     0.98173   0.18068   0.76212   0.00000  Uiso   1.00
N592   N     0.68494   0.15265   0.73788   0.00000  Uiso   1.00
O593   O     0.79482   0.23809   0.74686   0.00000  Uiso   1.00
O594   O     0.87185   0.09524   0.75314   0.00000  Uiso   1.00
O595   O     0.89496   0.24753   0.75502   0.00000  Uiso   1.00
O596   O     0.77171   0.08580   0.74497   0.00000  Uiso   1.00
O597   O     0.75518   0.15930   0.80854   0.00000  Uiso   1.00
O598   O     0.91149   0.17403   0.69145   0.00000  Uiso   1.00
O599   O     0.85532   0.16874   0.81671   0.00000  Uiso   1.00
O600   O     0.81134   0.16460   0.68329   0.00000  Uiso   1.00
Br601  Br    0.00198   0.59004   0.64109   0.00000  Uiso   1.00
Br602  Br    0.33135   0.40996   0.85891   0.00000  Uiso   1.00
Br603  Br    0.04784   0.46750   0.59709   0.00000  Uiso   1.00
Br604  Br    0.28549   0.53250   0.90291   0.00000  Uiso   1.00
C605   C     0.18119   0.59934   0.74882   0.00000  Uiso   1.00
C606   C     0.20469   0.50579   0.66738   0.00000  Uiso   1.00
C607   C     0.10617   0.48284   0.87895   0.00000  Uiso   1.00
C608   C     0.22717   0.51716   0.62105   0.00000  Uiso   1.00
C609   C     0.03836   0.43242   0.93801   0.00000  Uiso   1.00
C610   C     0.29498   0.56758   0.56199   0.00000  Uiso   1.00
C611   C     0.05309   0.44516   0.89446   0.00000  Uiso   1.00
C612   C     0.28025   0.55484   0.60554   0.00000  Uiso   1.00
C613   C     0.14302   0.50641   0.90754   0.00000  Uiso   1.00
C614   C     0.19032   0.49359   0.59246   0.00000  Uiso   1.00
C615   C     0.13392   0.48839   0.94970   0.00000  Uiso   1.00
C616   C     0.15214   0.40066   0.75118   0.00000  Uiso   1.00
C617   C     0.19941   0.51161   0.55030   0.00000  Uiso   1.00
C618   C     0.07796   0.45380   0.96555   0.00000  Uiso   1.00
C619   C     0.25538   0.54620   0.53444   0.00000  Uiso   1.00
C620   C     0.17650   0.50568   0.97731   0.00000  Uiso   1.00
C621   C     0.15684   0.49432   0.52269   0.00000  Uiso   1.00
C622   C     0.09515   0.46691   0.53826   0.00000  Uiso   1.00
C623   C     0.23819   0.53309   0.96174   0.00000  Uiso   1.00
C624   C     0.05936   0.44370   0.50941   0.00000  Uiso   1.00
C625   C     0.27397   0.55630   0.99059   0.00000  Uiso   1.00
C626   C     0.18728   0.65268   0.73846   0.00000  Uiso   1.00
C627   C     0.14605   0.34732   0.76154   0.00000  Uiso   1.00
C628   C     0.12865   0.49421   0.83262   0.00000  Uiso   1.00
Cl629  Cl    0.22844   0.33620   0.68535   0.00000  Uiso   1.00
Cl630  Cl    0.10489   0.66380   0.81465   0.00000  Uiso   1.00
Cl631  Cl    0.00817   0.56118   0.79750   0.00000  Uiso   1.00
Cl632  Cl    0.32516   0.43882   0.70250   0.00000  Uiso   1.00
Cu633  Cu    0.10737   0.49441   0.74516   0.00000  Uiso   1.00
Cu634  Cu    0.22596   0.50559   0.75483   0.00000  Uiso   1.00
H635   H     0.01377   0.42104   0.52198   0.00000  Uiso   1.00
H636   H     0.31956   0.57896   0.97802   0.00000  Uiso   1.00
H637   H     0.15631   0.45967   0.60344   0.00000  Uiso   1.00
H638   H     0.17702   0.54033   0.89656   0.00000  Uiso   1.00
H639   H     0.32928   0.40534   0.95032   0.00000  Uiso   1.00
H640   H     0.00405   0.59466   0.54968   0.00000  Uiso   1.00
N641   N     0.31506   0.51401   0.76212   0.00000  Uiso   1.00
N642   N     0.01827   0.48599   0.73788   0.00000  Uiso   1.00
O643   O     0.12815   0.57142   0.74686   0.00000  Uiso   1.00
O644   O     0.20518   0.42858   0.75314   0.00000  Uiso   1.00
O645   O     0.22829   0.58086   0.75502   0.00000  Uiso   1.00
O646   O     0.10504   0.41914   0.74497   0.00000  Uiso   1.00
O647   O     0.08851   0.49263   0.80854   0.00000  Uiso   1.00
O648   O     0.24482   0.50737   0.69145   0.00000  Uiso   1.00
O649   O     0.18866   0.50207   0.81671   0.00000  Uiso   1.00
O650   O     0.14468   0.49793   0.68329   0.00000  Uiso   1.00
Br651  Br    0.33532   0.59004   0.64109   0.00000  Uiso   1.00
Br652  Br    0.66468   0.40996   0.85891   0.00000  Uiso   1.00
Br653  Br    0.38117   0.46750   0.59709   0.00000  Uiso   1.00
Br654  Br    0.61883   0.53250   0.90291   0.00000  Uiso   1.00
C655   C     0.51452   0.59934   0.74882   0.00000  Uiso   1.00
C656   C     0.53802   0.50579   0.66738   0.00000  Uiso   1.00
C657   C     0.43950   0.48284   0.87895   0.00000  Uiso   1.00
C658   C     0.56050   0.51716   0.62105   0.00000  Uiso   1.00
C659   C     0.37169   0.43242   0.93801   0.00000  Uiso   1.00
C660   C     0.62831   0.56758   0.56199   0.00000  Uiso   1.00
C661   C     0.38642   0.44516   0.89446   0.00000  Uiso   1.00
C662   C     0.61358   0.55484   0.60554   0.00000  Uiso   1.00
C663   C     0.47635   0.50641   0.90754   0.00000  Uiso   1.00
C664   C     0.52365   0.49359   0.59246   0.00000  Uiso   1.00
C665   C     0.46726   0.48839   0.94970   0.00000  Uiso   1.00
C666   C     0.48548   0.40066   0.75118   0.00000  Uiso   1.00
C667   C     0.53274   0.51161   0.55030   0.00000  Uiso   1.00
C668   C     0.41129   0.45380   0.96555   0.00000  Uiso   1.00
C669   C     0.58871   0.54620   0.53444   0.00000  Uiso   1.00
C670   C     0.50983   0.50568   0.97731   0.00000  Uiso   1.00
C671   C     0.49017   0.49432   0.52269   0.00000  Uiso   1.00
C672   C     0.42848   0.46691   0.53826   0.00000  Uiso   1.00
C673   C     0.57152   0.53309   0.96174   0.00000  Uiso   1.00
C674   C     0.39269   0.44370   0.50941   0.00000  Uiso   1.00
C675   C     0.60731   0.55630   0.99059   0.00000  Uiso   1.00
C676   C     0.52062   0.65268   0.73846   0.00000  Uiso   1.00
C677   C     0.47938   0.34732   0.76154   0.00000  Uiso   1.00
C678   C     0.46198   0.49421   0.83262   0.00000  Uiso   1.00
Cl679  Cl    0.56178   0.33620   0.68535   0.00000  Uiso   1.00
Cl680  Cl    0.43822   0.66380   0.81465   0.00000  Uiso   1.00
Cl681  Cl    0.34150   0.56118   0.79750   0.00000  Uiso   1.00
Cl682  Cl    0.65850   0.43882   0.70250   0.00000  Uiso   1.00
Cu683  Cu    0.44071   0.49441   0.74516   0.00000  Uiso   1.00
Cu684  Cu    0.55929   0.50559   0.75483   0.00000  Uiso   1.00
H685   H     0.34711   0.42104   0.52198   0.00000  Uiso   1.00
H686   H     0.65289   0.57896   0.97802   0.00000  Uiso   1.00
H687   H     0.48964   0.45967   0.60344   0.00000  Uiso   1.00
H688   H     0.51036   0.54033   0.89656   0.00000  Uiso   1.00
H689   H     0.66261   0.40534   0.95032   0.00000  Uiso   1.00
H690   H     0.33739   0.59466   0.54968   0.00000  Uiso   1.00
N691   N     0.64839   0.51401   0.76212   0.00000  Uiso   1.00
N692   N     0.35161   0.48599   0.73788   0.00000  Uiso   1.00
O693   O     0.46148   0.57142   0.74686   0.00000  Uiso   1.00
O694   O     0.53852   0.42858   0.75314   0.00000  Uiso   1.00
O695   O     0.56163   0.58086   0.75502   0.00000  Uiso   1.00
O696   O     0.43837   0.41914   0.74497   0.00000  Uiso   1.00
O697   O     0.42185   0.49263   0.80854   0.00000  Uiso   1.00
O698   O     0.57815   0.50737   0.69145   0.00000  Uiso   1.00
O699   O     0.52199   0.50207   0.81671   0.00000  Uiso   1.00
O700   O     0.47801   0.49793   0.68329   0.00000  Uiso   1.00
Br701  Br    0.66865   0.59004   0.64109   0.00000  Uiso   1.00
Br702  Br    0.99802   0.40996   0.85891   0.00000  Uiso   1.00
Br703  Br    0.71451   0.46750   0.59709   0.00000  Uiso   1.00
Br704  Br    0.95216   0.53250   0.90291   0.00000  Uiso   1.00
C705   C     0.84786   0.59934   0.74882   0.00000  Uiso   1.00
C706   C     0.87135   0.50579   0.66738   0.00000  Uiso   1.00
C707   C     0.77283   0.48284   0.87895   0.00000  Uiso   1.00
C708   C     0.89383   0.51716   0.62105   0.00000  Uiso   1.00
C709   C     0.70502   0.43242   0.93801   0.00000  Uiso   1.00
C710   C     0.96164   0.56758   0.56199   0.00000  Uiso   1.00
C711   C     0.71975   0.44516   0.89446   0.00000  Uiso   1.00
C712   C     0.94691   0.55484   0.60554   0.00000  Uiso   1.00
C713   C     0.80968   0.50641   0.90754   0.00000  Uiso   1.00
C714   C     0.85698   0.49359   0.59246   0.00000  Uiso   1.00
C715   C     0.80059   0.48839   0.94970   0.00000  Uiso   1.00
C716   C     0.81881   0.40066   0.75118   0.00000  Uiso   1.00
C717   C     0.86608   0.51161   0.55030   0.00000  Uiso   1.00
C718   C     0.74462   0.45380   0.96555   0.00000  Uiso   1.00
C719   C     0.92204   0.54620   0.53444   0.00000  Uiso   1.00
C720   C     0.84316   0.50568   0.97731   0.00000  Uiso   1.00
C721   C     0.82350   0.49432   0.52269   0.00000  Uiso   1.00
C722   C     0.76181   0.46691   0.53826   0.00000  Uiso   1.00
C723   C     0.90485   0.53309   0.96174   0.00000  Uiso   1.00
C724   C     0.72603   0.44370   0.50941   0.00000  Uiso   1.00
C725   C     0.94064   0.55630   0.99059   0.00000  Uiso   1.00
C726   C     0.85395   0.65268   0.73846   0.00000  Uiso   1.00
C727   C     0.81272   0.34732   0.76154   0.00000  Uiso   1.00
C728   C     0.79531   0.49421   0.83262   0.00000  Uiso   1.00
Cl729  Cl    0.89511   0.33620   0.68535   0.00000  Uiso   1.00
Cl730  Cl    0.77156   0.66380   0.81465   0.00000  Uiso   1.00
Cl731  Cl    0.67484   0.56118   0.79750   0.00000  Uiso   1.00
Cl732  Cl    0.99183   0.43882   0.70250   0.00000  Uiso   1.00
Cu733  Cu    0.77404   0.49441   0.74516   0.00000  Uiso   1.00
Cu734  Cu    0.89263   0.50559   0.75483   0.00000  Uiso   1.00
H735   H     0.68044   0.42104   0.52198   0.00000  Uiso   1.00
H736   H     0.98623   0.57896   0.97802   0.00000  Uiso   1.00
H737   H     0.82298   0.45967   0.60344   0.00000  Uiso   1.00
H738   H     0.84369   0.54033   0.89656   0.00000  Uiso   1.00
H739   H     0.99595   0.40534   0.95032   0.00000  Uiso   1.00
H740   H     0.67072   0.59466   0.54968   0.00000  Uiso   1.00
N741   N     0.98173   0.51401   0.76212   0.00000  Uiso   1.00
N742   N     0.68494   0.48599   0.73788   0.00000  Uiso   1.00
O743   O     0.79482   0.57142   0.74686   0.00000  Uiso   1.00
O744   O     0.87185   0.42858   0.75314   0.00000  Uiso   1.00
O745   O     0.89496   0.58086   0.75502   0.00000  Uiso   1.00
O746   O     0.77171   0.41914   0.74497   0.00000  Uiso   1.00
O747   O     0.75518   0.49263   0.80854   0.00000  Uiso   1.00
O748   O     0.91149   0.50737   0.69145   0.00000  Uiso   1.00
O749   O     0.85532   0.50207   0.81671   0.00000  Uiso   1.00
O750   O     0.81134   0.49793   0.68329   0.00000  Uiso   1.00
Br751  Br    0.00198   0.92337   0.64109   0.00000  Uiso   1.00
Br752  Br    0.33135   0.74330   0.85891   0.00000  Uiso   1.00
Br753  Br    0.04784   0.80083   0.59709   0.00000  Uiso   1.00
Br754  Br    0.28549   0.86583   0.90291   0.00000  Uiso   1.00
C755   C     0.18119   0.93267   0.74882   0.00000  Uiso   1.00
C756   C     0.20469   0.83913   0.66738   0.00000  Uiso   1.00
C757   C     0.10617   0.81617   0.87895   0.00000  Uiso   1.00
C758   C     0.22717   0.85049   0.62105   0.00000  Uiso   1.00
C759   C     0.03836   0.76575   0.93801   0.00000  Uiso   1.00
C760   C     0.29498   0.90091   0.56199   0.00000  Uiso   1.00
C761   C     0.05309   0.77849   0.89446   0.00000  Uiso   1.00
C762   C     0.28025   0.88817   0.60554   0.00000  Uiso   1.00
C763   C     0.14302   0.83975   0.90754   0.00000  Uiso   1.00
C764   C     0.19032   0.82692   0.59246   0.00000  Uiso   1.00
C765   C     0.13392   0.82173   0.94970   0.00000  Uiso   1.00
C766   C     0.15214   0.73399   0.75118   0.00000  Uiso   1.00
C767   C     0.19941   0.84494   0.55030   0.00000  Uiso   1.00
C768   C     0.07796   0.78713   0.96555   0.00000  Uiso   1.00
C769   C     0.25538   0.87954   0.53444   0.00000  Uiso   1.00
C770   C     0.17650   0.83901   0.97731   0.00000  Uiso   1.00
C771   C     0.15684   0.82766   0.52269   0.00000  Uiso   1.00
C772   C     0.09515   0.80024   0.53826   0.00000  Uiso   1.00
C773   C     0.23819   0.86643   0.96174   0.00000  Uiso   1.00
C774   C     0.05936   0.77703   0.50941   0.00000  Uiso   1.00
C775   C     0.27397   0.88963   0.99059   0.00000  Uiso   1.00
C776   C     0.18728   0.98601   0.73846   0.00000  Uiso   1.00
C777   C     0.14605   0.68065   0.76154   0.00000  Uiso   1.00
C778   C     0.12865   0.82754   0.83262   0.00000  Uiso   1.00
Cl779  Cl    0.22844   0.66953   0.68535   0.00000  Uiso   1.00
Cl780  Cl    0.10489   0.99713   0.81465   0.00000  Uiso   1.00
Cl781  Cl    0.00817   0.89451   0.79750   0.00000  Uiso   1.00
Cl782  Cl    0.32516   0.77215   0.70250   0.00000  Uiso   1.00
Cu783  Cu    0.10737   0.82775   0.74516   0.00000  Uiso   1.00
Cu784  Cu    0.22596   0.83892   0.75483   0.00000  Uiso   1.00
H785   H     0.01377   0.75438   0.52198   0.00000  Uiso   1.00
H786   H     0.31956   0.91229   0.97802   0.00000  Uiso   1.00
H787   H     0.15631   0.79301   0.60344   0.00000  Uiso   1.00
H788   H     0.17702   0.87366   0.89656   0.00000  Uiso   1.00
H789   H     0.32928   0.73868   0.95032   0.00000  Uiso   1.00
H790   H     0.00405   0.92799   0.54968   0.00000  Uiso   1.00
N791   N     0.31506   0.84735   0.76212   0.00000  Uiso   1.00
N792   N     0.01827   0.81932   0.73788   0.00000  Uiso   1.00
O793   O     0.12815   0.90476   0.74686   0.00000  Uiso   1.00
O794   O     0.20518   0.76191   0.75314   0.00000  Uiso   1.00
O795   O     0.22829   0.91420   0.75502   0.00000  Uiso   1.00
O796   O     0.10504   0.75247   0.74497   0.00000  Uiso   1.00
O797   O     0.08851   0.82597   0.80854   0.00000  Uiso   1.00
O798   O     0.24482   0.84070   0.69145   0.00000  Uiso   1.00
O799   O     0.18866   0.83540   0.81671   0.00000  Uiso   1.00
O800   O     0.14468   0.83126   0.68329   0.00000  Uiso   1.00
Br801  Br    0.33532   0.92337   0.64109   0.00000  Uiso   1.00
Br802  Br    0.66468   0.74330   0.85891   0.00000  Uiso   1.00
Br803  Br    0.38117   0.80083   0.59709   0.00000  Uiso   1.00
Br804  Br    0.61883   0.86583   0.90291   0.00000  Uiso   1.00
C805   C     0.51452   0.93267   0.74882   0.00000  Uiso   1.00
C806   C     0.53802   0.83913   0.66738   0.00000  Uiso   1.00
C807   C     0.43950   0.81617   0.87895   0.00000  Uiso   1.00
C808   C     0.56050   0.85049   0.62105   0.00000  Uiso   1.00
C809   C     0.37169   0.76575   0.93801   0.00000  Uiso   1.00
C810   C     0.62831   0.90091   0.56199   0.00000  Uiso   1.00
C811   C     0.38642   0.77849   0.89446   0.00000  Uiso   1.00
C812   C     0.61358   0.88817   0.60554   0.00000  Uiso   1.00
C813   C     0.47635   0.83975   0.90754   0.00000  Uiso   1.00
C814   C     0.52365   0.82692   0.59246   0.00000  Uiso   1.00
C815   C     0.46726   0.82173   0.94970   0.00000  Uiso   1.00
C816   C     0.48548   0.73399   0.75118   0.00000  Uiso   1.00
C817   C     0.53274   0.84494   0.55030   0.00000  Uiso   1.00
C818   C     0.41129   0.78713   0.96555   0.00000  Uiso   1.00
C819   C     0.58871   0.87954   0.53444   0.00000  Uiso   1.00
C820   C     0.50983   0.83901   0.97731   0.00000  Uiso   1.00
C821   C     0.49017   0.82766   0.52269   0.00000  Uiso   1.00
C822   C     0.42848   0.80024   0.53826   0.00000  Uiso   1.00
C823   C     0.57152   0.86643   0.96174   0.00000  Uiso   1.00
C824   C     0.39269   0.77703   0.50941   0.00000  Uiso   1.00
C825   C     0.60731   0.88963   0.99059   0.00000  Uiso   1.00
C826   C     0.52062   0.98601   0.73846   0.00000  Uiso   1.00
C827   C     0.47938   0.68065   0.76154   0.00000  Uiso   1.00
C828   C     0.46198   0.82754   0.83262   0.00000  Uiso   1.00
Cl829  Cl    0.56178   0.66953   0.68535   0.00000  Uiso   1.00
Cl830  Cl    0.43822   0.99713   0.81465   0.00000  Uiso   1.00
Cl831  Cl    0.34150   0.89451   0.79750   0.00000  Uiso   1.00
Cl832  Cl    0.65850   0.77215   0.70250   0.00000  Uiso   1.00
Cu833  Cu    0.44071   0.82775   0.74516   0.00000  Uiso   1.00
Cu834  Cu    0.55929   0.83892   0.75483   0.00000  Uiso   1.00
H835   H     0.34711   0.75438   0.52198   0.00000  Uiso   1.00
H836   H     0.65289   0.91229   0.97802   0.00000  Uiso   1.00
H837   H     0.48964   0.79301   0.60344   0.00000  Uiso   1.00
H838   H     0.51036   0.87366   0.89656   0.00000  Uiso   1.00
H839   H     0.66261   0.73868   0.95032   0.00000  Uiso   1.00
H840   H     0.33739   0.92799   0.54968   0.00000  Uiso   1.00
N841   N     0.64839   0.84735   0.76212   0.00000  Uiso   1.00
N842   N     0.35161   0.81932   0.73788   0.00000  Uiso   1.00
O843   O     0.46148   0.90476   0.74686   0.00000  Uiso   1.00
O844   O     0.53852   0.76191   0.75314   0.00000  Uiso   1.00
O845   O     0.56163   0.91420   0.75502   0.00000  Uiso   1.00
O846   O     0.43837   0.75247   0.74497   0.00000  Uiso   1.00
O847   O     0.42185   0.82597   0.80854   0.00000  Uiso   1.00
O848   O     0.57815   0.84070   0.69145   0.00000  Uiso   1.00
O849   O     0.52199   0.83540   0.81671   0.00000  Uiso   1.00
O850   O     0.47801   0.83126   0.68329   0.00000  Uiso   1.00
Br851  Br    0.66865   0.92337   0.64109   0.00000  Uiso   1.00
Br852  Br    0.99802   0.74330   0.85891   0.00000  Uiso   1.00
Br853  Br    0.71451   0.80083   0.59709   0.00000  Uiso   1.00
Br854  Br    0.95216   0.86583   0.90291   0.00000  Uiso   1.00
C855   C     0.84786   0.93267   0.74882   0.00000  Uiso   1.00
C856   C     0.87135   0.83913   0.66738   0.00000  Uiso   1.00
C857   C     0.77283   0.81617   0.87895   0.00000  Uiso   1.00
C858   C     0.89383   0.85049   0.62105   0.00000  Uiso   1.00
C859   C     0.70502   0.76575   0.93801   0.00000  Uiso   1.00
C860   C     0.96164   0.90091   0.56199   0.00000  Uiso   1.00
C861   C     0.71975   0.77849   0.89446   0.00000  Uiso   1.00
C862   C     0.94691   0.88817   0.60554   0.00000  Uiso   1.00
C863   C     0.80968   0.83975   0.90754   0.00000  Uiso   1.00
C864   C     0.85698   0.82692   0.59246   0.00000  Uiso   1.00
C865   C     0.80059   0.82173   0.94970   0.00000  Uiso   1.00
C866   C     0.81881   0.73399   0.75118   0.00000  Uiso   1.00
C867   C     0.86608   0.84494   0.55030   0.00000  Uiso   1.00
C868   C     0.74462   0.78713   0.96555   0.00000  Uiso   1.00
C869   C     0.92204   0.87954   0.53444   0.00000  Uiso   1.00
C870   C     0.84316   0.83901   0.97731   0.00000  Uiso   1.00
C871   C     0.82350   0.82766   0.52269   0.00000  Uiso   1.00
C872   C     0.76181   0.80024   0.53826   0.00000  Uiso   1.00
C873   C     0.90485   0.86643   0.96174   0.00000  Uiso   1.00
C874   C     0.72603   0.77703   0.50941   0.00000  Uiso   1.00
C875   C     0.94064   0.88963   0.99059   0.00000  Uiso   1.00
C876   C     0.85395   0.98601   0.73846   0.00000  Uiso   1.00
C877   C     0.81272   0.68065   0.76154   0.00000  Uiso   1.00
C878   C     0.79531   0.82754   0.83262   0.00000  Uiso   1.00
Cl879  Cl    0.89511   0.66953   0.68535   0.00000  Uiso   1.00
Cl880  Cl    0.77156   0.99713   0.81465   0.00000  Uiso   1.00
Cl881  Cl    0.67484   0.89451   0.79750   0.00000  Uiso   1.00
Cl882  Cl    0.99183   0.77215   0.70250   0.00000  Uiso   1.00
Cu883  Cu    0.77404   0.82775   0.74516   0.00000  Uiso   1.00
Cu884  Cu    0.89263   0.83892   0.75483   0.00000  Uiso   1.00
H885   H     0.68044   0.75438   0.52198   0.00000  Uiso   1.00
H886   H     0.98623   0.91229   0.97802   0.00000  Uiso   1.00
H887   H     0.82298   0.79301   0.60344   0.00000  Uiso   1.00
H888   H     0.84369   0.87366   0.89656   0.00000  Uiso   1.00
H889   H     0.99595   0.73868   0.95032   0.00000  Uiso   1.00
H890   H     0.67072   0.92799   0.54968   0.00000  Uiso   1.00
N891   N     0.98173   0.84735   0.76212   0.00000  Uiso   1.00
N892   N     0.68494   0.81932   0.73788   0.00000  Uiso   1.00
O893   O     0.79482   0.90476   0.74686   0.00000  Uiso   1.00
O894   O     0.87185   0.76191   0.75314   0.00000  Uiso   1.00
O895   O     0.89496   0.91420   0.75502   0.00000  Uiso   1.00
O896   O     0.77171   0.75247   0.74497   0.00000  Uiso   1.00
O897   O     0.75518   0.82597   0.80854   0.00000  Uiso   1.00
O898   O     0.91149   0.84070   0.69145   0.00000  Uiso   1.00
O899   O     0.85532   0.83540   0.81671   0.00000  Uiso   1.00
O900   O     0.81134   0.83126   0.68329   0.00000  Uiso   1.00
loop_
_geom_bond_atom_site_label_1
_geom_bond_atom_site_label_2
_geom_bond_distance
_geom_bond_site_symmetry_2
_ccdc_geom_bond_type
Br1    C112    1.925   1_455 S
Br2    C61     1.925   .     S
Br3    C22     1.919   .     S
Br4    C23     1.919   .     S
C5     O43     1.288   .     A
C5     C26     1.426   .     S
C5     O45     1.304   .     A
C6     O50     1.310   .     A
C6     O48     1.304   .     A
C6     C8      1.469   .     S
C7     C13     1.398   .     A
C7     C11     1.411   .     A
C7     C28     1.469   .     S
C8     C14     1.398   .     A
C8     C12     1.411   .     A
C9     C11     1.391   .     A
C9     C18     1.401   .     A
C9     H139    1.084   1_455 S
C10    C19     1.401   .     A
C10    C12     1.391   .     A
C10    H90     1.084   .     S
C11    Br102   1.925   1_455 S
C12    Br51    1.925   .     S
C13    C15     1.405   .     A
C13    H38     1.075   .     S
C14    C17     1.405   .     A
C14    H37     1.075   .     S
C15    C18     1.414   .     A
C15    C20     1.432   .     A
C16    O44     1.288   .     A
C16    C27     1.426   .     S
C16    O46     1.304   .     A
C17    C19     1.414   .     A
C17    C21     1.432   .     A
C18    C474    1.384   .     S
C19    C475    1.384   1_554 S
C20    C23     1.430   .     A
C20    C471    1.437   .     S
C21    C22     1.430   .     A
C21    C470    1.437   1_554 S
C22    C24     1.386   .     A
C23    C25     1.386   .     A
C24    H35     1.085   .     S
C24    C468    1.384   1_554 S
C25    H36     1.085   .     S
C25    C469    1.384   .     S
C26    C177    1.336   .     S
C26    Cl179   1.764   .     S
C27    C326    1.336   1_545 S
C27    Cl330   1.764   1_545 S
C28    O47     1.304   .     A
C28    O49     1.310   .     A
Cl29   C326    1.764   1_545 S
Cl30   C177    1.764   .     S
Cl31   N141    1.715   1_455 S
Cl32   N92     1.715   .     S
Cu33   Cu34    2.717   .     S
Cu33   O46     1.951   .     S
Cu33   N42     2.042   .     S
Cu33   O47     1.954   .     S
Cu33   O43     1.971   .     S
Cu33   O50     1.945   .     S
Cu34   N41     2.042   .     S
Cu34   O45     1.951   .     S
Cu34   O48     1.954   .     S
Cu34   O44     1.971   .     S
Cu34   O49     1.945   .     S
H39    C59     1.084   .     S
H40    C110    1.084   1_455 S
N41    Cl81    1.715   .     S
N41    N92     1.283   .     S
N42    N141    1.283   1_455 S
N42    Cl132   1.715   1_455 S
Br52   C111    1.925   .     S
Br53   C72     1.919   .     S
Br54   C73     1.919   .     S
C55    O93     1.288   .     A
C55    C76     1.426   .     S
C55    O95     1.304   .     A
C56    O100    1.310   .     A
C56    O98     1.304   .     A
C56    C58     1.469   .     S
C57    C63     1.398   .     A
C57    C61     1.411   .     A
C57    C78     1.469   .     S
C58    C64     1.398   .     A
C58    C62     1.411   .     A
C59    C61     1.391   .     A
C59    C68     1.401   .     A
C60    C69     1.401   .     A
C60    C62     1.391   .     A
C60    H140    1.084   .     S
C62    Br101   1.925   .     S
C63    C65     1.405   .     A
C63    H88     1.075   .     S
C64    C67     1.405   .     A
C64    H87     1.075   .     S
C65    C68     1.414   .     A
C65    C70     1.432   .     A
C66    O94     1.288   .     A
C66    C77     1.426   .     S
C66    O96     1.304   .     A
C67    C69     1.414   .     A
C67    C71     1.432   .     A
C68    C524    1.384   .     S
C69    C525    1.384   1_554 S
C70    C73     1.430   .     A
C70    C521    1.437   .     S
C71    C72     1.430   .     A
C71    C520    1.437   1_554 S
C72    C74     1.386   .     A
C73    C75     1.386   .     A
C74    H85     1.085   .     S
C74    C518    1.384   1_554 S
C75    H86     1.085   .     S
C75    C519    1.384   .     S
C76    C227    1.336   .     S
C76    Cl229   1.764   .     S
C77    C376    1.336   1_545 S
C77    Cl380   1.764   1_545 S
C78    O97     1.304   .     A
C78    O99     1.310   .     A
Cl79   C376    1.764   1_545 S
Cl80   C227    1.764   .     S
Cl82   N142    1.715   .     S
Cu83   Cu84    2.717   .     S
Cu83   O96     1.951   .     S
Cu83   N92     2.042   .     S
Cu83   O97     1.954   .     S
Cu83   O93     1.971   .     S
Cu83   O100    1.945   .     S
Cu84   N91     2.042   .     S
Cu84   O95     1.951   .     S
Cu84   O98     1.954   .     S
Cu84   O94     1.971   .     S
Cu84   O99     1.945   .     S
H89    C109    1.084   .     S
N91    Cl131   1.715   .     S
N91    N142    1.283   .     S
Br102  C11     1.925   1_655 S
Br103  C122    1.919   .     S
Br104  C123    1.919   .     S
C105   O143    1.288   .     A
C105   C126    1.426   .     S
C105   O145    1.304   .     A
C106   O150    1.310   .     A
C106   O148    1.304   .     A
C106   C108    1.469   .     S
C107   C113    1.398   .     A
C107   C111    1.411   .     A
C107   C128    1.469   .     S
C108   C114    1.398   .     A
C108   C112    1.411   .     A
C109   C111    1.391   .     A
C109   C118    1.401   .     A
C110   C119    1.401   .     A
C110   C112    1.391   .     A
C110   H40     1.084   1_655 S
C112   Br1     1.925   1_655 S
C113   C115    1.405   .     A
C113   H138    1.075   .     S
C114   C117    1.405   .     A
C114   H137    1.075   .     S
C115   C118    1.414   .     A
C115   C120    1.432   .     A
C116   O144    1.288   .     A
C116   C127    1.426   .     S
C116   O146    1.304   .     A
C117   C119    1.414   .     A
C117   C121    1.432   .     A
C118   C574    1.384   .     S
C119   C575    1.384   1_554 S
C120   C123    1.430   .     A
C120   C571    1.437   .     S
C121   C122    1.430   .     A
C121   C570    1.437   1_554 S
C122   C124    1.386   .     A
C123   C125    1.386   .     A
C124   H135    1.085   .     S
C124   C568    1.384   1_554 S
C125   H136    1.085   .     S
C125   C569    1.384   .     S
C126   C277    1.336   .     S
C126   Cl279   1.764   .     S
C127   C426    1.336   1_545 S
C127   Cl430   1.764   1_545 S
C128   O147    1.304   .     A
C128   O149    1.310   .     A
Cl129  C426    1.764   1_545 S
Cl130  C277    1.764   .     S
Cl132  N42     1.715   1_655 S
Cu133  Cu134   2.717   .     S
Cu133  O146    1.951   .     S
Cu133  N142    2.042   .     S
Cu133  O147    1.954   .     S
Cu133  O143    1.971   .     S
Cu133  O150    1.945   .     S
Cu134  N141    2.042   .     S
Cu134  O145    1.951   .     S
Cu134  O148    1.954   .     S
Cu134  O144    1.971   .     S
Cu134  O149    1.945   .     S
H139   C9      1.084   1_655 S
N141   Cl31    1.715   1_655 S
N141   N42     1.283   1_655 S
Br151  C262    1.925   1_455 S
Br152  C211    1.925   .     S
Br153  C172    1.919   .     S
Br154  C173    1.919   .     S
C155   O193    1.288   .     A
C155   C176    1.426   .     S
C155   O195    1.304   .     A
C156   O200    1.310   .     A
C156   O198    1.304   .     A
C156   C158    1.469   .     S
C157   C163    1.398   .     A
C157   C161    1.411   .     A
C157   C178    1.469   .     S
C158   C164    1.398   .     A
C158   C162    1.411   .     A
C159   C161    1.391   .     A
C159   C168    1.401   .     A
C159   H289    1.084   1_455 S
C160   C169    1.401   .     A
C160   C162    1.391   .     A
C160   H240    1.084   .     S
C161   Br252   1.925   1_455 S
C162   Br201   1.925   .     S
C163   C165    1.405   .     A
C163   H188    1.075   .     S
C164   C167    1.405   .     A
C164   H187    1.075   .     S
C165   C168    1.414   .     A
C165   C170    1.432   .     A
C166   O194    1.288   .     A
C166   C177    1.426   .     S
C166   O196    1.304   .     A
C167   C169    1.414   .     A
C167   C171    1.432   .     A
C168   C624    1.384   .     S
C169   C625    1.384   1_554 S
C170   C173    1.430   .     A
C170   C621    1.437   .     S
C171   C172    1.430   .     A
C171   C620    1.437   1_554 S
C172   C174    1.386   .     A
C173   C175    1.386   .     A
C174   H185    1.085   .     S
C174   C618    1.384   1_554 S
C175   H186    1.085   .     S
C175   C619    1.384   .     S
C176   C327    1.336   .     S
C176   Cl329   1.764   .     S
C178   O197    1.304   .     A
C178   O199    1.310   .     A
Cl180  C327    1.764   .     S
Cl181  N291    1.715   1_455 S
Cl182  N242    1.715   .     S
Cu183  Cu184   2.717   .     S
Cu183  O196    1.951   .     S
Cu183  N192    2.042   .     S
Cu183  O197    1.954   .     S
Cu183  O193    1.971   .     S
Cu183  O200    1.945   .     S
Cu184  N191    2.042   .     S
Cu184  O195    1.951   .     S
Cu184  O198    1.954   .     S
Cu184  O194    1.971   .     S
Cu184  O199    1.945   .     S
H189   C209    1.084   .     S
H190   C260    1.084   1_455 S
N191   Cl231   1.715   .     S
N191   N242    1.283   .     S
N192   N291    1.283   1_455 S
N192   Cl282   1.715   1_455 S
Br202  C261    1.925   .     S
Br203  C222    1.919   .     S
Br204  C223    1.919   .     S
C205   O243    1.288   .     A
C205   C226    1.426   .     S
C205   O245    1.304   .     A
C206   O250    1.310   .     A
C206   O248    1.304   .     A
C206   C208    1.469   .     S
C207   C213    1.398   .     A
C207   C211    1.411   .     A
C207   C228    1.469   .     S
C208   C214    1.398   .     A
C208   C212    1.411   .     A
C209   C211    1.391   .     A
C209   C218    1.401   .     A
C210   C219    1.401   .     A
C210   C212    1.391   .     A
C210   H290    1.084   .     S
C212   Br251   1.925   .     S
C213   C215    1.405   .     A
C213   H238    1.075   .     S
C214   C217    1.405   .     A
C214   H237    1.075   .     S
C215   C218    1.414   .     A
C215   C220    1.432   .     A
C216   O244    1.288   .     A
C216   C227    1.426   .     S
C216   O246    1.304   .     A
C217   C219    1.414   .     A
C217   C221    1.432   .     A
C218   C674    1.384   .     S
C219   C675    1.384   1_554 S
C220   C223    1.430   .     A
C220   C671    1.437   .     S
C221   C222    1.430   .     A
C221   C670    1.437   1_554 S
C222   C224    1.386   .     A
C223   C225    1.386   .     A
C224   H235    1.085   .     S
C224   C668    1.384   1_554 S
C225   H236    1.085   .     S
C225   C669    1.384   .     S
C226   C377    1.336   .     S
C226   Cl379   1.764   .     S
C228   O247    1.304   .     A
C228   O249    1.310   .     A
Cl230  C377    1.764   .     S
Cl232  N292    1.715   .     S
Cu233  Cu234   2.717   .     S
Cu233  O246    1.951   .     S
Cu233  N242    2.042   .     S
Cu233  O247    1.954   .     S
Cu233  O243    1.971   .     S
Cu233  O250    1.945   .     S
Cu234  N241    2.042   .     S
Cu234  O245    1.951   .     S
Cu234  O248    1.954   .     S
Cu234  O244    1.971   .     S
Cu234  O249    1.945   .     S
H239   C259    1.084   .     S
N241   Cl281   1.715   .     S
N241   N292    1.283   .     S
Br252  C161    1.925   1_655 S
Br253  C272    1.919   .     S
Br254  C273    1.919   .     S
C255   O293    1.288   .     A
C255   C276    1.426   .     S
C255   O295    1.304   .     A
C256   O300    1.310   .     A
C256   O298    1.304   .     A
C256   C258    1.469   .     S
C257   C263    1.398   .     A
C257   C261    1.411   .     A
C257   C278    1.469   .     S
C258   C264    1.398   .     A
C258   C262    1.411   .     A
C259   C261    1.391   .     A
C259   C268    1.401   .     A
C260   C269    1.401   .     A
C260   C262    1.391   .     A
C260   H190    1.084   1_655 S
C262   Br151   1.925   1_655 S
C263   C265    1.405   .     A
C263   H288    1.075   .     S
C264   C267    1.405   .     A
C264   H287    1.075   .     S
C265   C268    1.414   .     A
C265   C270    1.432   .     A
C266   O294    1.288   .     A
C266   C277    1.426   .     S
C266   O296    1.304   .     A
C267   C269    1.414   .     A
C267   C271    1.432   .     A
C268   C724    1.384   .     S
C269   C725    1.384   1_554 S
C270   C273    1.430   .     A
C270   C721    1.437   .     S
C271   C272    1.430   .     A
C271   C720    1.437   1_554 S
C272   C274    1.386   .     A
C273   C275    1.386   .     A
C274   H285    1.085   .     S
C274   C718    1.384   1_554 S
C275   H286    1.085   .     S
C275   C719    1.384   .     S
C276   C427    1.336   .     S
C276   Cl429   1.764   .     S
C278   O297    1.304   .     A
C278   O299    1.310   .     A
Cl280  C427    1.764   .     S
Cl282  N192    1.715   1_655 S
Cu283  Cu284   2.717   .     S
Cu283  O296    1.951   .     S
Cu283  N292    2.042   .     S
Cu283  O297    1.954   .     S
Cu283  O293    1.971   .     S
Cu283  O300    1.945   .     S
Cu284  N291    2.042   .     S
Cu284  O295    1.951   .     S
Cu284  O298    1.954   .     S
Cu284  O294    1.971   .     S
Cu284  O299    1.945   .     S
H289   C159    1.084   1_655 S
N291   Cl181   1.715   1_655 S
N291   N192    1.283   1_655 S
Br301  C412    1.925   1_455 S
Br302  C361    1.925   .     S
Br303  C322    1.919   .     S
Br304  C323    1.919   .     S
C305   O343    1.288   .     A
C305   C326    1.426   .     S
C305   O345    1.304   .     A
C306   O350    1.310   .     A
C306   O348    1.304   .     A
C306   C308    1.469   .     S
C307   C313    1.398   .     A
C307   C311    1.411   .     A
C307   C328    1.469   .     S
C308   C314    1.398   .     A
C308   C312    1.411   .     A
C309   C311    1.391   .     A
C309   C318    1.401   .     A
C309   H439    1.084   1_455 S
C310   C319    1.401   .     A
C310   C312    1.391   .     A
C310   H390    1.084   .     S
C311   Br402   1.925   1_455 S
C312   Br351   1.925   .     S
C313   C315    1.405   .     A
C313   H338    1.075   .     S
C314   C317    1.405   .     A
C314   H337    1.075   .     S
C315   C318    1.414   .     A
C315   C320    1.432   .     A
C316   O344    1.288   .     A
C316   C327    1.426   .     S
C316   O346    1.304   .     A
C317   C319    1.414   .     A
C317   C321    1.432   .     A
C318   C774    1.384   .     S
C319   C775    1.384   1_554 S
C320   C323    1.430   .     A
C320   C771    1.437   .     S
C321   C322    1.430   .     A
C321   C770    1.437   1_554 S
C322   C324    1.386   .     A
C323   C325    1.386   .     A
C324   H335    1.085   .     S
C324   C768    1.384   1_554 S
C325   H336    1.085   .     S
C325   C769    1.384   .     S
C326   C27     1.336   1_565 S
C326   Cl29    1.764   1_565 S
C328   O347    1.304   .     A
C328   O349    1.310   .     A
Cl330  C27     1.764   1_565 S
Cl331  N441    1.715   1_455 S
Cl332  N392    1.715   .     S
Cu333  Cu334   2.717   .     S
Cu333  O346    1.951   .     S
Cu333  N342    2.042   .     S
Cu333  O347    1.954   .     S
Cu333  O343    1.971   .     S
Cu333  O350    1.945   .     S
Cu334  N341    2.042   .     S
Cu334  O345    1.951   .     S
Cu334  O348    1.954   .     S
Cu334  O344    1.971   .     S
Cu334  O349    1.945   .     S
H339   C359    1.084   .     S
H340   C410    1.084   1_455 S
N341   Cl381   1.715   .     S
N341   N392    1.283   .     S
N342   N441    1.283   1_455 S
N342   Cl432   1.715   1_455 S
Br352  C411    1.925   .     S
Br353  C372    1.919   .     S
Br354  C373    1.919   .     S
C355   O393    1.288   .     A
C355   C376    1.426   .     S
C355   O395    1.304   .     A
C356   O400    1.310   .     A
C356   O398    1.304   .     A
C356   C358    1.469   .     S
C357   C363    1.398   .     A
C357   C361    1.411   .     A
C357   C378    1.469   .     S
C358   C364    1.398   .     A
C358   C362    1.411   .     A
C359   C361    1.391   .     A
C359   C368    1.401   .     A
C360   C369    1.401   .     A
C360   C362    1.391   .     A
C360   H440    1.084   .     S
C362   Br401   1.925   .     S
C363   C365    1.405   .     A
C363   H388    1.075   .     S
C364   C367    1.405   .     A
C364   H387    1.075   .     S
C365   C368    1.414   .     A
C365   C370    1.432   .     A
C366   O394    1.288   .     A
C366   C377    1.426   .     S
C366   O396    1.304   .     A
C367   C369    1.414   .     A
C367   C371    1.432   .     A
C368   C824    1.384   .     S
C369   C825    1.384   1_554 S
C370   C373    1.430   .     A
C370   C821    1.437   .     S
C371   C372    1.430   .     A
C371   C820    1.437   1_554 S
C372   C374    1.386   .     A
C373   C375    1.386   .     A
C374   H385    1.085   .     S
C374   C818    1.384   1_554 S
C375   H386    1.085   .     S
C375   C819    1.384   .     S
C376   C77     1.336   1_565 S
C376   Cl79    1.764   1_565 S
C378   O397    1.304   .     A
C378   O399    1.310   .     A
Cl380  C77     1.764   1_565 S
Cl382  N442    1.715   .     S
Cu383  Cu384   2.717   .     S
Cu383  O396    1.951   .     S
Cu383  N392    2.042   .     S
Cu383  O397    1.954   .     S
Cu383  O393    1.971   .     S
Cu383  O400    1.945   .     S
Cu384  N391    2.042   .     S
Cu384  O395    1.951   .     S
Cu384  O398    1.954   .     S
Cu384  O394    1.971   .     S
Cu384  O399    1.945   .     S
H389   C409    1.084   .     S
N391   Cl431   1.715   .     S
N391   N442    1.283   .     S
Br402  C311    1.925   1_655 S
Br403  C422    1.919   .     S
Br404  C423    1.919   .     S
C405   O443    1.288   .     A
C405   C426    1.426   .     S
C405   O445    1.304   .     A
C406   O450    1.310   .     A
C406   O448    1.304   .     A
C406   C408    1.469   .     S
C407   C413    1.398   .     A
C407   C411    1.411   .     A
C407   C428    1.469   .     S
C408   C414    1.398   .     A
C408   C412    1.411   .     A
C409   C411    1.391   .     A
C409   C418    1.401   .     A
C410   C419    1.401   .     A
C410   C412    1.391   .     A
C410   H340    1.084   1_655 S
C412   Br301   1.925   1_655 S
C413   C415    1.405   .     A
C413   H438    1.075   .     S
C414   C417    1.405   .     A
C414   H437    1.075   .     S
C415   C418    1.414   .     A
C415   C420    1.432   .     A
C416   O444    1.288   .     A
C416   C427    1.426   .     S
C416   O446    1.304   .     A
C417   C419    1.414   .     A
C417   C421    1.432   .     A
C418   C874    1.384   .     S
C419   C875    1.384   1_554 S
C420   C423    1.430   .     A
C420   C871    1.437   .     S
C421   C422    1.430   .     A
C421   C870    1.437   1_554 S
C422   C424    1.386   .     A
C423   C425    1.386   .     A
C424   H435    1.085   .     S
C424   C868    1.384   1_554 S
C425   H436    1.085   .     S
C425   C869    1.384   .     S
C426   C127    1.336   1_565 S
C426   Cl129   1.764   1_565 S
C428   O447    1.304   .     A
C428   O449    1.310   .     A
Cl430  C127    1.764   1_565 S
Cl432  N342    1.715   1_655 S
Cu433  Cu434   2.717   .     S
Cu433  O446    1.951   .     S
Cu433  N442    2.042   .     S
Cu433  O447    1.954   .     S
Cu433  O443    1.971   .     S
Cu433  O450    1.945   .     S
Cu434  N441    2.042   .     S
Cu434  O445    1.951   .     S
Cu434  O448    1.954   .     S
Cu434  O444    1.971   .     S
Cu434  O449    1.945   .     S
H439   C309    1.084   1_655 S
N441   Cl331   1.715   1_655 S
N441   N342    1.283   1_655 S
Br451  C562    1.925   1_455 S
Br452  C511    1.925   .     S
Br453  C472    1.919   .     S
Br454  C473    1.919   .     S
C455   O493    1.288   .     A
C455   C476    1.426   .     S
C455   O495    1.304   .     A
C456   O500    1.310   .     A
C456   O498    1.304   .     A
C456   C458    1.469   .     S
C457   C463    1.398   .     A
C457   C461    1.411   .     A
C457   C478    1.469   .     S
C458   C464    1.398   .     A
C458   C462    1.411   .     A
C459   C461    1.391   .     A
C459   C468    1.401   .     A
C459   H589    1.084   1_455 S
C460   C469    1.401   .     A
C460   C462    1.391   .     A
C460   H540    1.084   .     S
C461   Br552   1.925   1_455 S
C462   Br501   1.925   .     S
C463   C465    1.405   .     A
C463   H488    1.075   .     S
C464   C467    1.405   .     A
C464   H487    1.075   .     S
C465   C468    1.414   .     A
C465   C470    1.432   .     A
C466   O494    1.288   .     A
C466   C477    1.426   .     S
C466   O496    1.304   .     A
C467   C469    1.414   .     A
C467   C471    1.432   .     A
C468   C24     1.384   1_556 S
C470   C473    1.430   .     A
C470   C21     1.437   1_556 S
C471   C472    1.430   .     A
C472   C474    1.386   .     A
C473   C475    1.386   .     A
C474   H485    1.085   .     S
C475   H486    1.085   .     S
C475   C19     1.384   1_556 S
C476   C627    1.336   .     S
C476   Cl629   1.764   .     S
C477   C776    1.336   1_545 S
C477   Cl780   1.764   1_545 S
C478   O497    1.304   .     A
C478   O499    1.310   .     A
Cl479  C776    1.764   1_545 S
Cl480  C627    1.764   .     S
Cl481  N591    1.715   1_455 S
Cl482  N542    1.715   .     S
Cu483  Cu484   2.717   .     S
Cu483  O496    1.951   .     S
Cu483  N492    2.042   .     S
Cu483  O497    1.954   .     S
Cu483  O493    1.971   .     S
Cu483  O500    1.945   .     S
Cu484  N491    2.042   .     S
Cu484  O495    1.951   .     S
Cu484  O498    1.954   .     S
Cu484  O494    1.971   .     S
Cu484  O499    1.945   .     S
H489   C509    1.084   .     S
H490   C560    1.084   1_455 S
N491   Cl531   1.715   .     S
N491   N542    1.283   .     S
N492   N591    1.283   1_455 S
N492   Cl582   1.715   1_455 S
Br502  C561    1.925   .     S
Br503  C522    1.919   .     S
Br504  C523    1.919   .     S
C505   O543    1.288   .     A
C505   C526    1.426   .     S
C505   O545    1.304   .     A
C506   O550    1.310   .     A
C506   O548    1.304   .     A
C506   C508    1.469   .     S
C507   C513    1.398   .     A
C507   C511    1.411   .     A
C507   C528    1.469   .     S
C508   C514    1.398   .     A
C508   C512    1.411   .     A
C509   C511    1.391   .     A
C509   C518    1.401   .     A
C510   C519    1.401   .     A
C510   C512    1.391   .     A
C510   H590    1.084   .     S
C512   Br551   1.925   .     S
C513   C515    1.405   .     A
C513   H538    1.075   .     S
C514   C517    1.405   .     A
C514   H537    1.075   .     S
C515   C518    1.414   .     A
C515   C520    1.432   .     A
C516   O544    1.288   .     A
C516   C527    1.426   .     S
C516   O546    1.304   .     A
C517   C519    1.414   .     A
C517   C521    1.432   .     A
C518   C74     1.384   1_556 S
C520   C523    1.430   .     A
C520   C71     1.437   1_556 S
C521   C522    1.430   .     A
C522   C524    1.386   .     A
C523   C525    1.386   .     A
C524   H535    1.085   .     S
C525   H536    1.085   .     S
C525   C69     1.384   1_556 S
C526   C677    1.336   .     S
C526   Cl679   1.764   .     S
C527   C826    1.336   1_545 S
C527   Cl830   1.764   1_545 S
C528   O547    1.304   .     A
C528   O549    1.310   .     A
Cl529  C826    1.764   1_545 S
Cl530  C677    1.764   .     S
Cl532  N592    1.715   .     S
Cu533  Cu534   2.717   .     S
Cu533  O546    1.951   .     S
Cu533  N542    2.042   .     S
Cu533  O547    1.954   .     S
Cu533  O543    1.971   .     S
Cu533  O550    1.945   .     S
Cu534  N541    2.042   .     S
Cu534  O545    1.951   .     S
Cu534  O548    1.954   .     S
Cu534  O544    1.971   .     S
Cu534  O549    1.945   .     S
H539   C559    1.084   .     S
N541   Cl581   1.715   .     S
N541   N592    1.283   .     S
Br552  C461    1.925   1_655 S
Br553  C572    1.919   .     S
Br554  C573    1.919   .     S
C555   O593    1.288   .     A
C555   C576    1.426   .     S
C555   O595    1.304   .     A
C556   O600    1.310   .     A
C556   O598    1.304   .     A
C556   C558    1.469   .     S
C557   C563    1.398   .     A
C557   C561    1.411   .     A
C557   C578    1.469   .     S
C558   C564    1.398   .     A
C558   C562    1.411   .     A
C559   C561    1.391   .     A
C559   C568    1.401   .     A
C560   C569    1.401   .     A
C560   C562    1.391   .     A
C560   H490    1.084   1_655 S
C562   Br451   1.925   1_655 S
C563   C565    1.405   .     A
C563   H588    1.075   .     S
C564   C567    1.405   .     A
C564   H587    1.075   .     S
C565   C568    1.414   .     A
C565   C570    1.432   .     A
C566   O594    1.288   .     A
C566   C577    1.426   .     S
C566   O596    1.304   .     A
C567   C569    1.414   .     A
C567   C571    1.432   .     A
C568   C124    1.384   1_556 S
C570   C573    1.430   .     A
C570   C121    1.437   1_556 S
C571   C572    1.430   .     A
C572   C574    1.386   .     A
C573   C575    1.386   .     A
C574   H585    1.085   .     S
C575   H586    1.085   .     S
C575   C119    1.384   1_556 S
C576   C727    1.336   .     S
C576   Cl729   1.764   .     S
C577   C876    1.336   1_545 S
C577   Cl880   1.764   1_545 S
C578   O597    1.304   .     A
C578   O599    1.310   .     A
Cl579  C876    1.764   1_545 S
Cl580  C727    1.764   .     S
Cl582  N492    1.715   1_655 S
Cu583  Cu584   2.717   .     S
Cu583  O596    1.951   .     S
Cu583  N592    2.042   .     S
Cu583  O597    1.954   .     S
Cu583  O593    1.971   .     S
Cu583  O600    1.945   .     S
Cu584  N591    2.042   .     S
Cu584  O595    1.951   .     S
Cu584  O598    1.954   .     S
Cu584  O594    1.971   .     S
Cu584  O599    1.945   .     S
H589   C459    1.084   1_655 S
N591   Cl481   1.715   1_655 S
N591   N492    1.283   1_655 S
Br601  C712    1.925   1_455 S
Br602  C661    1.925   .     S
Br603  C622    1.919   .     S
Br604  C623    1.919   .     S
C605   O643    1.288   .     A
C605   C626    1.426   .     S
C605   O645    1.304   .     A
C606   O650    1.310   .     A
C606   O648    1.304   .     A
C606   C608    1.469   .     S
C607   C613    1.398   .     A
C607   C611    1.411   .     A
C607   C628    1.469   .     S
C608   C614    1.398   .     A
C608   C612    1.411   .     A
C609   C611    1.391   .     A
C609   C618    1.401   .     A
C609   H739    1.084   1_455 S
C610   C619    1.401   .     A
C610   C612    1.391   .     A
C610   H690    1.084   .     S
C611   Br702   1.925   1_455 S
C612   Br651   1.925   .     S
C613   C615    1.405   .     A
C613   H638    1.075   .     S
C614   C617    1.405   .     A
C614   H637    1.075   .     S
C615   C618    1.414   .     A
C615   C620    1.432   .     A
C616   O644    1.288   .     A
C616   C627    1.426   .     S
C616   O646    1.304   .     A
C617   C619    1.414   .     A
C617   C621    1.432   .     A
C618   C174    1.384   1_556 S
C620   C623    1.430   .     A
C620   C171    1.437   1_556 S
C621   C622    1.430   .     A
C622   C624    1.386   .     A
C623   C625    1.386   .     A
C624   H635    1.085   .     S
C625   H636    1.085   .     S
C625   C169    1.384   1_556 S
C626   C777    1.336   .     S
C626   Cl779   1.764   .     S
C628   O647    1.304   .     A
C628   O649    1.310   .     A
Cl630  C777    1.764   .     S
Cl631  N741    1.715   1_455 S
Cl632  N692    1.715   .     S
Cu633  Cu634   2.717   .     S
Cu633  O646    1.951   .     S
Cu633  N642    2.042   .     S
Cu633  O647    1.954   .     S
Cu633  O643    1.971   .     S
Cu633  O650    1.945   .     S
Cu634  N641    2.042   .     S
Cu634  O645    1.951   .     S
Cu634  O648    1.954   .     S
Cu634  O644    1.971   .     S
Cu634  O649    1.945   .     S
H639   C659    1.084   .     S
H640   C710    1.084   1_455 S
N641   Cl681   1.715   .     S
N641   N692    1.283   .     S
N642   N741    1.283   1_455 S
N642   Cl732   1.715   1_455 S
Br652  C711    1.925   .     S
Br653  C672    1.919   .     S
Br654  C673    1.919   .     S
C655   O693    1.288   .     A
C655   C676    1.426   .     S
C655   O695    1.304   .     A
C656   O700    1.310   .     A
C656   O698    1.304   .     A
C656   C658    1.469   .     S
C657   C663    1.398   .     A
C657   C661    1.411   .     A
C657   C678    1.469   .     S
C658   C664    1.398   .     A
C658   C662    1.411   .     A
C659   C661    1.391   .     A
C659   C668    1.401   .     A
C660   C669    1.401   .     A
C660   C662    1.391   .     A
C660   H740    1.084   .     S
C662   Br701   1.925   .     S
C663   C665    1.405   .     A
C663   H688    1.075   .     S
C664   C667    1.405   .     A
C664   H687    1.075   .     S
C665   C668    1.414   .     A
C665   C670    1.432   .     A
C666   O694    1.288   .     A
C666   C677    1.426   .     S
C666   O696    1.304   .     A
C667   C669    1.414   .     A
C667   C671    1.432   .     A
C668   C224    1.384   1_556 S
C670   C673    1.430   .     A
C670   C221    1.437   1_556 S
C671   C672    1.430   .     A
C672   C674    1.386   .     A
C673   C675    1.386   .     A
C674   H685    1.085   .     S
C675   H686    1.085   .     S
C675   C219    1.384   1_556 S
C676   C827    1.336   .     S
C676   Cl829   1.764   .     S
C678   O697    1.304   .     A
C678   O699    1.310   .     A
Cl680  C827    1.764   .     S
Cl682  N742    1.715   .     S
Cu683  Cu684   2.717   .     S
Cu683  O696    1.951   .     S
Cu683  N692    2.042   .     S
Cu683  O697    1.954   .     S
Cu683  O693    1.971   .     S
Cu683  O700    1.945   .     S
Cu684  N691    2.042   .     S
Cu684  O695    1.951   .     S
Cu684  O698    1.954   .     S
Cu684  O694    1.971   .     S
Cu684  O699    1.945   .     S
H689   C709    1.084   .     S
N691   Cl731   1.715   .     S
N691   N742    1.283   .     S
Br702  C611    1.925   1_655 S
Br703  C722    1.919   .     S
Br704  C723    1.919   .     S
C705   O743    1.288   .     A
C705   C726    1.426   .     S
C705   O745    1.304   .     A
C706   O750    1.310   .     A
C706   O748    1.304   .     A
C706   C708    1.469   .     S
C707   C713    1.398   .     A
C707   C711    1.411   .     A
C707   C728    1.469   .     S
C708   C714    1.398   .     A
C708   C712    1.411   .     A
C709   C711    1.391   .     A
C709   C718    1.401   .     A
C710   C719    1.401   .     A
C710   C712    1.391   .     A
C710   H640    1.084   1_655 S
C712   Br601   1.925   1_655 S
C713   C715    1.405   .     A
C713   H738    1.075   .     S
C714   C717    1.405   .     A
C714   H737    1.075   .     S
C715   C718    1.414   .     A
C715   C720    1.432   .     A
C716   O744    1.288   .     A
C716   C727    1.426   .     S
C716   O746    1.304   .     A
C717   C719    1.414   .     A
C717   C721    1.432   .     A
C718   C274    1.384   1_556 S
C720   C723    1.430   .     A
C720   C271    1.437   1_556 S
C721   C722    1.430   .     A
C722   C724    1.386   .     A
C723   C725    1.386   .     A
C724   H735    1.085   .     S
C725   H736    1.085   .     S
C725   C269    1.384   1_556 S
C726   C877    1.336   .     S
C726   Cl879   1.764   .     S
C728   O747    1.304   .     A
C728   O749    1.310   .     A
Cl730  C877    1.764   .     S
Cl732  N642    1.715   1_655 S
Cu733  Cu734   2.717   .     S
Cu733  O746    1.951   .     S
Cu733  N742    2.042   .     S
Cu733  O747    1.954   .     S
Cu733  O743    1.971   .     S
Cu733  O750    1.945   .     S
Cu734  N741    2.042   .     S
Cu734  O745    1.951   .     S
Cu734  O748    1.954   .     S
Cu734  O744    1.971   .     S
Cu734  O749    1.945   .     S
H739   C609    1.084   1_655 S
N741   Cl631   1.715   1_655 S
N741   N642    1.283   1_655 S
Br751  C862    1.925   1_455 S
Br752  C811    1.925   .     S
Br753  C772    1.919   .     S
Br754  C773    1.919   .     S
C755   O793    1.288   .     A
C755   C776    1.426   .     S
C755   O795    1.304   .     A
C756   O800    1.310   .     A
C756   O798    1.304   .     A
C756   C758    1.469   .     S
C757   C763    1.398   .     A
C757   C761    1.411   .     A
C757   C778    1.469   .     S
C758   C764    1.398   .     A
C758   C762    1.411   .     A
C759   C761    1.391   .     A
C759   C768    1.401   .     A
C759   H889    1.084   1_455 S
C760   C769    1.401   .     A
C760   C762    1.391   .     A
C760   H840    1.084   .     S
C761   Br852   1.925   1_455 S
C762   Br801   1.925   .     S
C763   C765    1.405   .     A
C763   H788    1.075   .     S
C764   C767    1.405   .     A
C764   H787    1.075   .     S
C765   C768    1.414   .     A
C765   C770    1.432   .     A
C766   O794    1.288   .     A
C766   C777    1.426   .     S
C766   O796    1.304   .     A
C767   C769    1.414   .     A
C767   C771    1.432   .     A
C768   C324    1.384   1_556 S
C770   C773    1.430   .     A
C770   C321    1.437   1_556 S
C771   C772    1.430   .     A
C772   C774    1.386   .     A
C773   C775    1.386   .     A
C774   H785    1.085   .     S
C775   H786    1.085   .     S
C775   C319    1.384   1_556 S
C776   C477    1.336   1_565 S
C776   Cl479   1.764   1_565 S
C778   O797    1.304   .     A
C778   O799    1.310   .     A
Cl780  C477    1.764   1_565 S
Cl781  N891    1.715   1_455 S
Cl782  N842    1.715   .     S
Cu783  Cu784   2.717   .     S
Cu783  O796    1.951   .     S
Cu783  N792    2.042   .     S
Cu783  O797    1.954   .     S
Cu783  O793    1.971   .     S
Cu783  O800    1.945   .     S
Cu784  N791    2.042   .     S
Cu784  O795    1.951   .     S
Cu784  O798    1.954   .     S
Cu784  O794    1.971   .     S
Cu784  O799    1.945   .     S
H789   C809    1.084   .     S
H790   C860    1.084   1_455 S
N791   Cl831   1.715   .     S
N791   N842    1.283   .     S
N792   N891    1.283   1_455 S
N792   Cl882   1.715   1_455 S
Br802  C861    1.925   .     S
Br803  C822    1.919   .     S
Br804  C823    1.919   .     S
C805   O843    1.288   .     A
C805   C826    1.426   .     S
C805   O845    1.304   .     A
C806   O850    1.310   .     A
C806   O848    1.304   .     A
C806   C808    1.469   .     S
C807   C813    1.398   .     A
C807   C811    1.411   .     A
C807   C828    1.469   .     S
C808   C814    1.398   .     A
C808   C812    1.411   .     A
C809   C811    1.391   .     A
C809   C818    1.401   .     A
C810   C819    1.401   .     A
C810   C812    1.391   .     A
C810   H890    1.084   .     S
C812   Br851   1.925   .     S
C813   C815    1.405   .     A
C813   H838    1.075   .     S
C814   C817    1.405   .     A
C814   H837    1.075   .     S
C815   C818    1.414   .     A
C815   C820    1.432   .     A
C816   O844    1.288   .     A
C816   C827    1.426   .     S
C816   O846    1.304   .     A
C817   C819    1.414   .     A
C817   C821    1.432   .     A
C818   C374    1.384   1_556 S
C820   C823    1.430   .     A
C820   C371    1.437   1_556 S
C821   C822    1.430   .     A
C822   C824    1.386   .     A
C823   C825    1.386   .     A
C824   H835    1.085   .     S
C825   H836    1.085   .     S
C825   C369    1.384   1_556 S
C826   C527    1.336   1_565 S
C826   Cl529   1.764   1_565 S
C828   O847    1.304   .     A
C828   O849    1.310   .     A
Cl830  C527    1.764   1_565 S
Cl832  N892    1.715   .     S
Cu833  Cu834   2.717   .     S
Cu833  O846    1.951   .     S
Cu833  N842    2.042   .     S
Cu833  O847    1.954   .     S
Cu833  O843    1.971   .     S
Cu833  O850    1.945   .     S
Cu834  N841    2.042   .     S
Cu834  O845    1.951   .     S
Cu834  O848    1.954   .     S
Cu834  O844    1.971   .     S
Cu834  O849    1.945   .     S
H839   C859    1.084   .     S
N841   Cl881   1.715   .     S
N841   N892    1.283   .     S
Br852  C761    1.925   1_655 S
Br853  C872    1.919   .     S
Br854  C873    1.919   .     S
C855   O893    1.288   .     A
C855   C876    1.426   .     S
C855   O895    1.304   .     A
C856   O900    1.310   .     A
C856   O898    1.304   .     A
C856   C858    1.469   .     S
C857   C863    1.398   .     A
C857   C861    1.411   .     A
C857   C878    1.469   .     S
C858   C864    1.398   .     A
C858   C862    1.411   .     A
C859   C861    1.391   .     A
C859   C868    1.401   .     A
C860   C869    1.401   .     A
C860   C862    1.391   .     A
C860   H790    1.084   1_655 S
C862   Br751   1.925   1_655 S
C863   C865    1.405   .     A
C863   H888    1.075   .     S
C864   C867    1.405   .     A
C864   H887    1.075   .     S
C865   C868    1.414   .     A
C865   C870    1.432   .     A
C866   O894    1.288   .     A
C866   C877    1.426   .     S
C866   O896    1.304   .     A
C867   C869    1.414   .     A
C867   C871    1.432   .     A
C868   C424    1.384   1_556 S
C870   C873    1.430   .     A
C870   C421    1.437   1_556 S
C871   C872    1.430   .     A
C872   C874    1.386   .     A
C873   C875    1.386   .     A
C874   H885    1.085   .     S
C875   H886    1.085   .     S
C875   C419    1.384   1_556 S
C876   C577    1.336   1_565 S
C876   Cl579   1.764   1_565 S
C878   O897    1.304   .     A
C878   O899    1.310   .     A
Cl880  C577    1.764   1_565 S
Cl882  N792    1.715   1_655 S
Cu883  Cu884   2.717   .     S
Cu883  O896    1.951   .     S
Cu883  N892    2.042   .     S
Cu883  O897    1.954   .     S
Cu883  O893    1.971   .     S
Cu883  O900    1.945   .     S
Cu884  N891    2.042   .     S
Cu884  O895    1.951   .     S
Cu884  O898    1.954   .     S
Cu884  O894    1.971   .     S
Cu884  O899    1.945   .     S
H889   C759    1.084   1_655 S
N891   Cl781   1.715   1_655 S
N891   N792    1.283   1_655 S
