data_str_m1_o10_o16_pcu_sym.107
_audit_creation_date              2020-01-03
_audit_creation_method            'Materials Studio'
_symmetry_space_group_name_H-M    'P1'
_symmetry_Int_Tables_number       1
_symmetry_cell_setting            triclinic
loop_
_symmetry_equiv_pos_as_xyz
  x,y,z
_cell_length_a                    32.5129
_cell_length_b                    32.7578
_cell_length_c                    30.8473
_cell_angle_alpha                 97.6098
_cell_angle_beta                  74.7791
_cell_angle_gamma                 98.8028
loop_
_atom_site_label
_atom_site_type_symbol
_atom_site_fract_x
_atom_site_fract_y
_atom_site_fract_z
_atom_site_U_iso_or_equiv
_atom_site_adp_type
_atom_site_occupancy
Br1    Br    0.22336   0.06222   0.09054   0.00000  Uiso   1.00
Br2    Br    0.23549   0.01505   0.20643   0.00000  Uiso   1.00
Br3    Br    0.18451   0.04381   0.42234   0.00000  Uiso   1.00
Br4    Br    0.10125   0.26778   0.41852   0.00000  Uiso   1.00
Br5    Br    0.20869   0.25607   0.03247   0.00000  Uiso   1.00
Br6    Br    0.13626   0.30477   0.00889   0.00000  Uiso   1.00
Br7    Br    0.11384   0.09410   0.39777   0.00000  Uiso   1.00
C8     C     0.05263   0.15958   0.25991   0.00000  Uiso   1.00
C9     C     0.17954   0.16509   0.05644   0.00000  Uiso   1.00
C10    C     0.20538   0.10029   0.05902   0.00000  Uiso   1.00
C11    C     0.28070   0.17387   0.24007   0.00000  Uiso   1.00
C12    C     0.14160   0.19384   0.42117   0.00000  Uiso   1.00
C13    C     0.32657   0.17695   0.23639   0.00000  Uiso   1.00
C14    C     0.00738   0.15693   0.26351   0.00000  Uiso   1.00
C15    C     0.18093   0.32269   0.24011   0.00000  Uiso   1.00
C16    C     0.14923   0.01226   0.26281   0.00000  Uiso   1.00
C17    C     0.15607   0.05601   0.25963   0.00000  Uiso   1.00
C18    C     0.17624   0.27787   0.24055   0.00000  Uiso   1.00
C19    C     0.14598   0.24957   0.48109   0.00000  Uiso   1.00
C20    C     0.18517   0.14771   0.12916   0.00000  Uiso   1.00
C21    C     0.14790   0.18451   0.37140   0.00000  Uiso   1.00
C22    C     0.20295   0.08842   0.01455   0.00000  Uiso   1.00
C23    C     0.19220   0.13828   0.08044   0.00000  Uiso   1.00
C24    C     0.13180   0.23355   0.44234   0.00000  Uiso   1.00
C25    C     0.16878   0.22597   0.49901   0.00000  Uiso   1.00
C26    C     0.16774   0.18265   0.48575   0.00000  Uiso   1.00
C27    C     0.15388   0.16635   0.44618   0.00000  Uiso   1.00
C28    C     0.17974   0.15498   0.01066   0.00000  Uiso   1.00
C29    C     0.18749   0.11430   0.49099   0.00000  Uiso   1.00
C30    C     0.17529   0.09900   0.45078   0.00000  Uiso   1.00
C31    C     0.15319   0.12313   0.43251   0.00000  Uiso   1.00
H32    H     0.31907   0.13793   0.28839   0.00000  Uiso   1.00
H33    H     0.21088   0.05790   0.49993   0.00000  Uiso   1.00
H34    H     0.16562   0.19205   0.07516   0.00000  Uiso   1.00
H35    H     0.01560   0.19553   0.21152   0.00000  Uiso   1.00
H36    H     0.03502   0.01820   0.31482   0.00000  Uiso   1.00
O37    O     0.16667   0.16667   0.25000   0.00000  Uiso   1.00
O38    O     0.15451   0.12637   0.15458   0.00000  Uiso   1.00
O39    O     0.12940   0.20391   0.34968   0.00000  Uiso   1.00
O40    O     0.20824   0.17759   0.14606   0.00000  Uiso   1.00
O41    O     0.17451   0.15880   0.34968   0.00000  Uiso   1.00
O42    O     0.07835   0.29272   0.25620   0.00000  Uiso   1.00
O43    O     0.09324   0.30836   0.33115   0.00000  Uiso   1.00
O44    O     0.06400   0.03120   0.29995   0.00000  Uiso   1.00
O45    O     0.17930   0.08019   0.28213   0.00000  Uiso   1.00
O46    O     0.14632   0.26085   0.27013   0.00000  Uiso   1.00
O47    O     0.07412   0.13291   0.23413   0.00000  Uiso   1.00
O48    O     0.26693   0.19272   0.21360   0.00000  Uiso   1.00
O49    O     0.07071   0.18878   0.28213   0.00000  Uiso   1.00
O50    O     0.25491   0.15226   0.27013   0.00000  Uiso   1.00
O51    O     0.13760   0.06944   0.23413   0.00000  Uiso   1.00
O52    O     0.20345   0.25620   0.21360   0.00000  Uiso   1.00
S53    S     0.09515   0.32594   0.28800   0.00000  Uiso   1.00
Zn54   Zn    0.19338   0.13994   0.28734   0.00000  Uiso   1.00
Zn55   Zn    0.13379   0.12458   0.21875   0.00000  Uiso   1.00
Zn56   Zn    0.21056   0.19775   0.20657   0.00000  Uiso   1.00
Zn57   Zn    0.12893   0.20439   0.28733   0.00000  Uiso   1.00
Br58   Br    0.55669   0.06222   0.09054   0.00000  Uiso   1.00
Br59   Br    0.56882   0.01505   0.20643   0.00000  Uiso   1.00
Br60   Br    0.51785   0.04381   0.42234   0.00000  Uiso   1.00
Br61   Br    0.43458   0.26778   0.41852   0.00000  Uiso   1.00
Br62   Br    0.54202   0.25607   0.03247   0.00000  Uiso   1.00
Br63   Br    0.46959   0.30477   0.00889   0.00000  Uiso   1.00
Br64   Br    0.44717   0.09410   0.39777   0.00000  Uiso   1.00
C65    C     0.38597   0.15958   0.25991   0.00000  Uiso   1.00
C66    C     0.51287   0.16509   0.05644   0.00000  Uiso   1.00
C67    C     0.53871   0.10029   0.05902   0.00000  Uiso   1.00
C68    C     0.61403   0.17387   0.24007   0.00000  Uiso   1.00
C69    C     0.47493   0.19384   0.42117   0.00000  Uiso   1.00
C70    C     0.65990   0.17695   0.23639   0.00000  Uiso   1.00
C71    C     0.34071   0.15693   0.26351   0.00000  Uiso   1.00
C72    C     0.51426   0.32269   0.24011   0.00000  Uiso   1.00
C73    C     0.48256   0.01226   0.26281   0.00000  Uiso   1.00
C74    C     0.48940   0.05601   0.25963   0.00000  Uiso   1.00
C75    C     0.50958   0.27787   0.24055   0.00000  Uiso   1.00
C76    C     0.47932   0.24957   0.48109   0.00000  Uiso   1.00
C77    C     0.51851   0.14771   0.12916   0.00000  Uiso   1.00
C78    C     0.48123   0.18451   0.37140   0.00000  Uiso   1.00
C79    C     0.53629   0.08842   0.01455   0.00000  Uiso   1.00
C80    C     0.52553   0.13828   0.08044   0.00000  Uiso   1.00
C81    C     0.46514   0.23355   0.44234   0.00000  Uiso   1.00
C82    C     0.50211   0.22597   0.49901   0.00000  Uiso   1.00
C83    C     0.50108   0.18265   0.48575   0.00000  Uiso   1.00
C84    C     0.48721   0.16635   0.44618   0.00000  Uiso   1.00
C85    C     0.51307   0.15498   0.01066   0.00000  Uiso   1.00
C86    C     0.52082   0.11430   0.49099   0.00000  Uiso   1.00
C87    C     0.50862   0.09900   0.45078   0.00000  Uiso   1.00
C88    C     0.48652   0.12313   0.43251   0.00000  Uiso   1.00
H89    H     0.65241   0.13793   0.28839   0.00000  Uiso   1.00
H90    H     0.54421   0.05790   0.49993   0.00000  Uiso   1.00
H91    H     0.49895   0.19205   0.07516   0.00000  Uiso   1.00
H92    H     0.34893   0.19553   0.21152   0.00000  Uiso   1.00
H93    H     0.36836   0.01820   0.31482   0.00000  Uiso   1.00
O94    O     0.50000   0.16667   0.25000   0.00000  Uiso   1.00
O95    O     0.48784   0.12637   0.15458   0.00000  Uiso   1.00
O96    O     0.46274   0.20391   0.34968   0.00000  Uiso   1.00
O97    O     0.54157   0.17759   0.14606   0.00000  Uiso   1.00
O98    O     0.50785   0.15880   0.34968   0.00000  Uiso   1.00
O99    O     0.41169   0.29272   0.25620   0.00000  Uiso   1.00
O100   O     0.42657   0.30836   0.33115   0.00000  Uiso   1.00
O101   O     0.39733   0.03120   0.29995   0.00000  Uiso   1.00
O102   O     0.51264   0.08019   0.28213   0.00000  Uiso   1.00
O103   O     0.47965   0.26085   0.27013   0.00000  Uiso   1.00
O104   O     0.40745   0.13291   0.23413   0.00000  Uiso   1.00
O105   O     0.60026   0.19272   0.21360   0.00000  Uiso   1.00
O106   O     0.40405   0.18878   0.28213   0.00000  Uiso   1.00
O107   O     0.58824   0.15226   0.27013   0.00000  Uiso   1.00
O108   O     0.47093   0.06944   0.23413   0.00000  Uiso   1.00
O109   O     0.53678   0.25620   0.21360   0.00000  Uiso   1.00
S110   S     0.42848   0.32594   0.28800   0.00000  Uiso   1.00
Zn111  Zn    0.52672   0.13994   0.28734   0.00000  Uiso   1.00
Zn112  Zn    0.46713   0.12458   0.21875   0.00000  Uiso   1.00
Zn113  Zn    0.54389   0.19775   0.20657   0.00000  Uiso   1.00
Zn114  Zn    0.46226   0.20439   0.28733   0.00000  Uiso   1.00
Br115  Br    0.89002   0.06222   0.09054   0.00000  Uiso   1.00
Br116  Br    0.90216   0.01505   0.20643   0.00000  Uiso   1.00
Br117  Br    0.85118   0.04381   0.42234   0.00000  Uiso   1.00
Br118  Br    0.76791   0.26778   0.41852   0.00000  Uiso   1.00
Br119  Br    0.87535   0.25607   0.03247   0.00000  Uiso   1.00
Br120  Br    0.80292   0.30477   0.00889   0.00000  Uiso   1.00
Br121  Br    0.78051   0.09410   0.39777   0.00000  Uiso   1.00
C122   C     0.71930   0.15958   0.25991   0.00000  Uiso   1.00
C123   C     0.84621   0.16509   0.05644   0.00000  Uiso   1.00
C124   C     0.87205   0.10029   0.05902   0.00000  Uiso   1.00
C125   C     0.94737   0.17387   0.24007   0.00000  Uiso   1.00
C126   C     0.80826   0.19384   0.42117   0.00000  Uiso   1.00
C127   C     0.99324   0.17695   0.23639   0.00000  Uiso   1.00
C128   C     0.67404   0.15693   0.26351   0.00000  Uiso   1.00
C129   C     0.84759   0.32269   0.24011   0.00000  Uiso   1.00
C130   C     0.81590   0.01226   0.26281   0.00000  Uiso   1.00
C131   C     0.82274   0.05601   0.25963   0.00000  Uiso   1.00
C132   C     0.84291   0.27787   0.24055   0.00000  Uiso   1.00
C133   C     0.81265   0.24957   0.48109   0.00000  Uiso   1.00
C134   C     0.85184   0.14771   0.12916   0.00000  Uiso   1.00
C135   C     0.81456   0.18451   0.37140   0.00000  Uiso   1.00
C136   C     0.86962   0.08842   0.01455   0.00000  Uiso   1.00
C137   C     0.85886   0.13828   0.08044   0.00000  Uiso   1.00
C138   C     0.79847   0.23355   0.44234   0.00000  Uiso   1.00
C139   C     0.83545   0.22597   0.49901   0.00000  Uiso   1.00
C140   C     0.83441   0.18265   0.48575   0.00000  Uiso   1.00
C141   C     0.82055   0.16635   0.44618   0.00000  Uiso   1.00
C142   C     0.84641   0.15498   0.01066   0.00000  Uiso   1.00
C143   C     0.85416   0.11430   0.49099   0.00000  Uiso   1.00
C144   C     0.84195   0.09900   0.45078   0.00000  Uiso   1.00
C145   C     0.81985   0.12313   0.43251   0.00000  Uiso   1.00
H146   H     0.98574   0.13793   0.28839   0.00000  Uiso   1.00
H147   H     0.87755   0.05790   0.49993   0.00000  Uiso   1.00
H148   H     0.83229   0.19205   0.07516   0.00000  Uiso   1.00
H149   H     0.68227   0.19553   0.21152   0.00000  Uiso   1.00
H150   H     0.70169   0.01820   0.31482   0.00000  Uiso   1.00
O151   O     0.83333   0.16667   0.25000   0.00000  Uiso   1.00
O152   O     0.82118   0.12637   0.15458   0.00000  Uiso   1.00
O153   O     0.79607   0.20391   0.34968   0.00000  Uiso   1.00
O154   O     0.87491   0.17759   0.14606   0.00000  Uiso   1.00
O155   O     0.84118   0.15880   0.34968   0.00000  Uiso   1.00
O156   O     0.74502   0.29272   0.25620   0.00000  Uiso   1.00
O157   O     0.75990   0.30836   0.33115   0.00000  Uiso   1.00
O158   O     0.73067   0.03120   0.29995   0.00000  Uiso   1.00
O159   O     0.84597   0.08019   0.28213   0.00000  Uiso   1.00
O160   O     0.81298   0.26085   0.27013   0.00000  Uiso   1.00
O161   O     0.74078   0.13291   0.23413   0.00000  Uiso   1.00
O162   O     0.93360   0.19272   0.21360   0.00000  Uiso   1.00
O163   O     0.73738   0.18878   0.28213   0.00000  Uiso   1.00
O164   O     0.92158   0.15226   0.27013   0.00000  Uiso   1.00
O165   O     0.80426   0.06944   0.23413   0.00000  Uiso   1.00
O166   O     0.87012   0.25620   0.21360   0.00000  Uiso   1.00
S167   S     0.76182   0.32594   0.28800   0.00000  Uiso   1.00
Zn168  Zn    0.86005   0.13994   0.28734   0.00000  Uiso   1.00
Zn169  Zn    0.80046   0.12458   0.21875   0.00000  Uiso   1.00
Zn170  Zn    0.87723   0.19775   0.20657   0.00000  Uiso   1.00
Zn171  Zn    0.79560   0.20439   0.28733   0.00000  Uiso   1.00
Br172  Br    0.22336   0.39556   0.09054   0.00000  Uiso   1.00
Br173  Br    0.23549   0.34839   0.20643   0.00000  Uiso   1.00
Br174  Br    0.18451   0.37715   0.42234   0.00000  Uiso   1.00
Br175  Br    0.10125   0.60111   0.41852   0.00000  Uiso   1.00
Br176  Br    0.20869   0.58940   0.03247   0.00000  Uiso   1.00
Br177  Br    0.13626   0.63810   0.00889   0.00000  Uiso   1.00
Br178  Br    0.11384   0.42744   0.39777   0.00000  Uiso   1.00
C179   C     0.05263   0.49291   0.25991   0.00000  Uiso   1.00
C180   C     0.17954   0.49843   0.05644   0.00000  Uiso   1.00
C181   C     0.20538   0.43363   0.05902   0.00000  Uiso   1.00
C182   C     0.28070   0.50720   0.24007   0.00000  Uiso   1.00
C183   C     0.14160   0.52717   0.42117   0.00000  Uiso   1.00
C184   C     0.32657   0.51028   0.23639   0.00000  Uiso   1.00
C185   C     0.00738   0.49026   0.26351   0.00000  Uiso   1.00
C186   C     0.18093   0.65603   0.24011   0.00000  Uiso   1.00
C187   C     0.14923   0.34559   0.26281   0.00000  Uiso   1.00
C188   C     0.15607   0.38934   0.25963   0.00000  Uiso   1.00
C189   C     0.17624   0.61121   0.24055   0.00000  Uiso   1.00
C190   C     0.14598   0.58290   0.48109   0.00000  Uiso   1.00
C191   C     0.18517   0.48104   0.12916   0.00000  Uiso   1.00
C192   C     0.14790   0.51785   0.37140   0.00000  Uiso   1.00
C193   C     0.20295   0.42176   0.01455   0.00000  Uiso   1.00
C194   C     0.19220   0.47161   0.08044   0.00000  Uiso   1.00
C195   C     0.13180   0.56688   0.44234   0.00000  Uiso   1.00
C196   C     0.16878   0.55931   0.49901   0.00000  Uiso   1.00
C197   C     0.16774   0.51599   0.48575   0.00000  Uiso   1.00
C198   C     0.15388   0.49968   0.44618   0.00000  Uiso   1.00
C199   C     0.17974   0.48831   0.01066   0.00000  Uiso   1.00
C200   C     0.18749   0.44764   0.49099   0.00000  Uiso   1.00
C201   C     0.17529   0.43233   0.45078   0.00000  Uiso   1.00
C202   C     0.15319   0.45646   0.43251   0.00000  Uiso   1.00
H203   H     0.31907   0.47126   0.28839   0.00000  Uiso   1.00
H204   H     0.21088   0.39124   0.49993   0.00000  Uiso   1.00
H205   H     0.16562   0.52538   0.07516   0.00000  Uiso   1.00
H206   H     0.01560   0.52887   0.21152   0.00000  Uiso   1.00
H207   H     0.03502   0.35153   0.31482   0.00000  Uiso   1.00
O208   O     0.16667   0.50000   0.25000   0.00000  Uiso   1.00
O209   O     0.15451   0.45970   0.15458   0.00000  Uiso   1.00
O210   O     0.12940   0.53724   0.34968   0.00000  Uiso   1.00
O211   O     0.20824   0.51092   0.14606   0.00000  Uiso   1.00
O212   O     0.17451   0.49213   0.34968   0.00000  Uiso   1.00
O213   O     0.07835   0.62605   0.25620   0.00000  Uiso   1.00
O214   O     0.09324   0.64169   0.33115   0.00000  Uiso   1.00
O215   O     0.06400   0.36453   0.29995   0.00000  Uiso   1.00
O216   O     0.17930   0.41352   0.28213   0.00000  Uiso   1.00
O217   O     0.14632   0.59418   0.27013   0.00000  Uiso   1.00
O218   O     0.07412   0.46625   0.23413   0.00000  Uiso   1.00
O219   O     0.26693   0.52605   0.21360   0.00000  Uiso   1.00
O220   O     0.07071   0.52211   0.28213   0.00000  Uiso   1.00
O221   O     0.25491   0.48559   0.27013   0.00000  Uiso   1.00
O222   O     0.13760   0.40277   0.23413   0.00000  Uiso   1.00
O223   O     0.20345   0.58953   0.21360   0.00000  Uiso   1.00
S224   S     0.09515   0.65927   0.28800   0.00000  Uiso   1.00
Zn225  Zn    0.19338   0.47327   0.28734   0.00000  Uiso   1.00
Zn226  Zn    0.13379   0.45791   0.21875   0.00000  Uiso   1.00
Zn227  Zn    0.21056   0.53109   0.20657   0.00000  Uiso   1.00
Zn228  Zn    0.12893   0.53773   0.28733   0.00000  Uiso   1.00
Br229  Br    0.55669   0.39556   0.09054   0.00000  Uiso   1.00
Br230  Br    0.56882   0.34839   0.20643   0.00000  Uiso   1.00
Br231  Br    0.51785   0.37715   0.42234   0.00000  Uiso   1.00
Br232  Br    0.43458   0.60111   0.41852   0.00000  Uiso   1.00
Br233  Br    0.54202   0.58940   0.03247   0.00000  Uiso   1.00
Br234  Br    0.46959   0.63810   0.00889   0.00000  Uiso   1.00
Br235  Br    0.44717   0.42744   0.39777   0.00000  Uiso   1.00
C236   C     0.38597   0.49291   0.25991   0.00000  Uiso   1.00
C237   C     0.51287   0.49843   0.05644   0.00000  Uiso   1.00
C238   C     0.53871   0.43363   0.05902   0.00000  Uiso   1.00
C239   C     0.61403   0.50720   0.24007   0.00000  Uiso   1.00
C240   C     0.47493   0.52717   0.42117   0.00000  Uiso   1.00
C241   C     0.65990   0.51028   0.23639   0.00000  Uiso   1.00
C242   C     0.34071   0.49026   0.26351   0.00000  Uiso   1.00
C243   C     0.51426   0.65603   0.24011   0.00000  Uiso   1.00
C244   C     0.48256   0.34559   0.26281   0.00000  Uiso   1.00
C245   C     0.48940   0.38934   0.25963   0.00000  Uiso   1.00
C246   C     0.50958   0.61121   0.24055   0.00000  Uiso   1.00
C247   C     0.47932   0.58290   0.48109   0.00000  Uiso   1.00
C248   C     0.51851   0.48104   0.12916   0.00000  Uiso   1.00
C249   C     0.48123   0.51785   0.37140   0.00000  Uiso   1.00
C250   C     0.53629   0.42176   0.01455   0.00000  Uiso   1.00
C251   C     0.52553   0.47161   0.08044   0.00000  Uiso   1.00
C252   C     0.46514   0.56688   0.44234   0.00000  Uiso   1.00
C253   C     0.50211   0.55931   0.49901   0.00000  Uiso   1.00
C254   C     0.50108   0.51599   0.48575   0.00000  Uiso   1.00
C255   C     0.48721   0.49968   0.44618   0.00000  Uiso   1.00
C256   C     0.51307   0.48831   0.01066   0.00000  Uiso   1.00
C257   C     0.52082   0.44764   0.49099   0.00000  Uiso   1.00
C258   C     0.50862   0.43233   0.45078   0.00000  Uiso   1.00
C259   C     0.48652   0.45646   0.43251   0.00000  Uiso   1.00
H260   H     0.65241   0.47126   0.28839   0.00000  Uiso   1.00
H261   H     0.54421   0.39124   0.49993   0.00000  Uiso   1.00
H262   H     0.49895   0.52538   0.07516   0.00000  Uiso   1.00
H263   H     0.34893   0.52887   0.21152   0.00000  Uiso   1.00
H264   H     0.36836   0.35153   0.31482   0.00000  Uiso   1.00
O265   O     0.50000   0.50000   0.25000   0.00000  Uiso   1.00
O266   O     0.48784   0.45970   0.15458   0.00000  Uiso   1.00
O267   O     0.46274   0.53724   0.34968   0.00000  Uiso   1.00
O268   O     0.54157   0.51092   0.14606   0.00000  Uiso   1.00
O269   O     0.50785   0.49213   0.34968   0.00000  Uiso   1.00
O270   O     0.41169   0.62605   0.25620   0.00000  Uiso   1.00
O271   O     0.42657   0.64169   0.33115   0.00000  Uiso   1.00
O272   O     0.39733   0.36453   0.29995   0.00000  Uiso   1.00
O273   O     0.51264   0.41352   0.28213   0.00000  Uiso   1.00
O274   O     0.47965   0.59418   0.27013   0.00000  Uiso   1.00
O275   O     0.40745   0.46625   0.23413   0.00000  Uiso   1.00
O276   O     0.60026   0.52605   0.21360   0.00000  Uiso   1.00
O277   O     0.40405   0.52211   0.28213   0.00000  Uiso   1.00
O278   O     0.58824   0.48559   0.27013   0.00000  Uiso   1.00
O279   O     0.47093   0.40277   0.23413   0.00000  Uiso   1.00
O280   O     0.53678   0.58953   0.21360   0.00000  Uiso   1.00
S281   S     0.42848   0.65927   0.28800   0.00000  Uiso   1.00
Zn282  Zn    0.52672   0.47327   0.28734   0.00000  Uiso   1.00
Zn283  Zn    0.46713   0.45791   0.21875   0.00000  Uiso   1.00
Zn284  Zn    0.54389   0.53109   0.20657   0.00000  Uiso   1.00
Zn285  Zn    0.46226   0.53773   0.28733   0.00000  Uiso   1.00
Br286  Br    0.89002   0.39556   0.09054   0.00000  Uiso   1.00
Br287  Br    0.90216   0.34839   0.20643   0.00000  Uiso   1.00
Br288  Br    0.85118   0.37715   0.42234   0.00000  Uiso   1.00
Br289  Br    0.76791   0.60111   0.41852   0.00000  Uiso   1.00
Br290  Br    0.87535   0.58940   0.03247   0.00000  Uiso   1.00
Br291  Br    0.80292   0.63810   0.00889   0.00000  Uiso   1.00
Br292  Br    0.78051   0.42744   0.39777   0.00000  Uiso   1.00
C293   C     0.71930   0.49291   0.25991   0.00000  Uiso   1.00
C294   C     0.84621   0.49843   0.05644   0.00000  Uiso   1.00
C295   C     0.87205   0.43363   0.05902   0.00000  Uiso   1.00
C296   C     0.94737   0.50720   0.24007   0.00000  Uiso   1.00
C297   C     0.80826   0.52717   0.42117   0.00000  Uiso   1.00
C298   C     0.99324   0.51028   0.23639   0.00000  Uiso   1.00
C299   C     0.67404   0.49026   0.26351   0.00000  Uiso   1.00
C300   C     0.84759   0.65603   0.24011   0.00000  Uiso   1.00
C301   C     0.81590   0.34559   0.26281   0.00000  Uiso   1.00
C302   C     0.82274   0.38934   0.25963   0.00000  Uiso   1.00
C303   C     0.84291   0.61121   0.24055   0.00000  Uiso   1.00
C304   C     0.81265   0.58290   0.48109   0.00000  Uiso   1.00
C305   C     0.85184   0.48104   0.12916   0.00000  Uiso   1.00
C306   C     0.81456   0.51785   0.37140   0.00000  Uiso   1.00
C307   C     0.86962   0.42176   0.01455   0.00000  Uiso   1.00
C308   C     0.85886   0.47161   0.08044   0.00000  Uiso   1.00
C309   C     0.79847   0.56688   0.44234   0.00000  Uiso   1.00
C310   C     0.83545   0.55931   0.49901   0.00000  Uiso   1.00
C311   C     0.83441   0.51599   0.48575   0.00000  Uiso   1.00
C312   C     0.82055   0.49968   0.44618   0.00000  Uiso   1.00
C313   C     0.84641   0.48831   0.01066   0.00000  Uiso   1.00
C314   C     0.85416   0.44764   0.49099   0.00000  Uiso   1.00
C315   C     0.84195   0.43233   0.45078   0.00000  Uiso   1.00
C316   C     0.81985   0.45646   0.43251   0.00000  Uiso   1.00
H317   H     0.98574   0.47126   0.28839   0.00000  Uiso   1.00
H318   H     0.87755   0.39124   0.49993   0.00000  Uiso   1.00
H319   H     0.83229   0.52538   0.07516   0.00000  Uiso   1.00
H320   H     0.68227   0.52887   0.21152   0.00000  Uiso   1.00
H321   H     0.70169   0.35153   0.31482   0.00000  Uiso   1.00
O322   O     0.83333   0.50000   0.25000   0.00000  Uiso   1.00
O323   O     0.82118   0.45970   0.15458   0.00000  Uiso   1.00
O324   O     0.79607   0.53724   0.34968   0.00000  Uiso   1.00
O325   O     0.87491   0.51092   0.14606   0.00000  Uiso   1.00
O326   O     0.84118   0.49213   0.34968   0.00000  Uiso   1.00
O327   O     0.74502   0.62605   0.25620   0.00000  Uiso   1.00
O328   O     0.75990   0.64169   0.33115   0.00000  Uiso   1.00
O329   O     0.73067   0.36453   0.29995   0.00000  Uiso   1.00
O330   O     0.84597   0.41352   0.28213   0.00000  Uiso   1.00
O331   O     0.81298   0.59418   0.27013   0.00000  Uiso   1.00
O332   O     0.74078   0.46625   0.23413   0.00000  Uiso   1.00
O333   O     0.93360   0.52605   0.21360   0.00000  Uiso   1.00
O334   O     0.73738   0.52211   0.28213   0.00000  Uiso   1.00
O335   O     0.92158   0.48559   0.27013   0.00000  Uiso   1.00
O336   O     0.80426   0.40277   0.23413   0.00000  Uiso   1.00
O337   O     0.87012   0.58953   0.21360   0.00000  Uiso   1.00
S338   S     0.76182   0.65927   0.28800   0.00000  Uiso   1.00
Zn339  Zn    0.86005   0.47327   0.28734   0.00000  Uiso   1.00
Zn340  Zn    0.80046   0.45791   0.21875   0.00000  Uiso   1.00
Zn341  Zn    0.87723   0.53109   0.20657   0.00000  Uiso   1.00
Zn342  Zn    0.79560   0.53773   0.28733   0.00000  Uiso   1.00
Br343  Br    0.22336   0.72889   0.09054   0.00000  Uiso   1.00
Br344  Br    0.23549   0.68172   0.20643   0.00000  Uiso   1.00
Br345  Br    0.18451   0.71048   0.42234   0.00000  Uiso   1.00
Br346  Br    0.10125   0.93444   0.41852   0.00000  Uiso   1.00
Br347  Br    0.20869   0.92273   0.03247   0.00000  Uiso   1.00
Br348  Br    0.13626   0.97143   0.00889   0.00000  Uiso   1.00
Br349  Br    0.11384   0.76077   0.39777   0.00000  Uiso   1.00
C350   C     0.05263   0.82625   0.25991   0.00000  Uiso   1.00
C351   C     0.17954   0.83176   0.05644   0.00000  Uiso   1.00
C352   C     0.20538   0.76696   0.05902   0.00000  Uiso   1.00
C353   C     0.28070   0.84053   0.24007   0.00000  Uiso   1.00
C354   C     0.14160   0.86050   0.42117   0.00000  Uiso   1.00
C355   C     0.32657   0.84362   0.23639   0.00000  Uiso   1.00
C356   C     0.00738   0.82359   0.26351   0.00000  Uiso   1.00
C357   C     0.18093   0.98936   0.24011   0.00000  Uiso   1.00
C358   C     0.14923   0.67892   0.26281   0.00000  Uiso   1.00
C359   C     0.15607   0.72267   0.25963   0.00000  Uiso   1.00
C360   C     0.17624   0.94454   0.24055   0.00000  Uiso   1.00
C361   C     0.14598   0.91624   0.48109   0.00000  Uiso   1.00
C362   C     0.18517   0.81438   0.12916   0.00000  Uiso   1.00
C363   C     0.14790   0.85118   0.37140   0.00000  Uiso   1.00
C364   C     0.20295   0.75509   0.01455   0.00000  Uiso   1.00
C365   C     0.19220   0.80495   0.08044   0.00000  Uiso   1.00
C366   C     0.13180   0.90021   0.44234   0.00000  Uiso   1.00
C367   C     0.16878   0.89264   0.49901   0.00000  Uiso   1.00
C368   C     0.16774   0.84932   0.48575   0.00000  Uiso   1.00
C369   C     0.15388   0.83301   0.44618   0.00000  Uiso   1.00
C370   C     0.17974   0.82164   0.01066   0.00000  Uiso   1.00
C371   C     0.18749   0.78097   0.49099   0.00000  Uiso   1.00
C372   C     0.17529   0.76566   0.45078   0.00000  Uiso   1.00
C373   C     0.15319   0.78980   0.43251   0.00000  Uiso   1.00
H374   H     0.31907   0.80459   0.28839   0.00000  Uiso   1.00
H375   H     0.21088   0.72457   0.49993   0.00000  Uiso   1.00
H376   H     0.16562   0.85872   0.07516   0.00000  Uiso   1.00
H377   H     0.01560   0.86220   0.21152   0.00000  Uiso   1.00
H378   H     0.03502   0.68487   0.31482   0.00000  Uiso   1.00
O379   O     0.16667   0.83333   0.25000   0.00000  Uiso   1.00
O380   O     0.15451   0.79304   0.15458   0.00000  Uiso   1.00
O381   O     0.12940   0.87058   0.34968   0.00000  Uiso   1.00
O382   O     0.20824   0.84425   0.14606   0.00000  Uiso   1.00
O383   O     0.17451   0.82546   0.34968   0.00000  Uiso   1.00
O384   O     0.07835   0.95938   0.25620   0.00000  Uiso   1.00
O385   O     0.09324   0.97502   0.33115   0.00000  Uiso   1.00
O386   O     0.06400   0.69787   0.29995   0.00000  Uiso   1.00
O387   O     0.17930   0.74686   0.28213   0.00000  Uiso   1.00
O388   O     0.14632   0.92751   0.27013   0.00000  Uiso   1.00
O389   O     0.07412   0.79958   0.23413   0.00000  Uiso   1.00
O390   O     0.26693   0.85939   0.21360   0.00000  Uiso   1.00
O391   O     0.07071   0.85544   0.28213   0.00000  Uiso   1.00
O392   O     0.25491   0.81892   0.27013   0.00000  Uiso   1.00
O393   O     0.13760   0.73610   0.23413   0.00000  Uiso   1.00
O394   O     0.20345   0.92286   0.21360   0.00000  Uiso   1.00
S395   S     0.09515   0.99261   0.28800   0.00000  Uiso   1.00
Zn396  Zn    0.19338   0.80661   0.28734   0.00000  Uiso   1.00
Zn397  Zn    0.13379   0.79124   0.21875   0.00000  Uiso   1.00
Zn398  Zn    0.21056   0.86442   0.20657   0.00000  Uiso   1.00
Zn399  Zn    0.12893   0.87106   0.28733   0.00000  Uiso   1.00
Br400  Br    0.55669   0.72889   0.09054   0.00000  Uiso   1.00
Br401  Br    0.56882   0.68172   0.20643   0.00000  Uiso   1.00
Br402  Br    0.51785   0.71048   0.42234   0.00000  Uiso   1.00
Br403  Br    0.43458   0.93444   0.41852   0.00000  Uiso   1.00
Br404  Br    0.54202   0.92273   0.03247   0.00000  Uiso   1.00
Br405  Br    0.46959   0.97143   0.00889   0.00000  Uiso   1.00
Br406  Br    0.44717   0.76077   0.39777   0.00000  Uiso   1.00
C407   C     0.38597   0.82625   0.25991   0.00000  Uiso   1.00
C408   C     0.51287   0.83176   0.05644   0.00000  Uiso   1.00
C409   C     0.53871   0.76696   0.05902   0.00000  Uiso   1.00
C410   C     0.61403   0.84053   0.24007   0.00000  Uiso   1.00
C411   C     0.47493   0.86050   0.42117   0.00000  Uiso   1.00
C412   C     0.65990   0.84362   0.23639   0.00000  Uiso   1.00
C413   C     0.34071   0.82359   0.26351   0.00000  Uiso   1.00
C414   C     0.51426   0.98936   0.24011   0.00000  Uiso   1.00
C415   C     0.48256   0.67892   0.26281   0.00000  Uiso   1.00
C416   C     0.48940   0.72267   0.25963   0.00000  Uiso   1.00
C417   C     0.50958   0.94454   0.24055   0.00000  Uiso   1.00
C418   C     0.47932   0.91624   0.48109   0.00000  Uiso   1.00
C419   C     0.51851   0.81438   0.12916   0.00000  Uiso   1.00
C420   C     0.48123   0.85118   0.37140   0.00000  Uiso   1.00
C421   C     0.53629   0.75509   0.01455   0.00000  Uiso   1.00
C422   C     0.52553   0.80495   0.08044   0.00000  Uiso   1.00
C423   C     0.46514   0.90021   0.44234   0.00000  Uiso   1.00
C424   C     0.50211   0.89264   0.49901   0.00000  Uiso   1.00
C425   C     0.50108   0.84932   0.48575   0.00000  Uiso   1.00
C426   C     0.48721   0.83301   0.44618   0.00000  Uiso   1.00
C427   C     0.51307   0.82164   0.01066   0.00000  Uiso   1.00
C428   C     0.52082   0.78097   0.49099   0.00000  Uiso   1.00
C429   C     0.50862   0.76566   0.45078   0.00000  Uiso   1.00
C430   C     0.48652   0.78980   0.43251   0.00000  Uiso   1.00
H431   H     0.65241   0.80459   0.28839   0.00000  Uiso   1.00
H432   H     0.54421   0.72457   0.49993   0.00000  Uiso   1.00
H433   H     0.49895   0.85872   0.07516   0.00000  Uiso   1.00
H434   H     0.34893   0.86220   0.21152   0.00000  Uiso   1.00
H435   H     0.36836   0.68487   0.31482   0.00000  Uiso   1.00
O436   O     0.50000   0.83333   0.25000   0.00000  Uiso   1.00
O437   O     0.48784   0.79304   0.15458   0.00000  Uiso   1.00
O438   O     0.46274   0.87058   0.34968   0.00000  Uiso   1.00
O439   O     0.54157   0.84425   0.14606   0.00000  Uiso   1.00
O440   O     0.50785   0.82546   0.34968   0.00000  Uiso   1.00
O441   O     0.41169   0.95938   0.25620   0.00000  Uiso   1.00
O442   O     0.42657   0.97502   0.33115   0.00000  Uiso   1.00
O443   O     0.39733   0.69787   0.29995   0.00000  Uiso   1.00
O444   O     0.51264   0.74686   0.28213   0.00000  Uiso   1.00
O445   O     0.47965   0.92751   0.27013   0.00000  Uiso   1.00
O446   O     0.40745   0.79958   0.23413   0.00000  Uiso   1.00
O447   O     0.60026   0.85939   0.21360   0.00000  Uiso   1.00
O448   O     0.40405   0.85544   0.28213   0.00000  Uiso   1.00
O449   O     0.58824   0.81892   0.27013   0.00000  Uiso   1.00
O450   O     0.47093   0.73610   0.23413   0.00000  Uiso   1.00
O451   O     0.53678   0.92286   0.21360   0.00000  Uiso   1.00
S452   S     0.42848   0.99261   0.28800   0.00000  Uiso   1.00
Zn453  Zn    0.52672   0.80661   0.28734   0.00000  Uiso   1.00
Zn454  Zn    0.46713   0.79124   0.21875   0.00000  Uiso   1.00
Zn455  Zn    0.54389   0.86442   0.20657   0.00000  Uiso   1.00
Zn456  Zn    0.46226   0.87106   0.28733   0.00000  Uiso   1.00
Br457  Br    0.89002   0.72889   0.09054   0.00000  Uiso   1.00
Br458  Br    0.90216   0.68172   0.20643   0.00000  Uiso   1.00
Br459  Br    0.85118   0.71048   0.42234   0.00000  Uiso   1.00
Br460  Br    0.76791   0.93444   0.41852   0.00000  Uiso   1.00
Br461  Br    0.87535   0.92273   0.03247   0.00000  Uiso   1.00
Br462  Br    0.80292   0.97143   0.00889   0.00000  Uiso   1.00
Br463  Br    0.78051   0.76077   0.39777   0.00000  Uiso   1.00
C464   C     0.71930   0.82625   0.25991   0.00000  Uiso   1.00
C465   C     0.84621   0.83176   0.05644   0.00000  Uiso   1.00
C466   C     0.87205   0.76696   0.05902   0.00000  Uiso   1.00
C467   C     0.94737   0.84053   0.24007   0.00000  Uiso   1.00
C468   C     0.80826   0.86050   0.42117   0.00000  Uiso   1.00
C469   C     0.99324   0.84362   0.23639   0.00000  Uiso   1.00
C470   C     0.67404   0.82359   0.26351   0.00000  Uiso   1.00
C471   C     0.84759   0.98936   0.24011   0.00000  Uiso   1.00
C472   C     0.81590   0.67892   0.26281   0.00000  Uiso   1.00
C473   C     0.82274   0.72267   0.25963   0.00000  Uiso   1.00
C474   C     0.84291   0.94454   0.24055   0.00000  Uiso   1.00
C475   C     0.81265   0.91624   0.48109   0.00000  Uiso   1.00
C476   C     0.85184   0.81438   0.12916   0.00000  Uiso   1.00
C477   C     0.81456   0.85118   0.37140   0.00000  Uiso   1.00
C478   C     0.86962   0.75509   0.01455   0.00000  Uiso   1.00
C479   C     0.85886   0.80495   0.08044   0.00000  Uiso   1.00
C480   C     0.79847   0.90021   0.44234   0.00000  Uiso   1.00
C481   C     0.83545   0.89264   0.49901   0.00000  Uiso   1.00
C482   C     0.83441   0.84932   0.48575   0.00000  Uiso   1.00
C483   C     0.82055   0.83301   0.44618   0.00000  Uiso   1.00
C484   C     0.84641   0.82164   0.01066   0.00000  Uiso   1.00
C485   C     0.85416   0.78097   0.49099   0.00000  Uiso   1.00
C486   C     0.84195   0.76566   0.45078   0.00000  Uiso   1.00
C487   C     0.81985   0.78980   0.43251   0.00000  Uiso   1.00
H488   H     0.98574   0.80459   0.28839   0.00000  Uiso   1.00
H489   H     0.87755   0.72457   0.49993   0.00000  Uiso   1.00
H490   H     0.83229   0.85872   0.07516   0.00000  Uiso   1.00
H491   H     0.68227   0.86220   0.21152   0.00000  Uiso   1.00
H492   H     0.70169   0.68487   0.31482   0.00000  Uiso   1.00
O493   O     0.83333   0.83333   0.25000   0.00000  Uiso   1.00
O494   O     0.82118   0.79304   0.15458   0.00000  Uiso   1.00
O495   O     0.79607   0.87058   0.34968   0.00000  Uiso   1.00
O496   O     0.87491   0.84425   0.14606   0.00000  Uiso   1.00
O497   O     0.84118   0.82546   0.34968   0.00000  Uiso   1.00
O498   O     0.74502   0.95938   0.25620   0.00000  Uiso   1.00
O499   O     0.75990   0.97502   0.33115   0.00000  Uiso   1.00
O500   O     0.73067   0.69787   0.29995   0.00000  Uiso   1.00
O501   O     0.84597   0.74686   0.28213   0.00000  Uiso   1.00
O502   O     0.81298   0.92751   0.27013   0.00000  Uiso   1.00
O503   O     0.74078   0.79958   0.23413   0.00000  Uiso   1.00
O504   O     0.93360   0.85939   0.21360   0.00000  Uiso   1.00
O505   O     0.73738   0.85544   0.28213   0.00000  Uiso   1.00
O506   O     0.92158   0.81892   0.27013   0.00000  Uiso   1.00
O507   O     0.80426   0.73610   0.23413   0.00000  Uiso   1.00
O508   O     0.87012   0.92286   0.21360   0.00000  Uiso   1.00
S509   S     0.76182   0.99261   0.28800   0.00000  Uiso   1.00
Zn510  Zn    0.86005   0.80661   0.28734   0.00000  Uiso   1.00
Zn511  Zn    0.80046   0.79124   0.21875   0.00000  Uiso   1.00
Zn512  Zn    0.87723   0.86442   0.20657   0.00000  Uiso   1.00
Zn513  Zn    0.79560   0.87106   0.28733   0.00000  Uiso   1.00
Br514  Br    0.22336   0.06222   0.59054   0.00000  Uiso   1.00
Br515  Br    0.23549   0.01505   0.70643   0.00000  Uiso   1.00
Br516  Br    0.18451   0.04381   0.92234   0.00000  Uiso   1.00
Br517  Br    0.10125   0.26778   0.91852   0.00000  Uiso   1.00
Br518  Br    0.20869   0.25607   0.53247   0.00000  Uiso   1.00
Br519  Br    0.13626   0.30477   0.50889   0.00000  Uiso   1.00
Br520  Br    0.11384   0.09410   0.89777   0.00000  Uiso   1.00
C521   C     0.05263   0.15958   0.75991   0.00000  Uiso   1.00
C522   C     0.17954   0.16509   0.55644   0.00000  Uiso   1.00
C523   C     0.20538   0.10029   0.55902   0.00000  Uiso   1.00
C524   C     0.28070   0.17387   0.74007   0.00000  Uiso   1.00
C525   C     0.14160   0.19384   0.92117   0.00000  Uiso   1.00
C526   C     0.32657   0.17695   0.73639   0.00000  Uiso   1.00
C527   C     0.00738   0.15693   0.76351   0.00000  Uiso   1.00
C528   C     0.18093   0.32269   0.74011   0.00000  Uiso   1.00
C529   C     0.14923   0.01226   0.76281   0.00000  Uiso   1.00
C530   C     0.15607   0.05601   0.75963   0.00000  Uiso   1.00
C531   C     0.17624   0.27787   0.74055   0.00000  Uiso   1.00
C532   C     0.14598   0.24957   0.98109   0.00000  Uiso   1.00
C533   C     0.18517   0.14771   0.62916   0.00000  Uiso   1.00
C534   C     0.14790   0.18451   0.87140   0.00000  Uiso   1.00
C535   C     0.20295   0.08842   0.51455   0.00000  Uiso   1.00
C536   C     0.19220   0.13828   0.58044   0.00000  Uiso   1.00
C537   C     0.13180   0.23355   0.94234   0.00000  Uiso   1.00
C538   C     0.16878   0.22597   0.99901   0.00000  Uiso   1.00
C539   C     0.16774   0.18265   0.98575   0.00000  Uiso   1.00
C540   C     0.15388   0.16635   0.94618   0.00000  Uiso   1.00
C541   C     0.17974   0.15498   0.51066   0.00000  Uiso   1.00
C542   C     0.18749   0.11430   0.99099   0.00000  Uiso   1.00
C543   C     0.17529   0.09900   0.95078   0.00000  Uiso   1.00
C544   C     0.15319   0.12313   0.93251   0.00000  Uiso   1.00
H545   H     0.31907   0.13793   0.78839   0.00000  Uiso   1.00
H546   H     0.21088   0.05790   0.99993   0.00000  Uiso   1.00
H547   H     0.16562   0.19205   0.57516   0.00000  Uiso   1.00
H548   H     0.01560   0.19553   0.71152   0.00000  Uiso   1.00
H549   H     0.03502   0.01820   0.81482   0.00000  Uiso   1.00
O550   O     0.16667   0.16667   0.75000   0.00000  Uiso   1.00
O551   O     0.15451   0.12637   0.65458   0.00000  Uiso   1.00
O552   O     0.12940   0.20391   0.84968   0.00000  Uiso   1.00
O553   O     0.20824   0.17759   0.64606   0.00000  Uiso   1.00
O554   O     0.17451   0.15880   0.84968   0.00000  Uiso   1.00
O555   O     0.07835   0.29272   0.75620   0.00000  Uiso   1.00
O556   O     0.09324   0.30836   0.83115   0.00000  Uiso   1.00
O557   O     0.06400   0.03120   0.79995   0.00000  Uiso   1.00
O558   O     0.17930   0.08019   0.78213   0.00000  Uiso   1.00
O559   O     0.14632   0.26085   0.77013   0.00000  Uiso   1.00
O560   O     0.07412   0.13291   0.73413   0.00000  Uiso   1.00
O561   O     0.26693   0.19272   0.71360   0.00000  Uiso   1.00
O562   O     0.07071   0.18878   0.78213   0.00000  Uiso   1.00
O563   O     0.25491   0.15226   0.77013   0.00000  Uiso   1.00
O564   O     0.13760   0.06944   0.73413   0.00000  Uiso   1.00
O565   O     0.20345   0.25620   0.71360   0.00000  Uiso   1.00
S566   S     0.09515   0.32594   0.78800   0.00000  Uiso   1.00
Zn567  Zn    0.19338   0.13994   0.78734   0.00000  Uiso   1.00
Zn568  Zn    0.13379   0.12458   0.71875   0.00000  Uiso   1.00
Zn569  Zn    0.21056   0.19775   0.70657   0.00000  Uiso   1.00
Zn570  Zn    0.12893   0.20439   0.78733   0.00000  Uiso   1.00
Br571  Br    0.55669   0.06222   0.59054   0.00000  Uiso   1.00
Br572  Br    0.56882   0.01505   0.70643   0.00000  Uiso   1.00
Br573  Br    0.51785   0.04381   0.92234   0.00000  Uiso   1.00
Br574  Br    0.43458   0.26778   0.91852   0.00000  Uiso   1.00
Br575  Br    0.54202   0.25607   0.53247   0.00000  Uiso   1.00
Br576  Br    0.46959   0.30477   0.50889   0.00000  Uiso   1.00
Br577  Br    0.44717   0.09410   0.89777   0.00000  Uiso   1.00
C578   C     0.38597   0.15958   0.75991   0.00000  Uiso   1.00
C579   C     0.51287   0.16509   0.55644   0.00000  Uiso   1.00
C580   C     0.53871   0.10029   0.55902   0.00000  Uiso   1.00
C581   C     0.61403   0.17387   0.74007   0.00000  Uiso   1.00
C582   C     0.47493   0.19384   0.92117   0.00000  Uiso   1.00
C583   C     0.65990   0.17695   0.73639   0.00000  Uiso   1.00
C584   C     0.34071   0.15693   0.76351   0.00000  Uiso   1.00
C585   C     0.51426   0.32269   0.74011   0.00000  Uiso   1.00
C586   C     0.48256   0.01226   0.76281   0.00000  Uiso   1.00
C587   C     0.48940   0.05601   0.75963   0.00000  Uiso   1.00
C588   C     0.50958   0.27787   0.74055   0.00000  Uiso   1.00
C589   C     0.47932   0.24957   0.98109   0.00000  Uiso   1.00
C590   C     0.51851   0.14771   0.62916   0.00000  Uiso   1.00
C591   C     0.48123   0.18451   0.87140   0.00000  Uiso   1.00
C592   C     0.53629   0.08842   0.51455   0.00000  Uiso   1.00
C593   C     0.52553   0.13828   0.58044   0.00000  Uiso   1.00
C594   C     0.46514   0.23355   0.94234   0.00000  Uiso   1.00
C595   C     0.50211   0.22597   0.99901   0.00000  Uiso   1.00
C596   C     0.50108   0.18265   0.98575   0.00000  Uiso   1.00
C597   C     0.48721   0.16635   0.94618   0.00000  Uiso   1.00
C598   C     0.51307   0.15498   0.51066   0.00000  Uiso   1.00
C599   C     0.52082   0.11430   0.99099   0.00000  Uiso   1.00
C600   C     0.50862   0.09900   0.95078   0.00000  Uiso   1.00
C601   C     0.48652   0.12313   0.93251   0.00000  Uiso   1.00
H602   H     0.65241   0.13793   0.78839   0.00000  Uiso   1.00
H603   H     0.54421   0.05790   0.99993   0.00000  Uiso   1.00
H604   H     0.49895   0.19205   0.57516   0.00000  Uiso   1.00
H605   H     0.34893   0.19553   0.71152   0.00000  Uiso   1.00
H606   H     0.36836   0.01820   0.81482   0.00000  Uiso   1.00
O607   O     0.50000   0.16667   0.75000   0.00000  Uiso   1.00
O608   O     0.48784   0.12637   0.65458   0.00000  Uiso   1.00
O609   O     0.46274   0.20391   0.84968   0.00000  Uiso   1.00
O610   O     0.54157   0.17759   0.64606   0.00000  Uiso   1.00
O611   O     0.50785   0.15880   0.84968   0.00000  Uiso   1.00
O612   O     0.41169   0.29272   0.75620   0.00000  Uiso   1.00
O613   O     0.42657   0.30836   0.83115   0.00000  Uiso   1.00
O614   O     0.39733   0.03120   0.79995   0.00000  Uiso   1.00
O615   O     0.51264   0.08019   0.78213   0.00000  Uiso   1.00
O616   O     0.47965   0.26085   0.77013   0.00000  Uiso   1.00
O617   O     0.40745   0.13291   0.73413   0.00000  Uiso   1.00
O618   O     0.60026   0.19272   0.71360   0.00000  Uiso   1.00
O619   O     0.40405   0.18878   0.78213   0.00000  Uiso   1.00
O620   O     0.58824   0.15226   0.77013   0.00000  Uiso   1.00
O621   O     0.47093   0.06944   0.73413   0.00000  Uiso   1.00
O622   O     0.53678   0.25620   0.71360   0.00000  Uiso   1.00
S623   S     0.42848   0.32594   0.78800   0.00000  Uiso   1.00
Zn624  Zn    0.52672   0.13994   0.78734   0.00000  Uiso   1.00
Zn625  Zn    0.46713   0.12458   0.71875   0.00000  Uiso   1.00
Zn626  Zn    0.54389   0.19775   0.70657   0.00000  Uiso   1.00
Zn627  Zn    0.46226   0.20439   0.78733   0.00000  Uiso   1.00
Br628  Br    0.89002   0.06222   0.59054   0.00000  Uiso   1.00
Br629  Br    0.90216   0.01505   0.70643   0.00000  Uiso   1.00
Br630  Br    0.85118   0.04381   0.92234   0.00000  Uiso   1.00
Br631  Br    0.76791   0.26778   0.91852   0.00000  Uiso   1.00
Br632  Br    0.87535   0.25607   0.53247   0.00000  Uiso   1.00
Br633  Br    0.80292   0.30477   0.50889   0.00000  Uiso   1.00
Br634  Br    0.78051   0.09410   0.89777   0.00000  Uiso   1.00
C635   C     0.71930   0.15958   0.75991   0.00000  Uiso   1.00
C636   C     0.84621   0.16509   0.55644   0.00000  Uiso   1.00
C637   C     0.87205   0.10029   0.55902   0.00000  Uiso   1.00
C638   C     0.94737   0.17387   0.74007   0.00000  Uiso   1.00
C639   C     0.80826   0.19384   0.92117   0.00000  Uiso   1.00
C640   C     0.99324   0.17695   0.73639   0.00000  Uiso   1.00
C641   C     0.67404   0.15693   0.76351   0.00000  Uiso   1.00
C642   C     0.84759   0.32269   0.74011   0.00000  Uiso   1.00
C643   C     0.81590   0.01226   0.76281   0.00000  Uiso   1.00
C644   C     0.82274   0.05601   0.75963   0.00000  Uiso   1.00
C645   C     0.84291   0.27787   0.74055   0.00000  Uiso   1.00
C646   C     0.81265   0.24957   0.98109   0.00000  Uiso   1.00
C647   C     0.85184   0.14771   0.62916   0.00000  Uiso   1.00
C648   C     0.81456   0.18451   0.87140   0.00000  Uiso   1.00
C649   C     0.86962   0.08842   0.51455   0.00000  Uiso   1.00
C650   C     0.85886   0.13828   0.58044   0.00000  Uiso   1.00
C651   C     0.79847   0.23355   0.94234   0.00000  Uiso   1.00
C652   C     0.83545   0.22597   0.99901   0.00000  Uiso   1.00
C653   C     0.83441   0.18265   0.98575   0.00000  Uiso   1.00
C654   C     0.82055   0.16635   0.94618   0.00000  Uiso   1.00
C655   C     0.84641   0.15498   0.51066   0.00000  Uiso   1.00
C656   C     0.85416   0.11430   0.99099   0.00000  Uiso   1.00
C657   C     0.84195   0.09900   0.95078   0.00000  Uiso   1.00
C658   C     0.81985   0.12313   0.93251   0.00000  Uiso   1.00
H659   H     0.98574   0.13793   0.78839   0.00000  Uiso   1.00
H660   H     0.87755   0.05790   0.99993   0.00000  Uiso   1.00
H661   H     0.83229   0.19205   0.57516   0.00000  Uiso   1.00
H662   H     0.68227   0.19553   0.71152   0.00000  Uiso   1.00
H663   H     0.70169   0.01820   0.81482   0.00000  Uiso   1.00
O664   O     0.83333   0.16667   0.75000   0.00000  Uiso   1.00
O665   O     0.82118   0.12637   0.65458   0.00000  Uiso   1.00
O666   O     0.79607   0.20391   0.84968   0.00000  Uiso   1.00
O667   O     0.87491   0.17759   0.64606   0.00000  Uiso   1.00
O668   O     0.84118   0.15880   0.84968   0.00000  Uiso   1.00
O669   O     0.74502   0.29272   0.75620   0.00000  Uiso   1.00
O670   O     0.75990   0.30836   0.83115   0.00000  Uiso   1.00
O671   O     0.73067   0.03120   0.79995   0.00000  Uiso   1.00
O672   O     0.84597   0.08019   0.78213   0.00000  Uiso   1.00
O673   O     0.81298   0.26085   0.77013   0.00000  Uiso   1.00
O674   O     0.74078   0.13291   0.73413   0.00000  Uiso   1.00
O675   O     0.93360   0.19272   0.71360   0.00000  Uiso   1.00
O676   O     0.73738   0.18878   0.78213   0.00000  Uiso   1.00
O677   O     0.92158   0.15226   0.77013   0.00000  Uiso   1.00
O678   O     0.80426   0.06944   0.73413   0.00000  Uiso   1.00
O679   O     0.87012   0.25620   0.71360   0.00000  Uiso   1.00
S680   S     0.76182   0.32594   0.78800   0.00000  Uiso   1.00
Zn681  Zn    0.86005   0.13994   0.78734   0.00000  Uiso   1.00
Zn682  Zn    0.80046   0.12458   0.71875   0.00000  Uiso   1.00
Zn683  Zn    0.87723   0.19775   0.70657   0.00000  Uiso   1.00
Zn684  Zn    0.79560   0.20439   0.78733   0.00000  Uiso   1.00
Br685  Br    0.22336   0.39556   0.59054   0.00000  Uiso   1.00
Br686  Br    0.23549   0.34839   0.70643   0.00000  Uiso   1.00
Br687  Br    0.18451   0.37715   0.92234   0.00000  Uiso   1.00
Br688  Br    0.10125   0.60111   0.91852   0.00000  Uiso   1.00
Br689  Br    0.20869   0.58940   0.53247   0.00000  Uiso   1.00
Br690  Br    0.13626   0.63810   0.50889   0.00000  Uiso   1.00
Br691  Br    0.11384   0.42744   0.89777   0.00000  Uiso   1.00
C692   C     0.05263   0.49291   0.75991   0.00000  Uiso   1.00
C693   C     0.17954   0.49843   0.55644   0.00000  Uiso   1.00
C694   C     0.20538   0.43363   0.55902   0.00000  Uiso   1.00
C695   C     0.28070   0.50720   0.74007   0.00000  Uiso   1.00
C696   C     0.14160   0.52717   0.92117   0.00000  Uiso   1.00
C697   C     0.32657   0.51028   0.73639   0.00000  Uiso   1.00
C698   C     0.00738   0.49026   0.76351   0.00000  Uiso   1.00
C699   C     0.18093   0.65603   0.74011   0.00000  Uiso   1.00
C700   C     0.14923   0.34559   0.76281   0.00000  Uiso   1.00
C701   C     0.15607   0.38934   0.75963   0.00000  Uiso   1.00
C702   C     0.17624   0.61121   0.74055   0.00000  Uiso   1.00
C703   C     0.14598   0.58290   0.98109   0.00000  Uiso   1.00
C704   C     0.18517   0.48104   0.62916   0.00000  Uiso   1.00
C705   C     0.14790   0.51785   0.87140   0.00000  Uiso   1.00
C706   C     0.20295   0.42176   0.51455   0.00000  Uiso   1.00
C707   C     0.19220   0.47161   0.58044   0.00000  Uiso   1.00
C708   C     0.13180   0.56688   0.94234   0.00000  Uiso   1.00
C709   C     0.16878   0.55931   0.99901   0.00000  Uiso   1.00
C710   C     0.16774   0.51599   0.98575   0.00000  Uiso   1.00
C711   C     0.15388   0.49968   0.94618   0.00000  Uiso   1.00
C712   C     0.17974   0.48831   0.51066   0.00000  Uiso   1.00
C713   C     0.18749   0.44764   0.99099   0.00000  Uiso   1.00
C714   C     0.17529   0.43233   0.95078   0.00000  Uiso   1.00
C715   C     0.15319   0.45646   0.93251   0.00000  Uiso   1.00
H716   H     0.31907   0.47126   0.78839   0.00000  Uiso   1.00
H717   H     0.21088   0.39124   0.99993   0.00000  Uiso   1.00
H718   H     0.16562   0.52538   0.57516   0.00000  Uiso   1.00
H719   H     0.01560   0.52887   0.71152   0.00000  Uiso   1.00
H720   H     0.03502   0.35153   0.81482   0.00000  Uiso   1.00
O721   O     0.16667   0.50000   0.75000   0.00000  Uiso   1.00
O722   O     0.15451   0.45970   0.65458   0.00000  Uiso   1.00
O723   O     0.12940   0.53724   0.84968   0.00000  Uiso   1.00
O724   O     0.20824   0.51092   0.64606   0.00000  Uiso   1.00
O725   O     0.17451   0.49213   0.84968   0.00000  Uiso   1.00
O726   O     0.07835   0.62605   0.75620   0.00000  Uiso   1.00
O727   O     0.09324   0.64169   0.83115   0.00000  Uiso   1.00
O728   O     0.06400   0.36453   0.79995   0.00000  Uiso   1.00
O729   O     0.17930   0.41352   0.78213   0.00000  Uiso   1.00
O730   O     0.14632   0.59418   0.77013   0.00000  Uiso   1.00
O731   O     0.07412   0.46625   0.73413   0.00000  Uiso   1.00
O732   O     0.26693   0.52605   0.71360   0.00000  Uiso   1.00
O733   O     0.07071   0.52211   0.78213   0.00000  Uiso   1.00
O734   O     0.25491   0.48559   0.77013   0.00000  Uiso   1.00
O735   O     0.13760   0.40277   0.73413   0.00000  Uiso   1.00
O736   O     0.20345   0.58953   0.71360   0.00000  Uiso   1.00
S737   S     0.09515   0.65927   0.78800   0.00000  Uiso   1.00
Zn738  Zn    0.19338   0.47327   0.78734   0.00000  Uiso   1.00
Zn739  Zn    0.13379   0.45791   0.71875   0.00000  Uiso   1.00
Zn740  Zn    0.21056   0.53109   0.70657   0.00000  Uiso   1.00
Zn741  Zn    0.12893   0.53773   0.78733   0.00000  Uiso   1.00
Br742  Br    0.55669   0.39556   0.59054   0.00000  Uiso   1.00
Br743  Br    0.56882   0.34839   0.70643   0.00000  Uiso   1.00
Br744  Br    0.51785   0.37715   0.92234   0.00000  Uiso   1.00
Br745  Br    0.43458   0.60111   0.91852   0.00000  Uiso   1.00
Br746  Br    0.54202   0.58940   0.53247   0.00000  Uiso   1.00
Br747  Br    0.46959   0.63810   0.50889   0.00000  Uiso   1.00
Br748  Br    0.44717   0.42744   0.89777   0.00000  Uiso   1.00
C749   C     0.38597   0.49291   0.75991   0.00000  Uiso   1.00
C750   C     0.51287   0.49843   0.55644   0.00000  Uiso   1.00
C751   C     0.53871   0.43363   0.55902   0.00000  Uiso   1.00
C752   C     0.61403   0.50720   0.74007   0.00000  Uiso   1.00
C753   C     0.47493   0.52717   0.92117   0.00000  Uiso   1.00
C754   C     0.65990   0.51028   0.73639   0.00000  Uiso   1.00
C755   C     0.34071   0.49026   0.76351   0.00000  Uiso   1.00
C756   C     0.51426   0.65603   0.74011   0.00000  Uiso   1.00
C757   C     0.48256   0.34559   0.76281   0.00000  Uiso   1.00
C758   C     0.48940   0.38934   0.75963   0.00000  Uiso   1.00
C759   C     0.50958   0.61121   0.74055   0.00000  Uiso   1.00
C760   C     0.47932   0.58290   0.98109   0.00000  Uiso   1.00
C761   C     0.51851   0.48104   0.62916   0.00000  Uiso   1.00
C762   C     0.48123   0.51785   0.87140   0.00000  Uiso   1.00
C763   C     0.53629   0.42176   0.51455   0.00000  Uiso   1.00
C764   C     0.52553   0.47161   0.58044   0.00000  Uiso   1.00
C765   C     0.46514   0.56688   0.94234   0.00000  Uiso   1.00
C766   C     0.50211   0.55931   0.99901   0.00000  Uiso   1.00
C767   C     0.50108   0.51599   0.98575   0.00000  Uiso   1.00
C768   C     0.48721   0.49968   0.94618   0.00000  Uiso   1.00
C769   C     0.51307   0.48831   0.51066   0.00000  Uiso   1.00
C770   C     0.52082   0.44764   0.99099   0.00000  Uiso   1.00
C771   C     0.50862   0.43233   0.95078   0.00000  Uiso   1.00
C772   C     0.48652   0.45646   0.93251   0.00000  Uiso   1.00
H773   H     0.65241   0.47126   0.78839   0.00000  Uiso   1.00
H774   H     0.54421   0.39124   0.99993   0.00000  Uiso   1.00
H775   H     0.49895   0.52538   0.57516   0.00000  Uiso   1.00
H776   H     0.34893   0.52887   0.71152   0.00000  Uiso   1.00
H777   H     0.36836   0.35153   0.81482   0.00000  Uiso   1.00
O778   O     0.50000   0.50000   0.75000   0.00000  Uiso   1.00
O779   O     0.48784   0.45970   0.65458   0.00000  Uiso   1.00
O780   O     0.46274   0.53724   0.84968   0.00000  Uiso   1.00
O781   O     0.54157   0.51092   0.64606   0.00000  Uiso   1.00
O782   O     0.50785   0.49213   0.84968   0.00000  Uiso   1.00
O783   O     0.41169   0.62605   0.75620   0.00000  Uiso   1.00
O784   O     0.42657   0.64169   0.83115   0.00000  Uiso   1.00
O785   O     0.39733   0.36453   0.79995   0.00000  Uiso   1.00
O786   O     0.51264   0.41352   0.78213   0.00000  Uiso   1.00
O787   O     0.47965   0.59418   0.77013   0.00000  Uiso   1.00
O788   O     0.40745   0.46625   0.73413   0.00000  Uiso   1.00
O789   O     0.60026   0.52605   0.71360   0.00000  Uiso   1.00
O790   O     0.40405   0.52211   0.78213   0.00000  Uiso   1.00
O791   O     0.58824   0.48559   0.77013   0.00000  Uiso   1.00
O792   O     0.47093   0.40277   0.73413   0.00000  Uiso   1.00
O793   O     0.53678   0.58953   0.71360   0.00000  Uiso   1.00
S794   S     0.42848   0.65927   0.78800   0.00000  Uiso   1.00
Zn795  Zn    0.52672   0.47327   0.78734   0.00000  Uiso   1.00
Zn796  Zn    0.46713   0.45791   0.71875   0.00000  Uiso   1.00
Zn797  Zn    0.54389   0.53109   0.70657   0.00000  Uiso   1.00
Zn798  Zn    0.46226   0.53773   0.78733   0.00000  Uiso   1.00
Br799  Br    0.89002   0.39556   0.59054   0.00000  Uiso   1.00
Br800  Br    0.90216   0.34839   0.70643   0.00000  Uiso   1.00
Br801  Br    0.85118   0.37715   0.92234   0.00000  Uiso   1.00
Br802  Br    0.76791   0.60111   0.91852   0.00000  Uiso   1.00
Br803  Br    0.87535   0.58940   0.53247   0.00000  Uiso   1.00
Br804  Br    0.80292   0.63810   0.50889   0.00000  Uiso   1.00
Br805  Br    0.78051   0.42744   0.89777   0.00000  Uiso   1.00
C806   C     0.71930   0.49291   0.75991   0.00000  Uiso   1.00
C807   C     0.84621   0.49843   0.55644   0.00000  Uiso   1.00
C808   C     0.87205   0.43363   0.55902   0.00000  Uiso   1.00
C809   C     0.94737   0.50720   0.74007   0.00000  Uiso   1.00
C810   C     0.80826   0.52717   0.92117   0.00000  Uiso   1.00
C811   C     0.99324   0.51028   0.73639   0.00000  Uiso   1.00
C812   C     0.67404   0.49026   0.76351   0.00000  Uiso   1.00
C813   C     0.84759   0.65603   0.74011   0.00000  Uiso   1.00
C814   C     0.81590   0.34559   0.76281   0.00000  Uiso   1.00
C815   C     0.82274   0.38934   0.75963   0.00000  Uiso   1.00
C816   C     0.84291   0.61121   0.74055   0.00000  Uiso   1.00
C817   C     0.81265   0.58290   0.98109   0.00000  Uiso   1.00
C818   C     0.85184   0.48104   0.62916   0.00000  Uiso   1.00
C819   C     0.81456   0.51785   0.87140   0.00000  Uiso   1.00
C820   C     0.86962   0.42176   0.51455   0.00000  Uiso   1.00
C821   C     0.85886   0.47161   0.58044   0.00000  Uiso   1.00
C822   C     0.79847   0.56688   0.94234   0.00000  Uiso   1.00
C823   C     0.83545   0.55931   0.99901   0.00000  Uiso   1.00
C824   C     0.83441   0.51599   0.98575   0.00000  Uiso   1.00
C825   C     0.82055   0.49968   0.94618   0.00000  Uiso   1.00
C826   C     0.84641   0.48831   0.51066   0.00000  Uiso   1.00
C827   C     0.85416   0.44764   0.99099   0.00000  Uiso   1.00
C828   C     0.84195   0.43233   0.95078   0.00000  Uiso   1.00
C829   C     0.81985   0.45646   0.93251   0.00000  Uiso   1.00
H830   H     0.98574   0.47126   0.78839   0.00000  Uiso   1.00
H831   H     0.87755   0.39124   0.99993   0.00000  Uiso   1.00
H832   H     0.83229   0.52538   0.57516   0.00000  Uiso   1.00
H833   H     0.68227   0.52887   0.71152   0.00000  Uiso   1.00
H834   H     0.70169   0.35153   0.81482   0.00000  Uiso   1.00
O835   O     0.83333   0.50000   0.75000   0.00000  Uiso   1.00
O836   O     0.82118   0.45970   0.65458   0.00000  Uiso   1.00
O837   O     0.79607   0.53724   0.84968   0.00000  Uiso   1.00
O838   O     0.87491   0.51092   0.64606   0.00000  Uiso   1.00
O839   O     0.84118   0.49213   0.84968   0.00000  Uiso   1.00
O840   O     0.74502   0.62605   0.75620   0.00000  Uiso   1.00
O841   O     0.75990   0.64169   0.83115   0.00000  Uiso   1.00
O842   O     0.73067   0.36453   0.79995   0.00000  Uiso   1.00
O843   O     0.84597   0.41352   0.78213   0.00000  Uiso   1.00
O844   O     0.81298   0.59418   0.77013   0.00000  Uiso   1.00
O845   O     0.74078   0.46625   0.73413   0.00000  Uiso   1.00
O846   O     0.93360   0.52605   0.71360   0.00000  Uiso   1.00
O847   O     0.73738   0.52211   0.78213   0.00000  Uiso   1.00
O848   O     0.92158   0.48559   0.77013   0.00000  Uiso   1.00
O849   O     0.80426   0.40277   0.73413   0.00000  Uiso   1.00
O850   O     0.87012   0.58953   0.71360   0.00000  Uiso   1.00
S851   S     0.76182   0.65927   0.78800   0.00000  Uiso   1.00
Zn852  Zn    0.86005   0.47327   0.78734   0.00000  Uiso   1.00
Zn853  Zn    0.80046   0.45791   0.71875   0.00000  Uiso   1.00
Zn854  Zn    0.87723   0.53109   0.70657   0.00000  Uiso   1.00
Zn855  Zn    0.79560   0.53773   0.78733   0.00000  Uiso   1.00
Br856  Br    0.22336   0.72889   0.59054   0.00000  Uiso   1.00
Br857  Br    0.23549   0.68172   0.70643   0.00000  Uiso   1.00
Br858  Br    0.18451   0.71048   0.92234   0.00000  Uiso   1.00
Br859  Br    0.10125   0.93444   0.91852   0.00000  Uiso   1.00
Br860  Br    0.20869   0.92273   0.53247   0.00000  Uiso   1.00
Br861  Br    0.13626   0.97143   0.50889   0.00000  Uiso   1.00
Br862  Br    0.11384   0.76077   0.89777   0.00000  Uiso   1.00
C863   C     0.05263   0.82625   0.75991   0.00000  Uiso   1.00
C864   C     0.17954   0.83176   0.55644   0.00000  Uiso   1.00
C865   C     0.20538   0.76696   0.55902   0.00000  Uiso   1.00
C866   C     0.28070   0.84053   0.74007   0.00000  Uiso   1.00
C867   C     0.14160   0.86050   0.92117   0.00000  Uiso   1.00
C868   C     0.32657   0.84362   0.73639   0.00000  Uiso   1.00
C869   C     0.00738   0.82359   0.76351   0.00000  Uiso   1.00
C870   C     0.18093   0.98936   0.74011   0.00000  Uiso   1.00
C871   C     0.14923   0.67892   0.76281   0.00000  Uiso   1.00
C872   C     0.15607   0.72267   0.75963   0.00000  Uiso   1.00
C873   C     0.17624   0.94454   0.74055   0.00000  Uiso   1.00
C874   C     0.14598   0.91624   0.98109   0.00000  Uiso   1.00
C875   C     0.18517   0.81438   0.62916   0.00000  Uiso   1.00
C876   C     0.14790   0.85118   0.87140   0.00000  Uiso   1.00
C877   C     0.20295   0.75509   0.51455   0.00000  Uiso   1.00
C878   C     0.19220   0.80495   0.58044   0.00000  Uiso   1.00
C879   C     0.13180   0.90021   0.94234   0.00000  Uiso   1.00
C880   C     0.16878   0.89264   0.99901   0.00000  Uiso   1.00
C881   C     0.16774   0.84932   0.98575   0.00000  Uiso   1.00
C882   C     0.15388   0.83301   0.94618   0.00000  Uiso   1.00
C883   C     0.17974   0.82164   0.51066   0.00000  Uiso   1.00
C884   C     0.18749   0.78097   0.99099   0.00000  Uiso   1.00
C885   C     0.17529   0.76566   0.95078   0.00000  Uiso   1.00
C886   C     0.15319   0.78980   0.93251   0.00000  Uiso   1.00
H887   H     0.31907   0.80459   0.78839   0.00000  Uiso   1.00
H888   H     0.21088   0.72457   0.99993   0.00000  Uiso   1.00
H889   H     0.16562   0.85872   0.57516   0.00000  Uiso   1.00
H890   H     0.01560   0.86220   0.71152   0.00000  Uiso   1.00
H891   H     0.03502   0.68487   0.81482   0.00000  Uiso   1.00
O892   O     0.16667   0.83333   0.75000   0.00000  Uiso   1.00
O893   O     0.15451   0.79304   0.65458   0.00000  Uiso   1.00
O894   O     0.12940   0.87058   0.84968   0.00000  Uiso   1.00
O895   O     0.20824   0.84425   0.64606   0.00000  Uiso   1.00
O896   O     0.17451   0.82546   0.84968   0.00000  Uiso   1.00
O897   O     0.07835   0.95938   0.75620   0.00000  Uiso   1.00
O898   O     0.09324   0.97502   0.83115   0.00000  Uiso   1.00
O899   O     0.06400   0.69787   0.79995   0.00000  Uiso   1.00
O900   O     0.17930   0.74686   0.78213   0.00000  Uiso   1.00
O901   O     0.14632   0.92751   0.77013   0.00000  Uiso   1.00
O902   O     0.07412   0.79958   0.73413   0.00000  Uiso   1.00
O903   O     0.26693   0.85939   0.71360   0.00000  Uiso   1.00
O904   O     0.07071   0.85544   0.78213   0.00000  Uiso   1.00
O905   O     0.25491   0.81892   0.77013   0.00000  Uiso   1.00
O906   O     0.13760   0.73610   0.73413   0.00000  Uiso   1.00
O907   O     0.20345   0.92286   0.71360   0.00000  Uiso   1.00
S908   S     0.09515   0.99261   0.78800   0.00000  Uiso   1.00
Zn909  Zn    0.19338   0.80661   0.78734   0.00000  Uiso   1.00
Zn910  Zn    0.13379   0.79124   0.71875   0.00000  Uiso   1.00
Zn911  Zn    0.21056   0.86442   0.70657   0.00000  Uiso   1.00
Zn912  Zn    0.12893   0.87106   0.78733   0.00000  Uiso   1.00
Br913  Br    0.55669   0.72889   0.59054   0.00000  Uiso   1.00
Br914  Br    0.56882   0.68172   0.70643   0.00000  Uiso   1.00
Br915  Br    0.51785   0.71048   0.92234   0.00000  Uiso   1.00
Br916  Br    0.43458   0.93444   0.91852   0.00000  Uiso   1.00
Br917  Br    0.54202   0.92273   0.53247   0.00000  Uiso   1.00
Br918  Br    0.46959   0.97143   0.50889   0.00000  Uiso   1.00
Br919  Br    0.44717   0.76077   0.89777   0.00000  Uiso   1.00
C920   C     0.38597   0.82625   0.75991   0.00000  Uiso   1.00
C921   C     0.51287   0.83176   0.55644   0.00000  Uiso   1.00
C922   C     0.53871   0.76696   0.55902   0.00000  Uiso   1.00
C923   C     0.61403   0.84053   0.74007   0.00000  Uiso   1.00
C924   C     0.47493   0.86050   0.92117   0.00000  Uiso   1.00
C925   C     0.65990   0.84362   0.73639   0.00000  Uiso   1.00
C926   C     0.34071   0.82359   0.76351   0.00000  Uiso   1.00
C927   C     0.51426   0.98936   0.74011   0.00000  Uiso   1.00
C928   C     0.48256   0.67892   0.76281   0.00000  Uiso   1.00
C929   C     0.48940   0.72267   0.75963   0.00000  Uiso   1.00
C930   C     0.50958   0.94454   0.74055   0.00000  Uiso   1.00
C931   C     0.47932   0.91624   0.98109   0.00000  Uiso   1.00
C932   C     0.51851   0.81438   0.62916   0.00000  Uiso   1.00
C933   C     0.48123   0.85118   0.87140   0.00000  Uiso   1.00
C934   C     0.53629   0.75509   0.51455   0.00000  Uiso   1.00
C935   C     0.52553   0.80495   0.58044   0.00000  Uiso   1.00
C936   C     0.46514   0.90021   0.94234   0.00000  Uiso   1.00
C937   C     0.50211   0.89264   0.99901   0.00000  Uiso   1.00
C938   C     0.50108   0.84932   0.98575   0.00000  Uiso   1.00
C939   C     0.48721   0.83301   0.94618   0.00000  Uiso   1.00
C940   C     0.51307   0.82164   0.51066   0.00000  Uiso   1.00
C941   C     0.52082   0.78097   0.99099   0.00000  Uiso   1.00
C942   C     0.50862   0.76566   0.95078   0.00000  Uiso   1.00
C943   C     0.48652   0.78980   0.93251   0.00000  Uiso   1.00
H944   H     0.65241   0.80459   0.78839   0.00000  Uiso   1.00
H945   H     0.54421   0.72457   0.99993   0.00000  Uiso   1.00
H946   H     0.49895   0.85872   0.57516   0.00000  Uiso   1.00
H947   H     0.34893   0.86220   0.71152   0.00000  Uiso   1.00
H948   H     0.36836   0.68487   0.81482   0.00000  Uiso   1.00
O949   O     0.50000   0.83333   0.75000   0.00000  Uiso   1.00
O950   O     0.48784   0.79304   0.65458   0.00000  Uiso   1.00
O951   O     0.46274   0.87058   0.84968   0.00000  Uiso   1.00
O952   O     0.54157   0.84425   0.64606   0.00000  Uiso   1.00
O953   O     0.50785   0.82546   0.84968   0.00000  Uiso   1.00
O954   O     0.41169   0.95938   0.75620   0.00000  Uiso   1.00
O955   O     0.42657   0.97502   0.83115   0.00000  Uiso   1.00
O956   O     0.39733   0.69787   0.79995   0.00000  Uiso   1.00
O957   O     0.51264   0.74686   0.78213   0.00000  Uiso   1.00
O958   O     0.47965   0.92751   0.77013   0.00000  Uiso   1.00
O959   O     0.40745   0.79958   0.73413   0.00000  Uiso   1.00
O960   O     0.60026   0.85939   0.71360   0.00000  Uiso   1.00
O961   O     0.40405   0.85544   0.78213   0.00000  Uiso   1.00
O962   O     0.58824   0.81892   0.77013   0.00000  Uiso   1.00
O963   O     0.47093   0.73610   0.73413   0.00000  Uiso   1.00
O964   O     0.53678   0.92286   0.71360   0.00000  Uiso   1.00
S965   S     0.42848   0.99261   0.78800   0.00000  Uiso   1.00
Zn966  Zn    0.52672   0.80661   0.78734   0.00000  Uiso   1.00
Zn967  Zn    0.46713   0.79124   0.71875   0.00000  Uiso   1.00
Zn968  Zn    0.54389   0.86442   0.70657   0.00000  Uiso   1.00
Zn969  Zn    0.46226   0.87106   0.78733   0.00000  Uiso   1.00
Br970  Br    0.89002   0.72889   0.59054   0.00000  Uiso   1.00
Br971  Br    0.90216   0.68172   0.70643   0.00000  Uiso   1.00
Br972  Br    0.85118   0.71048   0.92234   0.00000  Uiso   1.00
Br973  Br    0.76791   0.93444   0.91852   0.00000  Uiso   1.00
Br974  Br    0.87535   0.92273   0.53247   0.00000  Uiso   1.00
Br975  Br    0.80292   0.97143   0.50889   0.00000  Uiso   1.00
Br976  Br    0.78051   0.76077   0.89777   0.00000  Uiso   1.00
C977   C     0.71930   0.82625   0.75991   0.00000  Uiso   1.00
C978   C     0.84621   0.83176   0.55644   0.00000  Uiso   1.00
C979   C     0.87205   0.76696   0.55902   0.00000  Uiso   1.00
C980   C     0.94737   0.84053   0.74007   0.00000  Uiso   1.00
C981   C     0.80826   0.86050   0.92117   0.00000  Uiso   1.00
C982   C     0.99324   0.84362   0.73639   0.00000  Uiso   1.00
C983   C     0.67404   0.82359   0.76351   0.00000  Uiso   1.00
C984   C     0.84759   0.98936   0.74011   0.00000  Uiso   1.00
C985   C     0.81590   0.67892   0.76281   0.00000  Uiso   1.00
C986   C     0.82274   0.72267   0.75963   0.00000  Uiso   1.00
C987   C     0.84291   0.94454   0.74055   0.00000  Uiso   1.00
C988   C     0.81265   0.91624   0.98109   0.00000  Uiso   1.00
C989   C     0.85184   0.81438   0.62916   0.00000  Uiso   1.00
C990   C     0.81456   0.85118   0.87140   0.00000  Uiso   1.00
C991   C     0.86962   0.75509   0.51455   0.00000  Uiso   1.00
C992   C     0.85886   0.80495   0.58044   0.00000  Uiso   1.00
C993   C     0.79847   0.90021   0.94234   0.00000  Uiso   1.00
C994   C     0.83545   0.89264   0.99901   0.00000  Uiso   1.00
C995   C     0.83441   0.84932   0.98575   0.00000  Uiso   1.00
C996   C     0.82055   0.83301   0.94618   0.00000  Uiso   1.00
C997   C     0.84641   0.82164   0.51066   0.00000  Uiso   1.00
C998   C     0.85416   0.78097   0.99099   0.00000  Uiso   1.00
C999   C     0.84195   0.76566   0.95078   0.00000  Uiso   1.00
C1000  C     0.81985   0.78980   0.93251   0.00000  Uiso   1.00
H1001  H     0.98574   0.80459   0.78839   0.00000  Uiso   1.00
H1002  H     0.87755   0.72457   0.99993   0.00000  Uiso   1.00
H1003  H     0.83229   0.85872   0.57516   0.00000  Uiso   1.00
H1004  H     0.68227   0.86220   0.71152   0.00000  Uiso   1.00
H1005  H     0.70169   0.68487   0.81482   0.00000  Uiso   1.00
O1006  O     0.83333   0.83333   0.75000   0.00000  Uiso   1.00
O1007  O     0.82118   0.79304   0.65458   0.00000  Uiso   1.00
O1008  O     0.79607   0.87058   0.84968   0.00000  Uiso   1.00
O1009  O     0.87491   0.84425   0.64606   0.00000  Uiso   1.00
O1010  O     0.84118   0.82546   0.84968   0.00000  Uiso   1.00
O1011  O     0.74502   0.95938   0.75620   0.00000  Uiso   1.00
O1012  O     0.75990   0.97502   0.83115   0.00000  Uiso   1.00
O1013  O     0.73067   0.69787   0.79995   0.00000  Uiso   1.00
O1014  O     0.84597   0.74686   0.78213   0.00000  Uiso   1.00
O1015  O     0.81298   0.92751   0.77013   0.00000  Uiso   1.00
O1016  O     0.74078   0.79958   0.73413   0.00000  Uiso   1.00
O1017  O     0.93360   0.85939   0.71360   0.00000  Uiso   1.00
O1018  O     0.73738   0.85544   0.78213   0.00000  Uiso   1.00
O1019  O     0.92158   0.81892   0.77013   0.00000  Uiso   1.00
O1020  O     0.80426   0.73610   0.73413   0.00000  Uiso   1.00
O1021  O     0.87012   0.92286   0.71360   0.00000  Uiso   1.00
S1022  S     0.76182   0.99261   0.78800   0.00000  Uiso   1.00
Zn1023 Zn    0.86005   0.80661   0.78734   0.00000  Uiso   1.00
Zn1024 Zn    0.80046   0.79124   0.71875   0.00000  Uiso   1.00
Zn1025 Zn    0.87723   0.86442   0.70657   0.00000  Uiso   1.00
Zn1026 Zn    0.79560   0.87106   0.78733   0.00000  Uiso   1.00
loop_
_geom_bond_atom_site_label_1
_geom_bond_atom_site_label_2
_geom_bond_distance
_geom_bond_site_symmetry_2
_ccdc_geom_bond_type
Br1    C10     1.920   .     S
Br2    C357    1.934   1_545 S
Br3    C30     1.933   .     S
Br4    C24     1.930   .     S
Br5    C538    1.940   1_554 S
Br6    C532    1.930   1_554 S
Br7    C31     1.941   .     S
C8     O47     1.263   .     A
C8     O49     1.263   .     A
C8     C14     1.436   .     S
C9     H34     1.081   .     S
C9     C23     1.390   .     A
C9     C28     1.406   .     A
C10    C23     1.402   .     A
C10    C22     1.395   .     A
C11    O48     1.288   .     A
C11    O50     1.284   .     A
C11    C13     1.454   .     S
C12    C24     1.419   .     A
C12    C27     1.422   .     A
C12    C21     1.491   .     S
C13    C71     1.335   .     S
C13    H92     1.088   .     S
C14    C127    1.335   1_455 S
C14    H146    1.086   1_455 S
C15    C18     1.454   .     S
C15    Br173   1.934   .     S
C15    C187    1.354   .     S
C16    C17     1.429   .     S
C16    C357    1.354   1_545 S
C16    S395    1.783   1_545 S
C17    O51     1.262   .     A
C17    O45     1.275   .     A
C18    O52     1.276   .     A
C18    O46     1.262   .     A
C19    C24     1.402   .     A
C19    C25     1.399   .     A
C19    Br519   1.930   .     S
C20    O38     1.272   .     A
C20    C23     1.458   .     S
C20    O40     1.280   .     A
C21    O39     1.287   .     A
C21    O41     1.295   .     A
C22    C542    1.409   1_554 S
C22    H546    1.081   1_554 S
C25    C26     1.422   .     A
C25    Br518   1.940   .     S
C26    C27     1.422   .     A
C26    C541    1.419   .     S
C27    C31     1.421   .     A
C28    C539    1.419   1_554 S
C28    C542    1.420   1_554 S
C29    C30     1.407   .     A
C29    C541    1.420   .     S
C29    C535    1.409   .     S
C30    C31     1.401   .     A
H32    C71     1.086   .     S
H33    C535    1.081   .     S
H35    C127    1.088   1_455 S
H36    O44     0.991   .     S
O37    Zn54    1.968   .     S
O37    Zn56    1.944   .     S
O37    Zn57    1.925   .     S
O37    Zn55    1.926   .     S
O38    Zn55    1.922   .     S
O39    Zn57    1.929   .     S
O40    Zn56    1.913   .     S
O41    Zn54    1.907   .     S
O42    S53     1.504   .     D
O43    S53     1.502   .     D
O44    S395    1.683   1_545 S
O45    Zn54    1.936   .     S
O46    Zn57    1.950   .     S
O47    Zn55    1.926   .     S
O48    Zn56    1.935   .     S
O49    Zn57    1.927   .     S
O50    Zn54    1.923   .     S
O51    Zn55    1.957   .     S
O52    Zn56    1.940   .     S
S53    C187    1.783   .     S
S53    O215    1.683   .     S
Br58   C67     1.920   .     S
Br59   C414    1.934   1_545 S
Br60   C87     1.933   .     S
Br61   C81     1.930   .     S
Br62   C595    1.940   1_554 S
Br63   C589    1.930   1_554 S
Br64   C88     1.941   .     S
C65    O104    1.263   .     A
C65    O106    1.263   .     A
C65    C71     1.436   .     S
C66    H91     1.081   .     S
C66    C80     1.390   .     A
C66    C85     1.406   .     A
C67    C80     1.402   .     A
C67    C79     1.395   .     A
C68    O105    1.288   .     A
C68    O107    1.284   .     A
C68    C70     1.454   .     S
C69    C81     1.419   .     A
C69    C84     1.422   .     A
C69    C78     1.491   .     S
C70    C128    1.335   .     S
C70    H149    1.088   .     S
C72    C75     1.454   .     S
C72    Br230   1.934   .     S
C72    C244    1.354   .     S
C73    C74     1.429   .     S
C73    C414    1.354   1_545 S
C73    S452    1.783   1_545 S
C74    O108    1.262   .     A
C74    O102    1.275   .     A
C75    O109    1.276   .     A
C75    O103    1.262   .     A
C76    C81     1.402   .     A
C76    C82     1.399   .     A
C76    Br576   1.930   .     S
C77    O95     1.272   .     A
C77    C80     1.458   .     S
C77    O97     1.280   .     A
C78    O96     1.287   .     A
C78    O98     1.295   .     A
C79    C599    1.409   1_554 S
C79    H603    1.081   1_554 S
C82    C83     1.422   .     A
C82    Br575   1.940   .     S
C83    C84     1.422   .     A
C83    C598    1.419   .     S
C84    C88     1.421   .     A
C85    C596    1.419   1_554 S
C85    C599    1.420   1_554 S
C86    C87     1.407   .     A
C86    C598    1.420   .     S
C86    C592    1.409   .     S
C87    C88     1.401   .     A
H89    C128    1.086   .     S
H90    C592    1.081   .     S
H93    O101    0.991   .     S
O94    Zn111   1.968   .     S
O94    Zn113   1.944   .     S
O94    Zn114   1.925   .     S
O94    Zn112   1.926   .     S
O95    Zn112   1.922   .     S
O96    Zn114   1.929   .     S
O97    Zn113   1.913   .     S
O98    Zn111   1.907   .     S
O99    S110    1.504   .     D
O100   S110    1.502   .     D
O101   S452    1.683   1_545 S
O102   Zn111   1.936   .     S
O103   Zn114   1.950   .     S
O104   Zn112   1.926   .     S
O105   Zn113   1.935   .     S
O106   Zn114   1.927   .     S
O107   Zn111   1.923   .     S
O108   Zn112   1.957   .     S
O109   Zn113   1.940   .     S
S110   C244    1.783   .     S
S110   O272    1.683   .     S
Br115  C124    1.920   .     S
Br116  C471    1.934   1_545 S
Br117  C144    1.933   .     S
Br118  C138    1.930   .     S
Br119  C652    1.940   1_554 S
Br120  C646    1.930   1_554 S
Br121  C145    1.941   .     S
C122   O161    1.263   .     A
C122   O163    1.263   .     A
C122   C128    1.436   .     S
C123   H148    1.081   .     S
C123   C137    1.390   .     A
C123   C142    1.406   .     A
C124   C137    1.402   .     A
C124   C136    1.395   .     A
C125   O162    1.288   .     A
C125   O164    1.284   .     A
C125   C127    1.454   .     S
C126   C138    1.419   .     A
C126   C141    1.422   .     A
C126   C135    1.491   .     S
C127   C14     1.335   1_655 S
C127   H35     1.088   1_655 S
C129   C132    1.454   .     S
C129   Br287   1.934   .     S
C129   C301    1.354   .     S
C130   C131    1.429   .     S
C130   C471    1.354   1_545 S
C130   S509    1.783   1_545 S
C131   O165    1.262   .     A
C131   O159    1.275   .     A
C132   O166    1.276   .     A
C132   O160    1.262   .     A
C133   C138    1.402   .     A
C133   C139    1.399   .     A
C133   Br633   1.930   .     S
C134   O152    1.272   .     A
C134   C137    1.458   .     S
C134   O154    1.280   .     A
C135   O153    1.287   .     A
C135   O155    1.295   .     A
C136   C656    1.409   1_554 S
C136   H660    1.081   1_554 S
C139   C140    1.422   .     A
C139   Br632   1.940   .     S
C140   C141    1.422   .     A
C140   C655    1.419   .     S
C141   C145    1.421   .     A
C142   C653    1.419   1_554 S
C142   C656    1.420   1_554 S
C143   C144    1.407   .     A
C143   C655    1.420   .     S
C143   C649    1.409   .     S
C144   C145    1.401   .     A
H146   C14     1.086   1_655 S
H147   C649    1.081   .     S
H150   O158    0.991   .     S
O151   Zn168   1.968   .     S
O151   Zn170   1.944   .     S
O151   Zn171   1.925   .     S
O151   Zn169   1.926   .     S
O152   Zn169   1.922   .     S
O153   Zn171   1.929   .     S
O154   Zn170   1.913   .     S
O155   Zn168   1.907   .     S
O156   S167    1.504   .     D
O157   S167    1.502   .     D
O158   S509    1.683   1_545 S
O159   Zn168   1.936   .     S
O160   Zn171   1.950   .     S
O161   Zn169   1.926   .     S
O162   Zn170   1.935   .     S
O163   Zn171   1.927   .     S
O164   Zn168   1.923   .     S
O165   Zn169   1.957   .     S
O166   Zn170   1.940   .     S
S167   C301    1.783   .     S
S167   O329    1.683   .     S
Br172  C181    1.920   .     S
Br174  C201    1.933   .     S
Br175  C195    1.930   .     S
Br176  C709    1.940   1_554 S
Br177  C703    1.930   1_554 S
Br178  C202    1.941   .     S
C179   O218    1.263   .     A
C179   O220    1.263   .     A
C179   C185    1.436   .     S
C180   H205    1.081   .     S
C180   C194    1.390   .     A
C180   C199    1.406   .     A
C181   C194    1.402   .     A
C181   C193    1.395   .     A
C182   O219    1.288   .     A
C182   O221    1.284   .     A
C182   C184    1.454   .     S
C183   C195    1.419   .     A
C183   C198    1.422   .     A
C183   C192    1.491   .     S
C184   C242    1.335   .     S
C184   H263    1.088   .     S
C185   C298    1.335   1_455 S
C185   H317    1.086   1_455 S
C186   C189    1.454   .     S
C186   Br344   1.934   .     S
C186   C358    1.354   .     S
C187   C188    1.429   .     S
C188   O222    1.262   .     A
C188   O216    1.275   .     A
C189   O223    1.276   .     A
C189   O217    1.262   .     A
C190   C195    1.402   .     A
C190   C196    1.399   .     A
C190   Br690   1.930   .     S
C191   O209    1.272   .     A
C191   C194    1.458   .     S
C191   O211    1.280   .     A
C192   O210    1.287   .     A
C192   O212    1.295   .     A
C193   C713    1.409   1_554 S
C193   H717    1.081   1_554 S
C196   C197    1.422   .     A
C196   Br689   1.940   .     S
C197   C198    1.422   .     A
C197   C712    1.419   .     S
C198   C202    1.421   .     A
C199   C710    1.419   1_554 S
C199   C713    1.420   1_554 S
C200   C201    1.407   .     A
C200   C712    1.420   .     S
C200   C706    1.409   .     S
C201   C202    1.401   .     A
H203   C242    1.086   .     S
H204   C706    1.081   .     S
H206   C298    1.088   1_455 S
H207   O215    0.991   .     S
O208   Zn225   1.968   .     S
O208   Zn227   1.944   .     S
O208   Zn228   1.925   .     S
O208   Zn226   1.926   .     S
O209   Zn226   1.922   .     S
O210   Zn228   1.929   .     S
O211   Zn227   1.913   .     S
O212   Zn225   1.907   .     S
O213   S224    1.504   .     D
O214   S224    1.502   .     D
O216   Zn225   1.936   .     S
O217   Zn228   1.950   .     S
O218   Zn226   1.926   .     S
O219   Zn227   1.935   .     S
O220   Zn228   1.927   .     S
O221   Zn225   1.923   .     S
O222   Zn226   1.957   .     S
O223   Zn227   1.940   .     S
S224   C358    1.783   .     S
S224   O386    1.683   .     S
Br229  C238    1.920   .     S
Br231  C258    1.933   .     S
Br232  C252    1.930   .     S
Br233  C766    1.940   1_554 S
Br234  C760    1.930   1_554 S
Br235  C259    1.941   .     S
C236   O275    1.263   .     A
C236   O277    1.263   .     A
C236   C242    1.436   .     S
C237   H262    1.081   .     S
C237   C251    1.390   .     A
C237   C256    1.406   .     A
C238   C251    1.402   .     A
C238   C250    1.395   .     A
C239   O276    1.288   .     A
C239   O278    1.284   .     A
C239   C241    1.454   .     S
C240   C252    1.419   .     A
C240   C255    1.422   .     A
C240   C249    1.491   .     S
C241   C299    1.335   .     S
C241   H320    1.088   .     S
C243   C246    1.454   .     S
C243   Br401   1.934   .     S
C243   C415    1.354   .     S
C244   C245    1.429   .     S
C245   O279    1.262   .     A
C245   O273    1.275   .     A
C246   O280    1.276   .     A
C246   O274    1.262   .     A
C247   C252    1.402   .     A
C247   C253    1.399   .     A
C247   Br747   1.930   .     S
C248   O266    1.272   .     A
C248   C251    1.458   .     S
C248   O268    1.280   .     A
C249   O267    1.287   .     A
C249   O269    1.295   .     A
C250   C770    1.409   1_554 S
C250   H774    1.081   1_554 S
C253   C254    1.422   .     A
C253   Br746   1.940   .     S
C254   C255    1.422   .     A
C254   C769    1.419   .     S
C255   C259    1.421   .     A
C256   C767    1.419   1_554 S
C256   C770    1.420   1_554 S
C257   C258    1.407   .     A
C257   C769    1.420   .     S
C257   C763    1.409   .     S
C258   C259    1.401   .     A
H260   C299    1.086   .     S
H261   C763    1.081   .     S
H264   O272    0.991   .     S
O265   Zn282   1.968   .     S
O265   Zn284   1.944   .     S
O265   Zn285   1.925   .     S
O265   Zn283   1.926   .     S
O266   Zn283   1.922   .     S
O267   Zn285   1.929   .     S
O268   Zn284   1.913   .     S
O269   Zn282   1.907   .     S
O270   S281    1.504   .     D
O271   S281    1.502   .     D
O273   Zn282   1.936   .     S
O274   Zn285   1.950   .     S
O275   Zn283   1.926   .     S
O276   Zn284   1.935   .     S
O277   Zn285   1.927   .     S
O278   Zn282   1.923   .     S
O279   Zn283   1.957   .     S
O280   Zn284   1.940   .     S
S281   C415    1.783   .     S
S281   O443    1.683   .     S
Br286  C295    1.920   .     S
Br288  C315    1.933   .     S
Br289  C309    1.930   .     S
Br290  C823    1.940   1_554 S
Br291  C817    1.930   1_554 S
Br292  C316    1.941   .     S
C293   O332    1.263   .     A
C293   O334    1.263   .     A
C293   C299    1.436   .     S
C294   H319    1.081   .     S
C294   C308    1.390   .     A
C294   C313    1.406   .     A
C295   C308    1.402   .     A
C295   C307    1.395   .     A
C296   O333    1.288   .     A
C296   O335    1.284   .     A
C296   C298    1.454   .     S
C297   C309    1.419   .     A
C297   C312    1.422   .     A
C297   C306    1.491   .     S
C298   C185    1.335   1_655 S
C298   H206    1.088   1_655 S
C300   C303    1.454   .     S
C300   Br458   1.934   .     S
C300   C472    1.354   .     S
C301   C302    1.429   .     S
C302   O336    1.262   .     A
C302   O330    1.275   .     A
C303   O337    1.276   .     A
C303   O331    1.262   .     A
C304   C309    1.402   .     A
C304   C310    1.399   .     A
C304   Br804   1.930   .     S
C305   O323    1.272   .     A
C305   C308    1.458   .     S
C305   O325    1.280   .     A
C306   O324    1.287   .     A
C306   O326    1.295   .     A
C307   C827    1.409   1_554 S
C307   H831    1.081   1_554 S
C310   C311    1.422   .     A
C310   Br803   1.940   .     S
C311   C312    1.422   .     A
C311   C826    1.419   .     S
C312   C316    1.421   .     A
C313   C824    1.419   1_554 S
C313   C827    1.420   1_554 S
C314   C315    1.407   .     A
C314   C826    1.420   .     S
C314   C820    1.409   .     S
C315   C316    1.401   .     A
H317   C185    1.086   1_655 S
H318   C820    1.081   .     S
H321   O329    0.991   .     S
O322   Zn339   1.968   .     S
O322   Zn341   1.944   .     S
O322   Zn342   1.925   .     S
O322   Zn340   1.926   .     S
O323   Zn340   1.922   .     S
O324   Zn342   1.929   .     S
O325   Zn341   1.913   .     S
O326   Zn339   1.907   .     S
O327   S338    1.504   .     D
O328   S338    1.502   .     D
O330   Zn339   1.936   .     S
O331   Zn342   1.950   .     S
O332   Zn340   1.926   .     S
O333   Zn341   1.935   .     S
O334   Zn342   1.927   .     S
O335   Zn339   1.923   .     S
O336   Zn340   1.957   .     S
O337   Zn341   1.940   .     S
S338   C472    1.783   .     S
S338   O500    1.683   .     S
Br343  C352    1.920   .     S
Br345  C372    1.933   .     S
Br346  C366    1.930   .     S
Br347  C880    1.940   1_554 S
Br348  C874    1.930   1_554 S
Br349  C373    1.941   .     S
C350   O389    1.263   .     A
C350   O391    1.263   .     A
C350   C356    1.436   .     S
C351   H376    1.081   .     S
C351   C365    1.390   .     A
C351   C370    1.406   .     A
C352   C365    1.402   .     A
C352   C364    1.395   .     A
C353   O390    1.288   .     A
C353   O392    1.284   .     A
C353   C355    1.454   .     S
C354   C366    1.419   .     A
C354   C369    1.422   .     A
C354   C363    1.491   .     S
C355   C413    1.335   .     S
C355   H434    1.088   .     S
C356   C469    1.335   1_455 S
C356   H488    1.086   1_455 S
C357   C360    1.454   .     S
C357   Br2     1.934   1_565 S
C357   C16     1.354   1_565 S
C358   C359    1.429   .     S
C359   O393    1.262   .     A
C359   O387    1.275   .     A
C360   O394    1.276   .     A
C360   O388    1.262   .     A
C361   C366    1.402   .     A
C361   C367    1.399   .     A
C361   Br861   1.930   .     S
C362   O380    1.272   .     A
C362   C365    1.458   .     S
C362   O382    1.280   .     A
C363   O381    1.287   .     A
C363   O383    1.295   .     A
C364   C884    1.409   1_554 S
C364   H888    1.081   1_554 S
C367   C368    1.422   .     A
C367   Br860   1.940   .     S
C368   C369    1.422   .     A
C368   C883    1.419   .     S
C369   C373    1.421   .     A
C370   C881    1.419   1_554 S
C370   C884    1.420   1_554 S
C371   C372    1.407   .     A
C371   C883    1.420   .     S
C371   C877    1.409   .     S
C372   C373    1.401   .     A
H374   C413    1.086   .     S
H375   C877    1.081   .     S
H377   C469    1.088   1_455 S
H378   O386    0.991   .     S
O379   Zn396   1.968   .     S
O379   Zn398   1.944   .     S
O379   Zn399   1.925   .     S
O379   Zn397   1.926   .     S
O380   Zn397   1.922   .     S
O381   Zn399   1.929   .     S
O382   Zn398   1.913   .     S
O383   Zn396   1.907   .     S
O384   S395    1.504   .     D
O385   S395    1.502   .     D
O387   Zn396   1.936   .     S
O388   Zn399   1.950   .     S
O389   Zn397   1.926   .     S
O390   Zn398   1.935   .     S
O391   Zn399   1.927   .     S
O392   Zn396   1.923   .     S
O393   Zn397   1.957   .     S
O394   Zn398   1.940   .     S
S395   C16     1.783   1_565 S
S395   O44     1.683   1_565 S
Br400  C409    1.920   .     S
Br402  C429    1.933   .     S
Br403  C423    1.930   .     S
Br404  C937    1.940   1_554 S
Br405  C931    1.930   1_554 S
Br406  C430    1.941   .     S
C407   O446    1.263   .     A
C407   O448    1.263   .     A
C407   C413    1.436   .     S
C408   H433    1.081   .     S
C408   C422    1.390   .     A
C408   C427    1.406   .     A
C409   C422    1.402   .     A
C409   C421    1.395   .     A
C410   O447    1.288   .     A
C410   O449    1.284   .     A
C410   C412    1.454   .     S
C411   C423    1.419   .     A
C411   C426    1.422   .     A
C411   C420    1.491   .     S
C412   C470    1.335   .     S
C412   H491    1.088   .     S
C414   C417    1.454   .     S
C414   Br59    1.934   1_565 S
C414   C73     1.354   1_565 S
C415   C416    1.429   .     S
C416   O450    1.262   .     A
C416   O444    1.275   .     A
C417   O451    1.276   .     A
C417   O445    1.262   .     A
C418   C423    1.402   .     A
C418   C424    1.399   .     A
C418   Br918   1.930   .     S
C419   O437    1.272   .     A
C419   C422    1.458   .     S
C419   O439    1.280   .     A
C420   O438    1.287   .     A
C420   O440    1.295   .     A
C421   C941    1.409   1_554 S
C421   H945    1.081   1_554 S
C424   C425    1.422   .     A
C424   Br917   1.940   .     S
C425   C426    1.422   .     A
C425   C940    1.419   .     S
C426   C430    1.421   .     A
C427   C938    1.419   1_554 S
C427   C941    1.420   1_554 S
C428   C429    1.407   .     A
C428   C940    1.420   .     S
C428   C934    1.409   .     S
C429   C430    1.401   .     A
H431   C470    1.086   .     S
H432   C934    1.081   .     S
H435   O443    0.991   .     S
O436   Zn453   1.968   .     S
O436   Zn455   1.944   .     S
O436   Zn456   1.925   .     S
O436   Zn454   1.926   .     S
O437   Zn454   1.922   .     S
O438   Zn456   1.929   .     S
O439   Zn455   1.913   .     S
O440   Zn453   1.907   .     S
O441   S452    1.504   .     D
O442   S452    1.502   .     D
O444   Zn453   1.936   .     S
O445   Zn456   1.950   .     S
O446   Zn454   1.926   .     S
O447   Zn455   1.935   .     S
O448   Zn456   1.927   .     S
O449   Zn453   1.923   .     S
O450   Zn454   1.957   .     S
O451   Zn455   1.940   .     S
S452   C73     1.783   1_565 S
S452   O101    1.683   1_565 S
Br457  C466    1.920   .     S
Br459  C486    1.933   .     S
Br460  C480    1.930   .     S
Br461  C994    1.940   1_554 S
Br462  C988    1.930   1_554 S
Br463  C487    1.941   .     S
C464   O503    1.263   .     A
C464   O505    1.263   .     A
C464   C470    1.436   .     S
C465   H490    1.081   .     S
C465   C479    1.390   .     A
C465   C484    1.406   .     A
C466   C479    1.402   .     A
C466   C478    1.395   .     A
C467   O504    1.288   .     A
C467   O506    1.284   .     A
C467   C469    1.454   .     S
C468   C480    1.419   .     A
C468   C483    1.422   .     A
C468   C477    1.491   .     S
C469   C356    1.335   1_655 S
C469   H377    1.088   1_655 S
C471   C474    1.454   .     S
C471   Br116   1.934   1_565 S
C471   C130    1.354   1_565 S
C472   C473    1.429   .     S
C473   O507    1.262   .     A
C473   O501    1.275   .     A
C474   O508    1.276   .     A
C474   O502    1.262   .     A
C475   C480    1.402   .     A
C475   C481    1.399   .     A
C475   Br975   1.930   .     S
C476   O494    1.272   .     A
C476   C479    1.458   .     S
C476   O496    1.280   .     A
C477   O495    1.287   .     A
C477   O497    1.295   .     A
C478   C998    1.409   1_554 S
C478   H1002   1.081   1_554 S
C481   C482    1.422   .     A
C481   Br974   1.940   .     S
C482   C483    1.422   .     A
C482   C997    1.419   .     S
C483   C487    1.421   .     A
C484   C995    1.419   1_554 S
C484   C998    1.420   1_554 S
C485   C486    1.407   .     A
C485   C997    1.420   .     S
C485   C991    1.409   .     S
C486   C487    1.401   .     A
H488   C356    1.086   1_655 S
H489   C991    1.081   .     S
H492   O500    0.991   .     S
O493   Zn510   1.968   .     S
O493   Zn512   1.944   .     S
O493   Zn513   1.925   .     S
O493   Zn511   1.926   .     S
O494   Zn511   1.922   .     S
O495   Zn513   1.929   .     S
O496   Zn512   1.913   .     S
O497   Zn510   1.907   .     S
O498   S509    1.504   .     D
O499   S509    1.502   .     D
O501   Zn510   1.936   .     S
O502   Zn513   1.950   .     S
O503   Zn511   1.926   .     S
O504   Zn512   1.935   .     S
O505   Zn513   1.927   .     S
O506   Zn510   1.923   .     S
O507   Zn511   1.957   .     S
O508   Zn512   1.940   .     S
S509   C130    1.783   1_565 S
S509   O158    1.683   1_565 S
Br514  C523    1.920   .     S
Br515  C870    1.934   1_545 S
Br516  C543    1.933   .     S
Br517  C537    1.930   .     S
Br520  C544    1.941   .     S
C521   O560    1.263   .     A
C521   O562    1.263   .     A
C521   C527    1.436   .     S
C522   H547    1.081   .     S
C522   C536    1.390   .     A
C522   C541    1.406   .     A
C523   C536    1.402   .     A
C523   C535    1.395   .     A
C524   O561    1.288   .     A
C524   O563    1.284   .     A
C524   C526    1.454   .     S
C525   C537    1.419   .     A
C525   C540    1.422   .     A
C525   C534    1.491   .     S
C526   C584    1.335   .     S
C526   H605    1.088   .     S
C527   C640    1.335   1_455 S
C527   H659    1.086   1_455 S
C528   C531    1.454   .     S
C528   Br686   1.934   .     S
C528   C700    1.354   .     S
C529   C530    1.429   .     S
C529   C870    1.354   1_545 S
C529   S908    1.783   1_545 S
C530   O564    1.262   .     A
C530   O558    1.275   .     A
C531   O565    1.276   .     A
C531   O559    1.262   .     A
C532   C537    1.402   .     A
C532   C538    1.399   .     A
C532   Br6     1.930   1_556 S
C533   O551    1.272   .     A
C533   C536    1.458   .     S
C533   O553    1.280   .     A
C534   O552    1.287   .     A
C534   O554    1.295   .     A
C538   C539    1.422   .     A
C538   Br5     1.940   1_556 S
C539   C540    1.422   .     A
C539   C28     1.419   1_556 S
C540   C544    1.421   .     A
C542   C543    1.407   .     A
C542   C28     1.420   1_556 S
C542   C22     1.409   1_556 S
C543   C544    1.401   .     A
H545   C584    1.086   .     S
H546   C22     1.081   1_556 S
H548   C640    1.088   1_455 S
H549   O557    0.991   .     S
O550   Zn567   1.968   .     S
O550   Zn569   1.944   .     S
O550   Zn570   1.925   .     S
O550   Zn568   1.926   .     S
O551   Zn568   1.922   .     S
O552   Zn570   1.929   .     S
O553   Zn569   1.913   .     S
O554   Zn567   1.907   .     S
O555   S566    1.504   .     D
O556   S566    1.502   .     D
O557   S908    1.683   1_545 S
O558   Zn567   1.936   .     S
O559   Zn570   1.950   .     S
O560   Zn568   1.926   .     S
O561   Zn569   1.935   .     S
O562   Zn570   1.927   .     S
O563   Zn567   1.923   .     S
O564   Zn568   1.957   .     S
O565   Zn569   1.940   .     S
S566   C700    1.783   .     S
S566   O728    1.683   .     S
Br571  C580    1.920   .     S
Br572  C927    1.934   1_545 S
Br573  C600    1.933   .     S
Br574  C594    1.930   .     S
Br577  C601    1.941   .     S
C578   O617    1.263   .     A
C578   O619    1.263   .     A
C578   C584    1.436   .     S
C579   H604    1.081   .     S
C579   C593    1.390   .     A
C579   C598    1.406   .     A
C580   C593    1.402   .     A
C580   C592    1.395   .     A
C581   O618    1.288   .     A
C581   O620    1.284   .     A
C581   C583    1.454   .     S
C582   C594    1.419   .     A
C582   C597    1.422   .     A
C582   C591    1.491   .     S
C583   C641    1.335   .     S
C583   H662    1.088   .     S
C585   C588    1.454   .     S
C585   Br743   1.934   .     S
C585   C757    1.354   .     S
C586   C587    1.429   .     S
C586   C927    1.354   1_545 S
C586   S965    1.783   1_545 S
C587   O621    1.262   .     A
C587   O615    1.275   .     A
C588   O622    1.276   .     A
C588   O616    1.262   .     A
C589   C594    1.402   .     A
C589   C595    1.399   .     A
C589   Br63    1.930   1_556 S
C590   O608    1.272   .     A
C590   C593    1.458   .     S
C590   O610    1.280   .     A
C591   O609    1.287   .     A
C591   O611    1.295   .     A
C595   C596    1.422   .     A
C595   Br62    1.940   1_556 S
C596   C597    1.422   .     A
C596   C85     1.419   1_556 S
C597   C601    1.421   .     A
C599   C600    1.407   .     A
C599   C85     1.420   1_556 S
C599   C79     1.409   1_556 S
C600   C601    1.401   .     A
H602   C641    1.086   .     S
H603   C79     1.081   1_556 S
H606   O614    0.991   .     S
O607   Zn624   1.968   .     S
O607   Zn626   1.944   .     S
O607   Zn627   1.925   .     S
O607   Zn625   1.926   .     S
O608   Zn625   1.922   .     S
O609   Zn627   1.929   .     S
O610   Zn626   1.913   .     S
O611   Zn624   1.907   .     S
O612   S623    1.504   .     D
O613   S623    1.502   .     D
O614   S965    1.683   1_545 S
O615   Zn624   1.936   .     S
O616   Zn627   1.950   .     S
O617   Zn625   1.926   .     S
O618   Zn626   1.935   .     S
O619   Zn627   1.927   .     S
O620   Zn624   1.923   .     S
O621   Zn625   1.957   .     S
O622   Zn626   1.940   .     S
S623   C757    1.783   .     S
S623   O785    1.683   .     S
Br628  C637    1.920   .     S
Br629  C984    1.934   1_545 S
Br630  C657    1.933   .     S
Br631  C651    1.930   .     S
Br634  C658    1.941   .     S
C635   O674    1.263   .     A
C635   O676    1.263   .     A
C635   C641    1.436   .     S
C636   H661    1.081   .     S
C636   C650    1.390   .     A
C636   C655    1.406   .     A
C637   C650    1.402   .     A
C637   C649    1.395   .     A
C638   O675    1.288   .     A
C638   O677    1.284   .     A
C638   C640    1.454   .     S
C639   C651    1.419   .     A
C639   C654    1.422   .     A
C639   C648    1.491   .     S
C640   C527    1.335   1_655 S
C640   H548    1.088   1_655 S
C642   C645    1.454   .     S
C642   Br800   1.934   .     S
C642   C814    1.354   .     S
C643   C644    1.429   .     S
C643   C984    1.354   1_545 S
C643   S1022   1.783   1_545 S
C644   O678    1.262   .     A
C644   O672    1.275   .     A
C645   O679    1.276   .     A
C645   O673    1.262   .     A
C646   C651    1.402   .     A
C646   C652    1.399   .     A
C646   Br120   1.930   1_556 S
C647   O665    1.272   .     A
C647   C650    1.458   .     S
C647   O667    1.280   .     A
C648   O666    1.287   .     A
C648   O668    1.295   .     A
C652   C653    1.422   .     A
C652   Br119   1.940   1_556 S
C653   C654    1.422   .     A
C653   C142    1.419   1_556 S
C654   C658    1.421   .     A
C656   C657    1.407   .     A
C656   C142    1.420   1_556 S
C656   C136    1.409   1_556 S
C657   C658    1.401   .     A
H659   C527    1.086   1_655 S
H660   C136    1.081   1_556 S
H663   O671    0.991   .     S
O664   Zn681   1.968   .     S
O664   Zn683   1.944   .     S
O664   Zn684   1.925   .     S
O664   Zn682   1.926   .     S
O665   Zn682   1.922   .     S
O666   Zn684   1.929   .     S
O667   Zn683   1.913   .     S
O668   Zn681   1.907   .     S
O669   S680    1.504   .     D
O670   S680    1.502   .     D
O671   S1022   1.683   1_545 S
O672   Zn681   1.936   .     S
O673   Zn684   1.950   .     S
O674   Zn682   1.926   .     S
O675   Zn683   1.935   .     S
O676   Zn684   1.927   .     S
O677   Zn681   1.923   .     S
O678   Zn682   1.957   .     S
O679   Zn683   1.940   .     S
S680   C814    1.783   .     S
S680   O842    1.683   .     S
Br685  C694    1.920   .     S
Br687  C714    1.933   .     S
Br688  C708    1.930   .     S
Br691  C715    1.941   .     S
C692   O731    1.263   .     A
C692   O733    1.263   .     A
C692   C698    1.436   .     S
C693   H718    1.081   .     S
C693   C707    1.390   .     A
C693   C712    1.406   .     A
C694   C707    1.402   .     A
C694   C706    1.395   .     A
C695   O732    1.288   .     A
C695   O734    1.284   .     A
C695   C697    1.454   .     S
C696   C708    1.419   .     A
C696   C711    1.422   .     A
C696   C705    1.491   .     S
C697   C755    1.335   .     S
C697   H776    1.088   .     S
C698   C811    1.335   1_455 S
C698   H830    1.086   1_455 S
C699   C702    1.454   .     S
C699   Br857   1.934   .     S
C699   C871    1.354   .     S
C700   C701    1.429   .     S
C701   O735    1.262   .     A
C701   O729    1.275   .     A
C702   O736    1.276   .     A
C702   O730    1.262   .     A
C703   C708    1.402   .     A
C703   C709    1.399   .     A
C703   Br177   1.930   1_556 S
C704   O722    1.272   .     A
C704   C707    1.458   .     S
C704   O724    1.280   .     A
C705   O723    1.287   .     A
C705   O725    1.295   .     A
C709   C710    1.422   .     A
C709   Br176   1.940   1_556 S
C710   C711    1.422   .     A
C710   C199    1.419   1_556 S
C711   C715    1.421   .     A
C713   C714    1.407   .     A
C713   C199    1.420   1_556 S
C713   C193    1.409   1_556 S
C714   C715    1.401   .     A
H716   C755    1.086   .     S
H717   C193    1.081   1_556 S
H719   C811    1.088   1_455 S
H720   O728    0.991   .     S
O721   Zn738   1.968   .     S
O721   Zn740   1.944   .     S
O721   Zn741   1.925   .     S
O721   Zn739   1.926   .     S
O722   Zn739   1.922   .     S
O723   Zn741   1.929   .     S
O724   Zn740   1.913   .     S
O725   Zn738   1.907   .     S
O726   S737    1.504   .     D
O727   S737    1.502   .     D
O729   Zn738   1.936   .     S
O730   Zn741   1.950   .     S
O731   Zn739   1.926   .     S
O732   Zn740   1.935   .     S
O733   Zn741   1.927   .     S
O734   Zn738   1.923   .     S
O735   Zn739   1.957   .     S
O736   Zn740   1.940   .     S
S737   C871    1.783   .     S
S737   O899    1.683   .     S
Br742  C751    1.920   .     S
Br744  C771    1.933   .     S
Br745  C765    1.930   .     S
Br748  C772    1.941   .     S
C749   O788    1.263   .     A
C749   O790    1.263   .     A
C749   C755    1.436   .     S
C750   H775    1.081   .     S
C750   C764    1.390   .     A
C750   C769    1.406   .     A
C751   C764    1.402   .     A
C751   C763    1.395   .     A
C752   O789    1.288   .     A
C752   O791    1.284   .     A
C752   C754    1.454   .     S
C753   C765    1.419   .     A
C753   C768    1.422   .     A
C753   C762    1.491   .     S
C754   C812    1.335   .     S
C754   H833    1.088   .     S
C756   C759    1.454   .     S
C756   Br914   1.934   .     S
C756   C928    1.354   .     S
C757   C758    1.429   .     S
C758   O792    1.262   .     A
C758   O786    1.275   .     A
C759   O793    1.276   .     A
C759   O787    1.262   .     A
C760   C765    1.402   .     A
C760   C766    1.399   .     A
C760   Br234   1.930   1_556 S
C761   O779    1.272   .     A
C761   C764    1.458   .     S
C761   O781    1.280   .     A
C762   O780    1.287   .     A
C762   O782    1.295   .     A
C766   C767    1.422   .     A
C766   Br233   1.940   1_556 S
C767   C768    1.422   .     A
C767   C256    1.419   1_556 S
C768   C772    1.421   .     A
C770   C771    1.407   .     A
C770   C256    1.420   1_556 S
C770   C250    1.409   1_556 S
C771   C772    1.401   .     A
H773   C812    1.086   .     S
H774   C250    1.081   1_556 S
H777   O785    0.991   .     S
O778   Zn795   1.968   .     S
O778   Zn797   1.944   .     S
O778   Zn798   1.925   .     S
O778   Zn796   1.926   .     S
O779   Zn796   1.922   .     S
O780   Zn798   1.929   .     S
O781   Zn797   1.913   .     S
O782   Zn795   1.907   .     S
O783   S794    1.504   .     D
O784   S794    1.502   .     D
O786   Zn795   1.936   .     S
O787   Zn798   1.950   .     S
O788   Zn796   1.926   .     S
O789   Zn797   1.935   .     S
O790   Zn798   1.927   .     S
O791   Zn795   1.923   .     S
O792   Zn796   1.957   .     S
O793   Zn797   1.940   .     S
S794   C928    1.783   .     S
S794   O956    1.683   .     S
Br799  C808    1.920   .     S
Br801  C828    1.933   .     S
Br802  C822    1.930   .     S
Br805  C829    1.941   .     S
C806   O845    1.263   .     A
C806   O847    1.263   .     A
C806   C812    1.436   .     S
C807   H832    1.081   .     S
C807   C821    1.390   .     A
C807   C826    1.406   .     A
C808   C821    1.402   .     A
C808   C820    1.395   .     A
C809   O846    1.288   .     A
C809   O848    1.284   .     A
C809   C811    1.454   .     S
C810   C822    1.419   .     A
C810   C825    1.422   .     A
C810   C819    1.491   .     S
C811   C698    1.335   1_655 S
C811   H719    1.088   1_655 S
C813   C816    1.454   .     S
C813   Br971   1.934   .     S
C813   C985    1.354   .     S
C814   C815    1.429   .     S
C815   O849    1.262   .     A
C815   O843    1.275   .     A
C816   O850    1.276   .     A
C816   O844    1.262   .     A
C817   C822    1.402   .     A
C817   C823    1.399   .     A
C817   Br291   1.930   1_556 S
C818   O836    1.272   .     A
C818   C821    1.458   .     S
C818   O838    1.280   .     A
C819   O837    1.287   .     A
C819   O839    1.295   .     A
C823   C824    1.422   .     A
C823   Br290   1.940   1_556 S
C824   C825    1.422   .     A
C824   C313    1.419   1_556 S
C825   C829    1.421   .     A
C827   C828    1.407   .     A
C827   C313    1.420   1_556 S
C827   C307    1.409   1_556 S
C828   C829    1.401   .     A
H830   C698    1.086   1_655 S
H831   C307    1.081   1_556 S
H834   O842    0.991   .     S
O835   Zn852   1.968   .     S
O835   Zn854   1.944   .     S
O835   Zn855   1.925   .     S
O835   Zn853   1.926   .     S
O836   Zn853   1.922   .     S
O837   Zn855   1.929   .     S
O838   Zn854   1.913   .     S
O839   Zn852   1.907   .     S
O840   S851    1.504   .     D
O841   S851    1.502   .     D
O843   Zn852   1.936   .     S
O844   Zn855   1.950   .     S
O845   Zn853   1.926   .     S
O846   Zn854   1.935   .     S
O847   Zn855   1.927   .     S
O848   Zn852   1.923   .     S
O849   Zn853   1.957   .     S
O850   Zn854   1.940   .     S
S851   C985    1.783   .     S
S851   O1013   1.683   .     S
Br856  C865    1.920   .     S
Br858  C885    1.933   .     S
Br859  C879    1.930   .     S
Br862  C886    1.941   .     S
C863   O902    1.263   .     A
C863   O904    1.263   .     A
C863   C869    1.436   .     S
C864   H889    1.081   .     S
C864   C878    1.390   .     A
C864   C883    1.406   .     A
C865   C878    1.402   .     A
C865   C877    1.395   .     A
C866   O903    1.288   .     A
C866   O905    1.284   .     A
C866   C868    1.454   .     S
C867   C879    1.419   .     A
C867   C882    1.422   .     A
C867   C876    1.491   .     S
C868   C926    1.335   .     S
C868   H947    1.088   .     S
C869   C982    1.335   1_455 S
C869   H1001   1.086   1_455 S
C870   C873    1.454   .     S
C870   Br515   1.934   1_565 S
C870   C529    1.354   1_565 S
C871   C872    1.429   .     S
C872   O906    1.262   .     A
C872   O900    1.275   .     A
C873   O907    1.276   .     A
C873   O901    1.262   .     A
C874   C879    1.402   .     A
C874   C880    1.399   .     A
C874   Br348   1.930   1_556 S
C875   O893    1.272   .     A
C875   C878    1.458   .     S
C875   O895    1.280   .     A
C876   O894    1.287   .     A
C876   O896    1.295   .     A
C880   C881    1.422   .     A
C880   Br347   1.940   1_556 S
C881   C882    1.422   .     A
C881   C370    1.419   1_556 S
C882   C886    1.421   .     A
C884   C885    1.407   .     A
C884   C370    1.420   1_556 S
C884   C364    1.409   1_556 S
C885   C886    1.401   .     A
H887   C926    1.086   .     S
H888   C364    1.081   1_556 S
H890   C982    1.088   1_455 S
H891   O899    0.991   .     S
O892   Zn909   1.968   .     S
O892   Zn911   1.944   .     S
O892   Zn912   1.925   .     S
O892   Zn910   1.926   .     S
O893   Zn910   1.922   .     S
O894   Zn912   1.929   .     S
O895   Zn911   1.913   .     S
O896   Zn909   1.907   .     S
O897   S908    1.504   .     D
O898   S908    1.502   .     D
O900   Zn909   1.936   .     S
O901   Zn912   1.950   .     S
O902   Zn910   1.926   .     S
O903   Zn911   1.935   .     S
O904   Zn912   1.927   .     S
O905   Zn909   1.923   .     S
O906   Zn910   1.957   .     S
O907   Zn911   1.940   .     S
S908   C529    1.783   1_565 S
S908   O557    1.683   1_565 S
Br913  C922    1.920   .     S
Br915  C942    1.933   .     S
Br916  C936    1.930   .     S
Br919  C943    1.941   .     S
C920   O959    1.263   .     A
C920   O961    1.263   .     A
C920   C926    1.436   .     S
C921   H946    1.081   .     S
C921   C935    1.390   .     A
C921   C940    1.406   .     A
C922   C935    1.402   .     A
C922   C934    1.395   .     A
C923   O960    1.288   .     A
C923   O962    1.284   .     A
C923   C925    1.454   .     S
C924   C936    1.419   .     A
C924   C939    1.422   .     A
C924   C933    1.491   .     S
C925   C983    1.335   .     S
C925   H1004   1.088   .     S
C927   C930    1.454   .     S
C927   Br572   1.934   1_565 S
C927   C586    1.354   1_565 S
C928   C929    1.429   .     S
C929   O963    1.262   .     A
C929   O957    1.275   .     A
C930   O964    1.276   .     A
C930   O958    1.262   .     A
C931   C936    1.402   .     A
C931   C937    1.399   .     A
C931   Br405   1.930   1_556 S
C932   O950    1.272   .     A
C932   C935    1.458   .     S
C932   O952    1.280   .     A
C933   O951    1.287   .     A
C933   O953    1.295   .     A
C937   C938    1.422   .     A
C937   Br404   1.940   1_556 S
C938   C939    1.422   .     A
C938   C427    1.419   1_556 S
C939   C943    1.421   .     A
C941   C942    1.407   .     A
C941   C427    1.420   1_556 S
C941   C421    1.409   1_556 S
C942   C943    1.401   .     A
H944   C983    1.086   .     S
H945   C421    1.081   1_556 S
H948   O956    0.991   .     S
O949   Zn966   1.968   .     S
O949   Zn968   1.944   .     S
O949   Zn969   1.925   .     S
O949   Zn967   1.926   .     S
O950   Zn967   1.922   .     S
O951   Zn969   1.929   .     S
O952   Zn968   1.913   .     S
O953   Zn966   1.907   .     S
O954   S965    1.504   .     D
O955   S965    1.502   .     D
O957   Zn966   1.936   .     S
O958   Zn969   1.950   .     S
O959   Zn967   1.926   .     S
O960   Zn968   1.935   .     S
O961   Zn969   1.927   .     S
O962   Zn966   1.923   .     S
O963   Zn967   1.957   .     S
O964   Zn968   1.940   .     S
S965   C586    1.783   1_565 S
S965   O614    1.683   1_565 S
Br970  C979    1.920   .     S
Br972  C999    1.933   .     S
Br973  C993    1.930   .     S
Br976  C1000   1.941   .     S
C977   O1016   1.263   .     A
C977   O1018   1.263   .     A
C977   C983    1.436   .     S
C978   H1003   1.081   .     S
C978   C992    1.390   .     A
C978   C997    1.406   .     A
C979   C992    1.402   .     A
C979   C991    1.395   .     A
C980   O1017   1.288   .     A
C980   O1019   1.284   .     A
C980   C982    1.454   .     S
C981   C993    1.419   .     A
C981   C996    1.422   .     A
C981   C990    1.491   .     S
C982   C869    1.335   1_655 S
C982   H890    1.088   1_655 S
C984   C987    1.454   .     S
C984   Br629   1.934   1_565 S
C984   C643    1.354   1_565 S
C985   C986    1.429   .     S
C986   O1020   1.262   .     A
C986   O1014   1.275   .     A
C987   O1021   1.276   .     A
C987   O1015   1.262   .     A
C988   C993    1.402   .     A
C988   C994    1.399   .     A
C988   Br462   1.930   1_556 S
C989   O1007   1.272   .     A
C989   C992    1.458   .     S
C989   O1009   1.280   .     A
C990   O1008   1.287   .     A
C990   O1010   1.295   .     A
C994   C995    1.422   .     A
C994   Br461   1.940   1_556 S
C995   C996    1.422   .     A
C995   C484    1.419   1_556 S
C996   C1000   1.421   .     A
C998   C999    1.407   .     A
C998   C484    1.420   1_556 S
C998   C478    1.409   1_556 S
C999   C1000   1.401   .     A
H1001  C869    1.086   1_655 S
H1002  C478    1.081   1_556 S
H1005  O1013   0.991   .     S
O1006  Zn1023  1.968   .     S
O1006  Zn1025  1.944   .     S
O1006  Zn1026  1.925   .     S
O1006  Zn1024  1.926   .     S
O1007  Zn1024  1.922   .     S
O1008  Zn1026  1.929   .     S
O1009  Zn1025  1.913   .     S
O1010  Zn1023  1.907   .     S
O1011  S1022   1.504   .     D
O1012  S1022   1.502   .     D
O1014  Zn1023  1.936   .     S
O1015  Zn1026  1.950   .     S
O1016  Zn1024  1.926   .     S
O1017  Zn1025  1.935   .     S
O1018  Zn1026  1.927   .     S
O1019  Zn1023  1.923   .     S
O1020  Zn1024  1.957   .     S
O1021  Zn1025  1.940   .     S
S1022  C643    1.783   1_565 S
S1022  O671    1.683   1_565 S
