data_str_m2_o1_o17_pcu_sym.68
_audit_creation_date              2020-01-03
_audit_creation_method            'Materials Studio'
_symmetry_space_group_name_H-M    'P1'
_symmetry_Int_Tables_number       1
_symmetry_cell_setting            triclinic
loop_
_symmetry_equiv_pos_as_xyz
  x,y,z
_cell_length_a                    32.4618
_cell_length_b                    28.8535
_cell_length_c                    30.0200
_cell_angle_alpha                 89.2530
_cell_angle_beta                  91.4997
_cell_angle_gamma                 89.4828
loop_
_atom_site_label
_atom_site_type_symbol
_atom_site_fract_x
_atom_site_fract_y
_atom_site_fract_z
_atom_site_U_iso_or_equiv
_atom_site_adp_type
_atom_site_occupancy
O1     O     0.10655   0.20625   0.25000   0.00000  Uiso   1.00
O2     O     0.22679   0.12709   0.25001   0.00000  Uiso   1.00
O3     O     0.22679   0.20625   0.25001   0.00000  Uiso   1.00
O4     O     0.10655   0.12709   0.25000   0.00000  Uiso   1.00
C5     C     0.08746   0.16679   0.24995   0.00000  Uiso   1.00
C6     C     0.24588   0.16655   0.25005   0.00000  Uiso   1.00
O7     O     0.16666   0.20627   0.18513   0.00000  Uiso   1.00
O8     O     0.16668   0.12707   0.31487   0.00000  Uiso   1.00
O9     O     0.16668   0.20627   0.31487   0.00000  Uiso   1.00
O10    O     0.16666   0.12707   0.18513   0.00000  Uiso   1.00
C11    C     0.16577   0.16696   0.16462   0.00000  Uiso   1.00
C12    C     0.16756   0.16638   0.33538   0.00000  Uiso   1.00
Cu13   Cu    0.16667   0.21355   0.25000   0.00000  Uiso   1.00
Cu14   Cu    0.16667   0.11978   0.25000   0.00000  Uiso   1.00
C15    C     0.20474   0.18057   0.40782   0.00000  Uiso   1.00
C16    C     0.12859   0.15276   0.09219   0.00000  Uiso   1.00
C17    C     0.16942   0.16568   0.38362   0.00000  Uiso   1.00
C18    C     0.16391   0.16765   0.11638   0.00000  Uiso   1.00
C19    C     0.13455   0.15032   0.40529   0.00000  Uiso   1.00
C20    C     0.19878   0.18302   0.09471   0.00000  Uiso   1.00
C21    C     0.13327   0.15063   0.45147   0.00000  Uiso   1.00
C22    C     0.20006   0.18270   0.04853   0.00000  Uiso   1.00
C23    C     0.16754   0.16639   0.47656   0.00000  Uiso   1.00
C24    C     0.16579   0.16695   0.02344   0.00000  Uiso   1.00
C25    C     0.20351   0.18145   0.45490   0.00000  Uiso   1.00
C26    C     0.12982   0.15188   0.04510   0.00000  Uiso   1.00
C27    C     0.09791   0.13574   0.47278   0.00000  Uiso   1.00
C28    C     0.23542   0.19760   0.02722   0.00000  Uiso   1.00
C29    C     0.09611   0.13634   0.01897   0.00000  Uiso   1.00
C30    C     0.23722   0.19699   0.48103   0.00000  Uiso   1.00
H31    H     0.10799   0.13876   0.38585   0.00000  Uiso   1.00
H32    H     0.22534   0.19458   0.11415   0.00000  Uiso   1.00
H33    H     0.07145   0.12362   0.45363   0.00000  Uiso   1.00
H34    H     0.26188   0.20972   0.04637   0.00000  Uiso   1.00
H35    H     0.06805   0.12434   0.03374   0.00000  Uiso   1.00
H36    H     0.26528   0.20900   0.46626   0.00000  Uiso   1.00
C37    C     0.02164   0.12466   0.24869   0.00000  Uiso   1.00
C38    C     0.31169   0.20867   0.25131   0.00000  Uiso   1.00
C39    C     0.31237   0.12451   0.24882   0.00000  Uiso   1.00
C40    C     0.02097   0.20882   0.25118   0.00000  Uiso   1.00
H41    H     0.03790   0.09177   0.24764   0.00000  Uiso   1.00
H42    H     0.29543   0.24157   0.25236   0.00000  Uiso   1.00
H43    H     0.29663   0.09158   0.24784   0.00000  Uiso   1.00
H44    H     0.03670   0.24175   0.25216   0.00000  Uiso   1.00
C45    C     0.29055   0.16652   0.25011   0.00000  Uiso   1.00
C46    C     0.04279   0.16681   0.24989   0.00000  Uiso   1.00
C47    C     0.14274   0.02600   0.22008   0.00000  Uiso   1.00
C48    C     0.19059   0.30733   0.27993   0.00000  Uiso   1.00
C49    C     0.19020   0.02330   0.28065   0.00000  Uiso   1.00
C50    C     0.14316   0.31003   0.21933   0.00000  Uiso   1.00
N51    N     0.16667   0.28402   0.25000   0.00000  Uiso   1.00
N52    N     0.16667   0.04931   0.25000   0.00000  Uiso   1.00
C53    C     0.24371   0.19399   0.38410   0.00000  Uiso   1.00
H54    H     0.26979   0.17175   0.39643   0.00000  Uiso   1.00
H55    H     0.24167   0.18960   0.34754   0.00000  Uiso   1.00
H56    H     0.25091   0.23087   0.39059   0.00000  Uiso   1.00
C57    C     0.08962   0.13934   0.11590   0.00000  Uiso   1.00
H58    H     0.08242   0.10247   0.10941   0.00000  Uiso   1.00
H59    H     0.09167   0.14373   0.15246   0.00000  Uiso   1.00
H60    H     0.06355   0.16159   0.10357   0.00000  Uiso   1.00
N61    N     0.11702   0.05175   0.18906   0.00000  Uiso   1.00
H62    H     0.12556   0.04331   0.15680   0.00000  Uiso   1.00
H63    H     0.08650   0.04162   0.19317   0.00000  Uiso   1.00
N64    N     0.21631   0.28157   0.31094   0.00000  Uiso   1.00
H65    H     0.24683   0.29169   0.30682   0.00000  Uiso   1.00
H66    H     0.20778   0.29003   0.34320   0.00000  Uiso   1.00
N67    N     0.21374   0.04433   0.31581   0.00000  Uiso   1.00
H68    H     0.19408   0.05651   0.34004   0.00000  Uiso   1.00
H69    H     0.23301   0.06988   0.30384   0.00000  Uiso   1.00
N70    N     0.11977   0.28900   0.18406   0.00000  Uiso   1.00
H71    H     0.10072   0.26318   0.19589   0.00000  Uiso   1.00
H72    H     0.13957   0.27707   0.15985   0.00000  Uiso   1.00
O73    O     0.43988   0.20625   0.25000   0.00000  Uiso   1.00
O74    O     0.56012   0.12709   0.25001   0.00000  Uiso   1.00
O75    O     0.56012   0.20625   0.25001   0.00000  Uiso   1.00
O76    O     0.43988   0.12709   0.25000   0.00000  Uiso   1.00
C77    C     0.42079   0.16679   0.24995   0.00000  Uiso   1.00
C78    C     0.57921   0.16655   0.25005   0.00000  Uiso   1.00
O79    O     0.49999   0.20627   0.18513   0.00000  Uiso   1.00
O80    O     0.50001   0.12707   0.31487   0.00000  Uiso   1.00
O81    O     0.50001   0.20627   0.31487   0.00000  Uiso   1.00
O82    O     0.49999   0.12707   0.18513   0.00000  Uiso   1.00
C83    C     0.49910   0.16696   0.16462   0.00000  Uiso   1.00
C84    C     0.50090   0.16638   0.33538   0.00000  Uiso   1.00
Cu85   Cu    0.50000   0.21355   0.25000   0.00000  Uiso   1.00
Cu86   Cu    0.50000   0.11978   0.25000   0.00000  Uiso   1.00
C87    C     0.53808   0.18057   0.40782   0.00000  Uiso   1.00
C88    C     0.46192   0.15276   0.09219   0.00000  Uiso   1.00
C89    C     0.50275   0.16568   0.38362   0.00000  Uiso   1.00
C90    C     0.49725   0.16765   0.11638   0.00000  Uiso   1.00
C91    C     0.46789   0.15032   0.40529   0.00000  Uiso   1.00
C92    C     0.53211   0.18302   0.09471   0.00000  Uiso   1.00
C93    C     0.46660   0.15063   0.45147   0.00000  Uiso   1.00
C94    C     0.53339   0.18270   0.04853   0.00000  Uiso   1.00
C95    C     0.50087   0.16639   0.47656   0.00000  Uiso   1.00
C96    C     0.49913   0.16695   0.02344   0.00000  Uiso   1.00
C97    C     0.53684   0.18145   0.45490   0.00000  Uiso   1.00
C98    C     0.46315   0.15188   0.04510   0.00000  Uiso   1.00
C99    C     0.43124   0.13574   0.47278   0.00000  Uiso   1.00
C100   C     0.56876   0.19760   0.02722   0.00000  Uiso   1.00
C101   C     0.42944   0.13634   0.01897   0.00000  Uiso   1.00
C102   C     0.57055   0.19699   0.48103   0.00000  Uiso   1.00
H103   H     0.44133   0.13876   0.38585   0.00000  Uiso   1.00
H104   H     0.55867   0.19458   0.11415   0.00000  Uiso   1.00
H105   H     0.40478   0.12362   0.45363   0.00000  Uiso   1.00
H106   H     0.59522   0.20972   0.04637   0.00000  Uiso   1.00
H107   H     0.40139   0.12434   0.03374   0.00000  Uiso   1.00
H108   H     0.59861   0.20900   0.46626   0.00000  Uiso   1.00
C109   C     0.35497   0.12466   0.24869   0.00000  Uiso   1.00
C110   C     0.64503   0.20867   0.25131   0.00000  Uiso   1.00
C111   C     0.64570   0.12451   0.24882   0.00000  Uiso   1.00
C112   C     0.35430   0.20882   0.25118   0.00000  Uiso   1.00
H113   H     0.37124   0.09177   0.24764   0.00000  Uiso   1.00
H114   H     0.62876   0.24157   0.25236   0.00000  Uiso   1.00
H115   H     0.62996   0.09158   0.24784   0.00000  Uiso   1.00
H116   H     0.37004   0.24175   0.25216   0.00000  Uiso   1.00
C117   C     0.62388   0.16652   0.25011   0.00000  Uiso   1.00
C118   C     0.37612   0.16681   0.24989   0.00000  Uiso   1.00
C119   C     0.47607   0.02600   0.22008   0.00000  Uiso   1.00
C120   C     0.52392   0.30733   0.27993   0.00000  Uiso   1.00
C121   C     0.52353   0.02330   0.28065   0.00000  Uiso   1.00
C122   C     0.47649   0.31003   0.21933   0.00000  Uiso   1.00
N123   N     0.50000   0.28402   0.25000   0.00000  Uiso   1.00
N124   N     0.50000   0.04931   0.25000   0.00000  Uiso   1.00
C125   C     0.57705   0.19399   0.38410   0.00000  Uiso   1.00
H126   H     0.60312   0.17175   0.39643   0.00000  Uiso   1.00
H127   H     0.57500   0.18960   0.34754   0.00000  Uiso   1.00
H128   H     0.58424   0.23087   0.39059   0.00000  Uiso   1.00
C129   C     0.42295   0.13934   0.11590   0.00000  Uiso   1.00
H130   H     0.41576   0.10247   0.10941   0.00000  Uiso   1.00
H131   H     0.42500   0.14373   0.15246   0.00000  Uiso   1.00
H132   H     0.39688   0.16159   0.10357   0.00000  Uiso   1.00
N133   N     0.45035   0.05175   0.18906   0.00000  Uiso   1.00
H134   H     0.45890   0.04331   0.15680   0.00000  Uiso   1.00
H135   H     0.41983   0.04162   0.19317   0.00000  Uiso   1.00
N136   N     0.54964   0.28157   0.31094   0.00000  Uiso   1.00
H137   H     0.58016   0.29169   0.30682   0.00000  Uiso   1.00
H138   H     0.54111   0.29003   0.34320   0.00000  Uiso   1.00
N139   N     0.54707   0.04433   0.31581   0.00000  Uiso   1.00
H140   H     0.52741   0.05651   0.34004   0.00000  Uiso   1.00
H141   H     0.56635   0.06988   0.30384   0.00000  Uiso   1.00
N142   N     0.45311   0.28900   0.18406   0.00000  Uiso   1.00
H143   H     0.43405   0.26318   0.19589   0.00000  Uiso   1.00
H144   H     0.47290   0.27707   0.15985   0.00000  Uiso   1.00
O145   O     0.77321   0.20625   0.25000   0.00000  Uiso   1.00
O146   O     0.89345   0.12709   0.25001   0.00000  Uiso   1.00
O147   O     0.89345   0.20625   0.25001   0.00000  Uiso   1.00
O148   O     0.77321   0.12709   0.25000   0.00000  Uiso   1.00
C149   C     0.75412   0.16679   0.24995   0.00000  Uiso   1.00
C150   C     0.91254   0.16655   0.25005   0.00000  Uiso   1.00
O151   O     0.83332   0.20627   0.18513   0.00000  Uiso   1.00
O152   O     0.83334   0.12707   0.31487   0.00000  Uiso   1.00
O153   O     0.83334   0.20627   0.31487   0.00000  Uiso   1.00
O154   O     0.83332   0.12707   0.18513   0.00000  Uiso   1.00
C155   C     0.83244   0.16696   0.16462   0.00000  Uiso   1.00
C156   C     0.83423   0.16638   0.33538   0.00000  Uiso   1.00
Cu157  Cu    0.83333   0.21355   0.25000   0.00000  Uiso   1.00
Cu158  Cu    0.83333   0.11978   0.25000   0.00000  Uiso   1.00
C159   C     0.87141   0.18057   0.40782   0.00000  Uiso   1.00
C160   C     0.79526   0.15276   0.09219   0.00000  Uiso   1.00
C161   C     0.83609   0.16568   0.38362   0.00000  Uiso   1.00
C162   C     0.83058   0.16765   0.11638   0.00000  Uiso   1.00
C163   C     0.80122   0.15032   0.40529   0.00000  Uiso   1.00
C164   C     0.86545   0.18302   0.09471   0.00000  Uiso   1.00
C165   C     0.79994   0.15063   0.45147   0.00000  Uiso   1.00
C166   C     0.86673   0.18270   0.04853   0.00000  Uiso   1.00
C167   C     0.83420   0.16639   0.47656   0.00000  Uiso   1.00
C168   C     0.83246   0.16695   0.02344   0.00000  Uiso   1.00
C169   C     0.87018   0.18145   0.45490   0.00000  Uiso   1.00
C170   C     0.79649   0.15188   0.04510   0.00000  Uiso   1.00
C171   C     0.76457   0.13574   0.47278   0.00000  Uiso   1.00
C172   C     0.90209   0.19760   0.02722   0.00000  Uiso   1.00
C173   C     0.76278   0.13634   0.01897   0.00000  Uiso   1.00
C174   C     0.90389   0.19699   0.48103   0.00000  Uiso   1.00
H175   H     0.77466   0.13876   0.38585   0.00000  Uiso   1.00
H176   H     0.89200   0.19458   0.11415   0.00000  Uiso   1.00
H177   H     0.73812   0.12362   0.45363   0.00000  Uiso   1.00
H178   H     0.92855   0.20972   0.04637   0.00000  Uiso   1.00
H179   H     0.73472   0.12434   0.03374   0.00000  Uiso   1.00
H180   H     0.93194   0.20900   0.46626   0.00000  Uiso   1.00
C181   C     0.68831   0.12466   0.24869   0.00000  Uiso   1.00
C182   C     0.97836   0.20867   0.25131   0.00000  Uiso   1.00
C183   C     0.97903   0.12451   0.24882   0.00000  Uiso   1.00
C184   C     0.68763   0.20882   0.25118   0.00000  Uiso   1.00
H185   H     0.70457   0.09177   0.24764   0.00000  Uiso   1.00
H186   H     0.96210   0.24157   0.25236   0.00000  Uiso   1.00
H187   H     0.96330   0.09158   0.24784   0.00000  Uiso   1.00
H188   H     0.70337   0.24175   0.25216   0.00000  Uiso   1.00
C189   C     0.95721   0.16652   0.25011   0.00000  Uiso   1.00
C190   C     0.70945   0.16681   0.24989   0.00000  Uiso   1.00
C191   C     0.80941   0.02600   0.22008   0.00000  Uiso   1.00
C192   C     0.85725   0.30733   0.27993   0.00000  Uiso   1.00
C193   C     0.85686   0.02330   0.28065   0.00000  Uiso   1.00
C194   C     0.80982   0.31003   0.21933   0.00000  Uiso   1.00
N195   N     0.83333   0.28402   0.25000   0.00000  Uiso   1.00
N196   N     0.83333   0.04931   0.25000   0.00000  Uiso   1.00
C197   C     0.91038   0.19399   0.38410   0.00000  Uiso   1.00
H198   H     0.93645   0.17175   0.39643   0.00000  Uiso   1.00
H199   H     0.90833   0.18960   0.34754   0.00000  Uiso   1.00
H200   H     0.91758   0.23087   0.39059   0.00000  Uiso   1.00
C201   C     0.75629   0.13934   0.11590   0.00000  Uiso   1.00
H202   H     0.74909   0.10247   0.10941   0.00000  Uiso   1.00
H203   H     0.75833   0.14373   0.15246   0.00000  Uiso   1.00
H204   H     0.73021   0.16159   0.10357   0.00000  Uiso   1.00
N205   N     0.78369   0.05175   0.18906   0.00000  Uiso   1.00
H206   H     0.79223   0.04331   0.15680   0.00000  Uiso   1.00
H207   H     0.75317   0.04162   0.19317   0.00000  Uiso   1.00
N208   N     0.88297   0.28157   0.31094   0.00000  Uiso   1.00
H209   H     0.91350   0.29169   0.30682   0.00000  Uiso   1.00
H210   H     0.87444   0.29003   0.34320   0.00000  Uiso   1.00
N211   N     0.88041   0.04433   0.31581   0.00000  Uiso   1.00
H212   H     0.86075   0.05651   0.34004   0.00000  Uiso   1.00
H213   H     0.89968   0.06988   0.30384   0.00000  Uiso   1.00
N214   N     0.78644   0.28900   0.18406   0.00000  Uiso   1.00
H215   H     0.76739   0.26318   0.19589   0.00000  Uiso   1.00
H216   H     0.80624   0.27707   0.15985   0.00000  Uiso   1.00
O217   O     0.10655   0.53958   0.25000   0.00000  Uiso   1.00
O218   O     0.22679   0.46042   0.25001   0.00000  Uiso   1.00
O219   O     0.22679   0.53958   0.25001   0.00000  Uiso   1.00
O220   O     0.10655   0.46042   0.25000   0.00000  Uiso   1.00
C221   C     0.08746   0.50012   0.24995   0.00000  Uiso   1.00
C222   C     0.24588   0.49988   0.25005   0.00000  Uiso   1.00
O223   O     0.16666   0.53960   0.18513   0.00000  Uiso   1.00
O224   O     0.16668   0.46040   0.31487   0.00000  Uiso   1.00
O225   O     0.16668   0.53960   0.31487   0.00000  Uiso   1.00
O226   O     0.16666   0.46040   0.18513   0.00000  Uiso   1.00
C227   C     0.16577   0.50029   0.16462   0.00000  Uiso   1.00
C228   C     0.16756   0.49971   0.33538   0.00000  Uiso   1.00
Cu229  Cu    0.16667   0.54689   0.25000   0.00000  Uiso   1.00
Cu230  Cu    0.16667   0.45311   0.25000   0.00000  Uiso   1.00
C231   C     0.20474   0.51391   0.40782   0.00000  Uiso   1.00
C232   C     0.12859   0.48609   0.09219   0.00000  Uiso   1.00
C233   C     0.16942   0.49902   0.38362   0.00000  Uiso   1.00
C234   C     0.16391   0.50099   0.11638   0.00000  Uiso   1.00
C235   C     0.13455   0.48365   0.40529   0.00000  Uiso   1.00
C236   C     0.19878   0.51635   0.09471   0.00000  Uiso   1.00
C237   C     0.13327   0.48397   0.45147   0.00000  Uiso   1.00
C238   C     0.20006   0.51604   0.04853   0.00000  Uiso   1.00
C239   C     0.16754   0.49972   0.47656   0.00000  Uiso   1.00
C240   C     0.16579   0.50028   0.02344   0.00000  Uiso   1.00
C241   C     0.20351   0.51479   0.45490   0.00000  Uiso   1.00
C242   C     0.12982   0.48521   0.04510   0.00000  Uiso   1.00
C243   C     0.09791   0.46907   0.47278   0.00000  Uiso   1.00
C244   C     0.23542   0.53093   0.02722   0.00000  Uiso   1.00
C245   C     0.09611   0.46968   0.01897   0.00000  Uiso   1.00
C246   C     0.23722   0.53033   0.48103   0.00000  Uiso   1.00
H247   H     0.10799   0.47209   0.38585   0.00000  Uiso   1.00
H248   H     0.22534   0.52791   0.11415   0.00000  Uiso   1.00
H249   H     0.07145   0.45695   0.45363   0.00000  Uiso   1.00
H250   H     0.26188   0.54305   0.04637   0.00000  Uiso   1.00
H251   H     0.06805   0.45767   0.03374   0.00000  Uiso   1.00
H252   H     0.26528   0.54233   0.46626   0.00000  Uiso   1.00
C253   C     0.02164   0.45799   0.24869   0.00000  Uiso   1.00
C254   C     0.31169   0.54201   0.25131   0.00000  Uiso   1.00
C255   C     0.31237   0.45785   0.24882   0.00000  Uiso   1.00
C256   C     0.02097   0.54215   0.25118   0.00000  Uiso   1.00
H257   H     0.03790   0.42510   0.24764   0.00000  Uiso   1.00
H258   H     0.29543   0.57490   0.25236   0.00000  Uiso   1.00
H259   H     0.29663   0.42492   0.24784   0.00000  Uiso   1.00
H260   H     0.03670   0.57508   0.25216   0.00000  Uiso   1.00
C261   C     0.29055   0.49985   0.25011   0.00000  Uiso   1.00
C262   C     0.04279   0.50015   0.24989   0.00000  Uiso   1.00
C263   C     0.14274   0.35933   0.22008   0.00000  Uiso   1.00
C264   C     0.19059   0.64067   0.27993   0.00000  Uiso   1.00
C265   C     0.19020   0.35663   0.28065   0.00000  Uiso   1.00
C266   C     0.14316   0.64337   0.21933   0.00000  Uiso   1.00
N267   N     0.16667   0.61736   0.25000   0.00000  Uiso   1.00
N268   N     0.16667   0.38264   0.25000   0.00000  Uiso   1.00
C269   C     0.24371   0.52733   0.38410   0.00000  Uiso   1.00
H270   H     0.26979   0.50508   0.39643   0.00000  Uiso   1.00
H271   H     0.24167   0.52294   0.34754   0.00000  Uiso   1.00
H272   H     0.25091   0.56420   0.39059   0.00000  Uiso   1.00
C273   C     0.08962   0.47267   0.11590   0.00000  Uiso   1.00
H274   H     0.08242   0.43580   0.10941   0.00000  Uiso   1.00
H275   H     0.09167   0.47706   0.15246   0.00000  Uiso   1.00
H276   H     0.06355   0.49492   0.10357   0.00000  Uiso   1.00
N277   N     0.11702   0.38509   0.18906   0.00000  Uiso   1.00
H278   H     0.12556   0.37664   0.15680   0.00000  Uiso   1.00
H279   H     0.08650   0.37495   0.19317   0.00000  Uiso   1.00
N280   N     0.21631   0.61491   0.31094   0.00000  Uiso   1.00
H281   H     0.24683   0.62502   0.30682   0.00000  Uiso   1.00
H282   H     0.20778   0.62336   0.34320   0.00000  Uiso   1.00
N283   N     0.21374   0.37766   0.31581   0.00000  Uiso   1.00
H284   H     0.19408   0.38985   0.34004   0.00000  Uiso   1.00
H285   H     0.23301   0.40321   0.30384   0.00000  Uiso   1.00
N286   N     0.11977   0.62233   0.18406   0.00000  Uiso   1.00
H287   H     0.10072   0.59652   0.19589   0.00000  Uiso   1.00
H288   H     0.13957   0.61040   0.15985   0.00000  Uiso   1.00
O289   O     0.43988   0.53958   0.25000   0.00000  Uiso   1.00
O290   O     0.56012   0.46042   0.25001   0.00000  Uiso   1.00
O291   O     0.56012   0.53958   0.25001   0.00000  Uiso   1.00
O292   O     0.43988   0.46042   0.25000   0.00000  Uiso   1.00
C293   C     0.42079   0.50012   0.24995   0.00000  Uiso   1.00
C294   C     0.57921   0.49988   0.25005   0.00000  Uiso   1.00
O295   O     0.49999   0.53960   0.18513   0.00000  Uiso   1.00
O296   O     0.50001   0.46040   0.31487   0.00000  Uiso   1.00
O297   O     0.50001   0.53960   0.31487   0.00000  Uiso   1.00
O298   O     0.49999   0.46040   0.18513   0.00000  Uiso   1.00
C299   C     0.49910   0.50029   0.16462   0.00000  Uiso   1.00
C300   C     0.50090   0.49971   0.33538   0.00000  Uiso   1.00
Cu301  Cu    0.50000   0.54689   0.25000   0.00000  Uiso   1.00
Cu302  Cu    0.50000   0.45311   0.25000   0.00000  Uiso   1.00
C303   C     0.53808   0.51391   0.40782   0.00000  Uiso   1.00
C304   C     0.46192   0.48609   0.09219   0.00000  Uiso   1.00
C305   C     0.50275   0.49902   0.38362   0.00000  Uiso   1.00
C306   C     0.49725   0.50099   0.11638   0.00000  Uiso   1.00
C307   C     0.46789   0.48365   0.40529   0.00000  Uiso   1.00
C308   C     0.53211   0.51635   0.09471   0.00000  Uiso   1.00
C309   C     0.46660   0.48397   0.45147   0.00000  Uiso   1.00
C310   C     0.53339   0.51604   0.04853   0.00000  Uiso   1.00
C311   C     0.50087   0.49972   0.47656   0.00000  Uiso   1.00
C312   C     0.49913   0.50028   0.02344   0.00000  Uiso   1.00
C313   C     0.53684   0.51479   0.45490   0.00000  Uiso   1.00
C314   C     0.46315   0.48521   0.04510   0.00000  Uiso   1.00
C315   C     0.43124   0.46907   0.47278   0.00000  Uiso   1.00
C316   C     0.56876   0.53093   0.02722   0.00000  Uiso   1.00
C317   C     0.42944   0.46968   0.01897   0.00000  Uiso   1.00
C318   C     0.57055   0.53033   0.48103   0.00000  Uiso   1.00
H319   H     0.44133   0.47209   0.38585   0.00000  Uiso   1.00
H320   H     0.55867   0.52791   0.11415   0.00000  Uiso   1.00
H321   H     0.40478   0.45695   0.45363   0.00000  Uiso   1.00
H322   H     0.59522   0.54305   0.04637   0.00000  Uiso   1.00
H323   H     0.40139   0.45767   0.03374   0.00000  Uiso   1.00
H324   H     0.59861   0.54233   0.46626   0.00000  Uiso   1.00
C325   C     0.35497   0.45799   0.24869   0.00000  Uiso   1.00
C326   C     0.64503   0.54201   0.25131   0.00000  Uiso   1.00
C327   C     0.64570   0.45785   0.24882   0.00000  Uiso   1.00
C328   C     0.35430   0.54215   0.25118   0.00000  Uiso   1.00
H329   H     0.37124   0.42510   0.24764   0.00000  Uiso   1.00
H330   H     0.62876   0.57490   0.25236   0.00000  Uiso   1.00
H331   H     0.62996   0.42492   0.24784   0.00000  Uiso   1.00
H332   H     0.37004   0.57508   0.25216   0.00000  Uiso   1.00
C333   C     0.62388   0.49985   0.25011   0.00000  Uiso   1.00
C334   C     0.37612   0.50015   0.24989   0.00000  Uiso   1.00
C335   C     0.47607   0.35933   0.22008   0.00000  Uiso   1.00
C336   C     0.52392   0.64067   0.27993   0.00000  Uiso   1.00
C337   C     0.52353   0.35663   0.28065   0.00000  Uiso   1.00
C338   C     0.47649   0.64337   0.21933   0.00000  Uiso   1.00
N339   N     0.50000   0.61736   0.25000   0.00000  Uiso   1.00
N340   N     0.50000   0.38264   0.25000   0.00000  Uiso   1.00
C341   C     0.57705   0.52733   0.38410   0.00000  Uiso   1.00
H342   H     0.60312   0.50508   0.39643   0.00000  Uiso   1.00
H343   H     0.57500   0.52294   0.34754   0.00000  Uiso   1.00
H344   H     0.58424   0.56420   0.39059   0.00000  Uiso   1.00
C345   C     0.42295   0.47267   0.11590   0.00000  Uiso   1.00
H346   H     0.41576   0.43580   0.10941   0.00000  Uiso   1.00
H347   H     0.42500   0.47706   0.15246   0.00000  Uiso   1.00
H348   H     0.39688   0.49492   0.10357   0.00000  Uiso   1.00
N349   N     0.45035   0.38509   0.18906   0.00000  Uiso   1.00
H350   H     0.45890   0.37664   0.15680   0.00000  Uiso   1.00
H351   H     0.41983   0.37495   0.19317   0.00000  Uiso   1.00
N352   N     0.54964   0.61491   0.31094   0.00000  Uiso   1.00
H353   H     0.58016   0.62502   0.30682   0.00000  Uiso   1.00
H354   H     0.54111   0.62336   0.34320   0.00000  Uiso   1.00
N355   N     0.54707   0.37766   0.31581   0.00000  Uiso   1.00
H356   H     0.52741   0.38985   0.34004   0.00000  Uiso   1.00
H357   H     0.56635   0.40321   0.30384   0.00000  Uiso   1.00
N358   N     0.45311   0.62233   0.18406   0.00000  Uiso   1.00
H359   H     0.43405   0.59652   0.19589   0.00000  Uiso   1.00
H360   H     0.47290   0.61040   0.15985   0.00000  Uiso   1.00
O361   O     0.77321   0.53958   0.25000   0.00000  Uiso   1.00
O362   O     0.89345   0.46042   0.25001   0.00000  Uiso   1.00
O363   O     0.89345   0.53958   0.25001   0.00000  Uiso   1.00
O364   O     0.77321   0.46042   0.25000   0.00000  Uiso   1.00
C365   C     0.75412   0.50012   0.24995   0.00000  Uiso   1.00
C366   C     0.91254   0.49988   0.25005   0.00000  Uiso   1.00
O367   O     0.83332   0.53960   0.18513   0.00000  Uiso   1.00
O368   O     0.83334   0.46040   0.31487   0.00000  Uiso   1.00
O369   O     0.83334   0.53960   0.31487   0.00000  Uiso   1.00
O370   O     0.83332   0.46040   0.18513   0.00000  Uiso   1.00
C371   C     0.83244   0.50029   0.16462   0.00000  Uiso   1.00
C372   C     0.83423   0.49971   0.33538   0.00000  Uiso   1.00
Cu373  Cu    0.83333   0.54689   0.25000   0.00000  Uiso   1.00
Cu374  Cu    0.83333   0.45311   0.25000   0.00000  Uiso   1.00
C375   C     0.87141   0.51391   0.40782   0.00000  Uiso   1.00
C376   C     0.79526   0.48609   0.09219   0.00000  Uiso   1.00
C377   C     0.83609   0.49902   0.38362   0.00000  Uiso   1.00
C378   C     0.83058   0.50099   0.11638   0.00000  Uiso   1.00
C379   C     0.80122   0.48365   0.40529   0.00000  Uiso   1.00
C380   C     0.86545   0.51635   0.09471   0.00000  Uiso   1.00
C381   C     0.79994   0.48397   0.45147   0.00000  Uiso   1.00
C382   C     0.86673   0.51604   0.04853   0.00000  Uiso   1.00
C383   C     0.83420   0.49972   0.47656   0.00000  Uiso   1.00
C384   C     0.83246   0.50028   0.02344   0.00000  Uiso   1.00
C385   C     0.87018   0.51479   0.45490   0.00000  Uiso   1.00
C386   C     0.79649   0.48521   0.04510   0.00000  Uiso   1.00
C387   C     0.76457   0.46907   0.47278   0.00000  Uiso   1.00
C388   C     0.90209   0.53093   0.02722   0.00000  Uiso   1.00
C389   C     0.76278   0.46968   0.01897   0.00000  Uiso   1.00
C390   C     0.90389   0.53033   0.48103   0.00000  Uiso   1.00
H391   H     0.77466   0.47209   0.38585   0.00000  Uiso   1.00
H392   H     0.89200   0.52791   0.11415   0.00000  Uiso   1.00
H393   H     0.73812   0.45695   0.45363   0.00000  Uiso   1.00
H394   H     0.92855   0.54305   0.04637   0.00000  Uiso   1.00
H395   H     0.73472   0.45767   0.03374   0.00000  Uiso   1.00
H396   H     0.93194   0.54233   0.46626   0.00000  Uiso   1.00
C397   C     0.68831   0.45799   0.24869   0.00000  Uiso   1.00
C398   C     0.97836   0.54201   0.25131   0.00000  Uiso   1.00
C399   C     0.97903   0.45785   0.24882   0.00000  Uiso   1.00
C400   C     0.68763   0.54215   0.25118   0.00000  Uiso   1.00
H401   H     0.70457   0.42510   0.24764   0.00000  Uiso   1.00
H402   H     0.96210   0.57490   0.25236   0.00000  Uiso   1.00
H403   H     0.96330   0.42492   0.24784   0.00000  Uiso   1.00
H404   H     0.70337   0.57508   0.25216   0.00000  Uiso   1.00
C405   C     0.95721   0.49985   0.25011   0.00000  Uiso   1.00
C406   C     0.70945   0.50015   0.24989   0.00000  Uiso   1.00
C407   C     0.80941   0.35933   0.22008   0.00000  Uiso   1.00
C408   C     0.85725   0.64067   0.27993   0.00000  Uiso   1.00
C409   C     0.85686   0.35663   0.28065   0.00000  Uiso   1.00
C410   C     0.80982   0.64337   0.21933   0.00000  Uiso   1.00
N411   N     0.83333   0.61736   0.25000   0.00000  Uiso   1.00
N412   N     0.83333   0.38264   0.25000   0.00000  Uiso   1.00
C413   C     0.91038   0.52733   0.38410   0.00000  Uiso   1.00
H414   H     0.93645   0.50508   0.39643   0.00000  Uiso   1.00
H415   H     0.90833   0.52294   0.34754   0.00000  Uiso   1.00
H416   H     0.91758   0.56420   0.39059   0.00000  Uiso   1.00
C417   C     0.75629   0.47267   0.11590   0.00000  Uiso   1.00
H418   H     0.74909   0.43580   0.10941   0.00000  Uiso   1.00
H419   H     0.75833   0.47706   0.15246   0.00000  Uiso   1.00
H420   H     0.73021   0.49492   0.10357   0.00000  Uiso   1.00
N421   N     0.78369   0.38509   0.18906   0.00000  Uiso   1.00
H422   H     0.79223   0.37664   0.15680   0.00000  Uiso   1.00
H423   H     0.75317   0.37495   0.19317   0.00000  Uiso   1.00
N424   N     0.88297   0.61491   0.31094   0.00000  Uiso   1.00
H425   H     0.91350   0.62502   0.30682   0.00000  Uiso   1.00
H426   H     0.87444   0.62336   0.34320   0.00000  Uiso   1.00
N427   N     0.88041   0.37766   0.31581   0.00000  Uiso   1.00
H428   H     0.86075   0.38985   0.34004   0.00000  Uiso   1.00
H429   H     0.89968   0.40321   0.30384   0.00000  Uiso   1.00
N430   N     0.78644   0.62233   0.18406   0.00000  Uiso   1.00
H431   H     0.76739   0.59652   0.19589   0.00000  Uiso   1.00
H432   H     0.80624   0.61040   0.15985   0.00000  Uiso   1.00
O433   O     0.10655   0.87291   0.25000   0.00000  Uiso   1.00
O434   O     0.22679   0.79375   0.25001   0.00000  Uiso   1.00
O435   O     0.22679   0.87291   0.25001   0.00000  Uiso   1.00
O436   O     0.10655   0.79375   0.25000   0.00000  Uiso   1.00
C437   C     0.08746   0.83345   0.24995   0.00000  Uiso   1.00
C438   C     0.24588   0.83321   0.25005   0.00000  Uiso   1.00
O439   O     0.16666   0.87293   0.18513   0.00000  Uiso   1.00
O440   O     0.16668   0.79373   0.31487   0.00000  Uiso   1.00
O441   O     0.16668   0.87293   0.31487   0.00000  Uiso   1.00
O442   O     0.16666   0.79373   0.18513   0.00000  Uiso   1.00
C443   C     0.16577   0.83362   0.16462   0.00000  Uiso   1.00
C444   C     0.16756   0.83304   0.33538   0.00000  Uiso   1.00
Cu445  Cu    0.16667   0.88022   0.25000   0.00000  Uiso   1.00
Cu446  Cu    0.16667   0.78645   0.25000   0.00000  Uiso   1.00
C447   C     0.20474   0.84724   0.40782   0.00000  Uiso   1.00
C448   C     0.12859   0.81943   0.09219   0.00000  Uiso   1.00
C449   C     0.16942   0.83235   0.38362   0.00000  Uiso   1.00
C450   C     0.16391   0.83432   0.11638   0.00000  Uiso   1.00
C451   C     0.13455   0.81699   0.40529   0.00000  Uiso   1.00
C452   C     0.19878   0.84968   0.09471   0.00000  Uiso   1.00
C453   C     0.13327   0.81730   0.45147   0.00000  Uiso   1.00
C454   C     0.20006   0.84937   0.04853   0.00000  Uiso   1.00
C455   C     0.16754   0.83306   0.47656   0.00000  Uiso   1.00
C456   C     0.16579   0.83361   0.02344   0.00000  Uiso   1.00
C457   C     0.20351   0.84812   0.45490   0.00000  Uiso   1.00
C458   C     0.12982   0.81855   0.04510   0.00000  Uiso   1.00
C459   C     0.09791   0.80241   0.47278   0.00000  Uiso   1.00
C460   C     0.23542   0.86426   0.02722   0.00000  Uiso   1.00
C461   C     0.09611   0.80301   0.01897   0.00000  Uiso   1.00
C462   C     0.23722   0.86366   0.48103   0.00000  Uiso   1.00
H463   H     0.10799   0.80543   0.38585   0.00000  Uiso   1.00
H464   H     0.22534   0.86124   0.11415   0.00000  Uiso   1.00
H465   H     0.07145   0.79029   0.45363   0.00000  Uiso   1.00
H466   H     0.26188   0.87639   0.04637   0.00000  Uiso   1.00
H467   H     0.06805   0.79100   0.03374   0.00000  Uiso   1.00
H468   H     0.26528   0.87567   0.46626   0.00000  Uiso   1.00
C469   C     0.02164   0.79133   0.24869   0.00000  Uiso   1.00
C470   C     0.31169   0.87534   0.25131   0.00000  Uiso   1.00
C471   C     0.31237   0.79118   0.24882   0.00000  Uiso   1.00
C472   C     0.02097   0.87549   0.25118   0.00000  Uiso   1.00
H473   H     0.03790   0.75843   0.24764   0.00000  Uiso   1.00
H474   H     0.29543   0.90823   0.25236   0.00000  Uiso   1.00
H475   H     0.29663   0.75825   0.24784   0.00000  Uiso   1.00
H476   H     0.03670   0.90842   0.25216   0.00000  Uiso   1.00
C477   C     0.29055   0.83319   0.25011   0.00000  Uiso   1.00
C478   C     0.04279   0.83348   0.24989   0.00000  Uiso   1.00
C479   C     0.14274   0.69266   0.22008   0.00000  Uiso   1.00
C480   C     0.19059   0.97400   0.27993   0.00000  Uiso   1.00
C481   C     0.19020   0.68996   0.28065   0.00000  Uiso   1.00
C482   C     0.14316   0.97670   0.21933   0.00000  Uiso   1.00
N483   N     0.16667   0.95069   0.25000   0.00000  Uiso   1.00
N484   N     0.16667   0.71598   0.25000   0.00000  Uiso   1.00
C485   C     0.24371   0.86066   0.38410   0.00000  Uiso   1.00
H486   H     0.26979   0.83841   0.39643   0.00000  Uiso   1.00
H487   H     0.24167   0.85627   0.34754   0.00000  Uiso   1.00
H488   H     0.25091   0.89753   0.39059   0.00000  Uiso   1.00
C489   C     0.08962   0.80601   0.11590   0.00000  Uiso   1.00
H490   H     0.08242   0.76914   0.10941   0.00000  Uiso   1.00
H491   H     0.09167   0.81040   0.15246   0.00000  Uiso   1.00
H492   H     0.06355   0.82826   0.10357   0.00000  Uiso   1.00
N493   N     0.11702   0.71842   0.18906   0.00000  Uiso   1.00
H494   H     0.12556   0.70998   0.15680   0.00000  Uiso   1.00
H495   H     0.08650   0.70829   0.19317   0.00000  Uiso   1.00
N496   N     0.21631   0.94824   0.31094   0.00000  Uiso   1.00
H497   H     0.24683   0.95835   0.30682   0.00000  Uiso   1.00
H498   H     0.20778   0.95670   0.34320   0.00000  Uiso   1.00
N499   N     0.21374   0.71099   0.31581   0.00000  Uiso   1.00
H500   H     0.19408   0.72318   0.34004   0.00000  Uiso   1.00
H501   H     0.23301   0.73655   0.30384   0.00000  Uiso   1.00
N502   N     0.11977   0.95567   0.18406   0.00000  Uiso   1.00
H503   H     0.10072   0.92985   0.19589   0.00000  Uiso   1.00
H504   H     0.13957   0.94373   0.15985   0.00000  Uiso   1.00
O505   O     0.43988   0.87291   0.25000   0.00000  Uiso   1.00
O506   O     0.56012   0.79375   0.25001   0.00000  Uiso   1.00
O507   O     0.56012   0.87291   0.25001   0.00000  Uiso   1.00
O508   O     0.43988   0.79375   0.25000   0.00000  Uiso   1.00
C509   C     0.42079   0.83345   0.24995   0.00000  Uiso   1.00
C510   C     0.57921   0.83321   0.25005   0.00000  Uiso   1.00
O511   O     0.49999   0.87293   0.18513   0.00000  Uiso   1.00
O512   O     0.50001   0.79373   0.31487   0.00000  Uiso   1.00
O513   O     0.50001   0.87293   0.31487   0.00000  Uiso   1.00
O514   O     0.49999   0.79373   0.18513   0.00000  Uiso   1.00
C515   C     0.49910   0.83362   0.16462   0.00000  Uiso   1.00
C516   C     0.50090   0.83304   0.33538   0.00000  Uiso   1.00
Cu517  Cu    0.50000   0.88022   0.25000   0.00000  Uiso   1.00
Cu518  Cu    0.50000   0.78645   0.25000   0.00000  Uiso   1.00
C519   C     0.53808   0.84724   0.40782   0.00000  Uiso   1.00
C520   C     0.46192   0.81943   0.09219   0.00000  Uiso   1.00
C521   C     0.50275   0.83235   0.38362   0.00000  Uiso   1.00
C522   C     0.49725   0.83432   0.11638   0.00000  Uiso   1.00
C523   C     0.46789   0.81699   0.40529   0.00000  Uiso   1.00
C524   C     0.53211   0.84968   0.09471   0.00000  Uiso   1.00
C525   C     0.46660   0.81730   0.45147   0.00000  Uiso   1.00
C526   C     0.53339   0.84937   0.04853   0.00000  Uiso   1.00
C527   C     0.50087   0.83306   0.47656   0.00000  Uiso   1.00
C528   C     0.49913   0.83361   0.02344   0.00000  Uiso   1.00
C529   C     0.53684   0.84812   0.45490   0.00000  Uiso   1.00
C530   C     0.46315   0.81855   0.04510   0.00000  Uiso   1.00
C531   C     0.43124   0.80241   0.47278   0.00000  Uiso   1.00
C532   C     0.56876   0.86426   0.02722   0.00000  Uiso   1.00
C533   C     0.42944   0.80301   0.01897   0.00000  Uiso   1.00
C534   C     0.57055   0.86366   0.48103   0.00000  Uiso   1.00
H535   H     0.44133   0.80543   0.38585   0.00000  Uiso   1.00
H536   H     0.55867   0.86124   0.11415   0.00000  Uiso   1.00
H537   H     0.40478   0.79029   0.45363   0.00000  Uiso   1.00
H538   H     0.59522   0.87639   0.04637   0.00000  Uiso   1.00
H539   H     0.40139   0.79100   0.03374   0.00000  Uiso   1.00
H540   H     0.59861   0.87567   0.46626   0.00000  Uiso   1.00
C541   C     0.35497   0.79133   0.24869   0.00000  Uiso   1.00
C542   C     0.64503   0.87534   0.25131   0.00000  Uiso   1.00
C543   C     0.64570   0.79118   0.24882   0.00000  Uiso   1.00
C544   C     0.35430   0.87549   0.25118   0.00000  Uiso   1.00
H545   H     0.37124   0.75843   0.24764   0.00000  Uiso   1.00
H546   H     0.62876   0.90823   0.25236   0.00000  Uiso   1.00
H547   H     0.62996   0.75825   0.24784   0.00000  Uiso   1.00
H548   H     0.37004   0.90842   0.25216   0.00000  Uiso   1.00
C549   C     0.62388   0.83319   0.25011   0.00000  Uiso   1.00
C550   C     0.37612   0.83348   0.24989   0.00000  Uiso   1.00
C551   C     0.47607   0.69266   0.22008   0.00000  Uiso   1.00
C552   C     0.52392   0.97400   0.27993   0.00000  Uiso   1.00
C553   C     0.52353   0.68996   0.28065   0.00000  Uiso   1.00
C554   C     0.47649   0.97670   0.21933   0.00000  Uiso   1.00
N555   N     0.50000   0.95069   0.25000   0.00000  Uiso   1.00
N556   N     0.50000   0.71598   0.25000   0.00000  Uiso   1.00
C557   C     0.57705   0.86066   0.38410   0.00000  Uiso   1.00
H558   H     0.60312   0.83841   0.39643   0.00000  Uiso   1.00
H559   H     0.57500   0.85627   0.34754   0.00000  Uiso   1.00
H560   H     0.58424   0.89753   0.39059   0.00000  Uiso   1.00
C561   C     0.42295   0.80601   0.11590   0.00000  Uiso   1.00
H562   H     0.41576   0.76914   0.10941   0.00000  Uiso   1.00
H563   H     0.42500   0.81040   0.15246   0.00000  Uiso   1.00
H564   H     0.39688   0.82826   0.10357   0.00000  Uiso   1.00
N565   N     0.45035   0.71842   0.18906   0.00000  Uiso   1.00
H566   H     0.45890   0.70998   0.15680   0.00000  Uiso   1.00
H567   H     0.41983   0.70829   0.19317   0.00000  Uiso   1.00
N568   N     0.54964   0.94824   0.31094   0.00000  Uiso   1.00
H569   H     0.58016   0.95835   0.30682   0.00000  Uiso   1.00
H570   H     0.54111   0.95670   0.34320   0.00000  Uiso   1.00
N571   N     0.54707   0.71099   0.31581   0.00000  Uiso   1.00
H572   H     0.52741   0.72318   0.34004   0.00000  Uiso   1.00
H573   H     0.56635   0.73655   0.30384   0.00000  Uiso   1.00
N574   N     0.45311   0.95567   0.18406   0.00000  Uiso   1.00
H575   H     0.43405   0.92985   0.19589   0.00000  Uiso   1.00
H576   H     0.47290   0.94373   0.15985   0.00000  Uiso   1.00
O577   O     0.77321   0.87291   0.25000   0.00000  Uiso   1.00
O578   O     0.89345   0.79375   0.25001   0.00000  Uiso   1.00
O579   O     0.89345   0.87291   0.25001   0.00000  Uiso   1.00
O580   O     0.77321   0.79375   0.25000   0.00000  Uiso   1.00
C581   C     0.75412   0.83345   0.24995   0.00000  Uiso   1.00
C582   C     0.91254   0.83321   0.25005   0.00000  Uiso   1.00
O583   O     0.83332   0.87293   0.18513   0.00000  Uiso   1.00
O584   O     0.83334   0.79373   0.31487   0.00000  Uiso   1.00
O585   O     0.83334   0.87293   0.31487   0.00000  Uiso   1.00
O586   O     0.83332   0.79373   0.18513   0.00000  Uiso   1.00
C587   C     0.83244   0.83362   0.16462   0.00000  Uiso   1.00
C588   C     0.83423   0.83304   0.33538   0.00000  Uiso   1.00
Cu589  Cu    0.83333   0.88022   0.25000   0.00000  Uiso   1.00
Cu590  Cu    0.83333   0.78645   0.25000   0.00000  Uiso   1.00
C591   C     0.87141   0.84724   0.40782   0.00000  Uiso   1.00
C592   C     0.79526   0.81943   0.09219   0.00000  Uiso   1.00
C593   C     0.83609   0.83235   0.38362   0.00000  Uiso   1.00
C594   C     0.83058   0.83432   0.11638   0.00000  Uiso   1.00
C595   C     0.80122   0.81699   0.40529   0.00000  Uiso   1.00
C596   C     0.86545   0.84968   0.09471   0.00000  Uiso   1.00
C597   C     0.79994   0.81730   0.45147   0.00000  Uiso   1.00
C598   C     0.86673   0.84937   0.04853   0.00000  Uiso   1.00
C599   C     0.83420   0.83306   0.47656   0.00000  Uiso   1.00
C600   C     0.83246   0.83361   0.02344   0.00000  Uiso   1.00
C601   C     0.87018   0.84812   0.45490   0.00000  Uiso   1.00
C602   C     0.79649   0.81855   0.04510   0.00000  Uiso   1.00
C603   C     0.76457   0.80241   0.47278   0.00000  Uiso   1.00
C604   C     0.90209   0.86426   0.02722   0.00000  Uiso   1.00
C605   C     0.76278   0.80301   0.01897   0.00000  Uiso   1.00
C606   C     0.90389   0.86366   0.48103   0.00000  Uiso   1.00
H607   H     0.77466   0.80543   0.38585   0.00000  Uiso   1.00
H608   H     0.89200   0.86124   0.11415   0.00000  Uiso   1.00
H609   H     0.73812   0.79029   0.45363   0.00000  Uiso   1.00
H610   H     0.92855   0.87639   0.04637   0.00000  Uiso   1.00
H611   H     0.73472   0.79100   0.03374   0.00000  Uiso   1.00
H612   H     0.93194   0.87567   0.46626   0.00000  Uiso   1.00
C613   C     0.68831   0.79133   0.24869   0.00000  Uiso   1.00
C614   C     0.97836   0.87534   0.25131   0.00000  Uiso   1.00
C615   C     0.97903   0.79118   0.24882   0.00000  Uiso   1.00
C616   C     0.68763   0.87549   0.25118   0.00000  Uiso   1.00
H617   H     0.70457   0.75843   0.24764   0.00000  Uiso   1.00
H618   H     0.96210   0.90823   0.25236   0.00000  Uiso   1.00
H619   H     0.96330   0.75825   0.24784   0.00000  Uiso   1.00
H620   H     0.70337   0.90842   0.25216   0.00000  Uiso   1.00
C621   C     0.95721   0.83319   0.25011   0.00000  Uiso   1.00
C622   C     0.70945   0.83348   0.24989   0.00000  Uiso   1.00
C623   C     0.80941   0.69266   0.22008   0.00000  Uiso   1.00
C624   C     0.85725   0.97400   0.27993   0.00000  Uiso   1.00
C625   C     0.85686   0.68996   0.28065   0.00000  Uiso   1.00
C626   C     0.80982   0.97670   0.21933   0.00000  Uiso   1.00
N627   N     0.83333   0.95069   0.25000   0.00000  Uiso   1.00
N628   N     0.83333   0.71598   0.25000   0.00000  Uiso   1.00
C629   C     0.91038   0.86066   0.38410   0.00000  Uiso   1.00
H630   H     0.93645   0.83841   0.39643   0.00000  Uiso   1.00
H631   H     0.90833   0.85627   0.34754   0.00000  Uiso   1.00
H632   H     0.91758   0.89753   0.39059   0.00000  Uiso   1.00
C633   C     0.75629   0.80601   0.11590   0.00000  Uiso   1.00
H634   H     0.74909   0.76914   0.10941   0.00000  Uiso   1.00
H635   H     0.75833   0.81040   0.15246   0.00000  Uiso   1.00
H636   H     0.73021   0.82826   0.10357   0.00000  Uiso   1.00
N637   N     0.78369   0.71842   0.18906   0.00000  Uiso   1.00
H638   H     0.79223   0.70998   0.15680   0.00000  Uiso   1.00
H639   H     0.75317   0.70829   0.19317   0.00000  Uiso   1.00
N640   N     0.88297   0.94824   0.31094   0.00000  Uiso   1.00
H641   H     0.91350   0.95835   0.30682   0.00000  Uiso   1.00
H642   H     0.87444   0.95670   0.34320   0.00000  Uiso   1.00
N643   N     0.88041   0.71099   0.31581   0.00000  Uiso   1.00
H644   H     0.86075   0.72318   0.34004   0.00000  Uiso   1.00
H645   H     0.89968   0.73655   0.30384   0.00000  Uiso   1.00
N646   N     0.78644   0.95567   0.18406   0.00000  Uiso   1.00
H647   H     0.76739   0.92985   0.19589   0.00000  Uiso   1.00
H648   H     0.80624   0.94373   0.15985   0.00000  Uiso   1.00
O649   O     0.10655   0.20625   0.75000   0.00000  Uiso   1.00
O650   O     0.22679   0.12709   0.75001   0.00000  Uiso   1.00
O651   O     0.22679   0.20625   0.75001   0.00000  Uiso   1.00
O652   O     0.10655   0.12709   0.75000   0.00000  Uiso   1.00
C653   C     0.08746   0.16679   0.74995   0.00000  Uiso   1.00
C654   C     0.24588   0.16655   0.75005   0.00000  Uiso   1.00
O655   O     0.16666   0.20627   0.68513   0.00000  Uiso   1.00
O656   O     0.16668   0.12707   0.81487   0.00000  Uiso   1.00
O657   O     0.16668   0.20627   0.81487   0.00000  Uiso   1.00
O658   O     0.16666   0.12707   0.68513   0.00000  Uiso   1.00
C659   C     0.16577   0.16696   0.66462   0.00000  Uiso   1.00
C660   C     0.16756   0.16638   0.83538   0.00000  Uiso   1.00
Cu661  Cu    0.16667   0.21355   0.75000   0.00000  Uiso   1.00
Cu662  Cu    0.16667   0.11978   0.75000   0.00000  Uiso   1.00
C663   C     0.20474   0.18057   0.90782   0.00000  Uiso   1.00
C664   C     0.12859   0.15276   0.59219   0.00000  Uiso   1.00
C665   C     0.16942   0.16568   0.88362   0.00000  Uiso   1.00
C666   C     0.16391   0.16765   0.61638   0.00000  Uiso   1.00
C667   C     0.13455   0.15032   0.90529   0.00000  Uiso   1.00
C668   C     0.19878   0.18302   0.59471   0.00000  Uiso   1.00
C669   C     0.13327   0.15063   0.95147   0.00000  Uiso   1.00
C670   C     0.20006   0.18270   0.54853   0.00000  Uiso   1.00
C671   C     0.16754   0.16639   0.97656   0.00000  Uiso   1.00
C672   C     0.16579   0.16695   0.52344   0.00000  Uiso   1.00
C673   C     0.20351   0.18145   0.95490   0.00000  Uiso   1.00
C674   C     0.12982   0.15188   0.54510   0.00000  Uiso   1.00
C675   C     0.09791   0.13574   0.97278   0.00000  Uiso   1.00
C676   C     0.23542   0.19760   0.52722   0.00000  Uiso   1.00
C677   C     0.09611   0.13634   0.51897   0.00000  Uiso   1.00
C678   C     0.23722   0.19699   0.98103   0.00000  Uiso   1.00
H679   H     0.10799   0.13876   0.88585   0.00000  Uiso   1.00
H680   H     0.22534   0.19458   0.61415   0.00000  Uiso   1.00
H681   H     0.07145   0.12362   0.95363   0.00000  Uiso   1.00
H682   H     0.26188   0.20972   0.54637   0.00000  Uiso   1.00
H683   H     0.06805   0.12434   0.53374   0.00000  Uiso   1.00
H684   H     0.26528   0.20900   0.96626   0.00000  Uiso   1.00
C685   C     0.02164   0.12466   0.74869   0.00000  Uiso   1.00
C686   C     0.31169   0.20867   0.75131   0.00000  Uiso   1.00
C687   C     0.31237   0.12451   0.74882   0.00000  Uiso   1.00
C688   C     0.02097   0.20882   0.75118   0.00000  Uiso   1.00
H689   H     0.03790   0.09177   0.74764   0.00000  Uiso   1.00
H690   H     0.29543   0.24157   0.75236   0.00000  Uiso   1.00
H691   H     0.29663   0.09158   0.74784   0.00000  Uiso   1.00
H692   H     0.03670   0.24175   0.75216   0.00000  Uiso   1.00
C693   C     0.29055   0.16652   0.75011   0.00000  Uiso   1.00
C694   C     0.04279   0.16681   0.74989   0.00000  Uiso   1.00
C695   C     0.14274   0.02600   0.72008   0.00000  Uiso   1.00
C696   C     0.19059   0.30733   0.77993   0.00000  Uiso   1.00
C697   C     0.19020   0.02330   0.78065   0.00000  Uiso   1.00
C698   C     0.14316   0.31003   0.71933   0.00000  Uiso   1.00
N699   N     0.16667   0.28402   0.75000   0.00000  Uiso   1.00
N700   N     0.16667   0.04931   0.75000   0.00000  Uiso   1.00
C701   C     0.24371   0.19399   0.88410   0.00000  Uiso   1.00
H702   H     0.26979   0.17175   0.89643   0.00000  Uiso   1.00
H703   H     0.24167   0.18960   0.84754   0.00000  Uiso   1.00
H704   H     0.25091   0.23087   0.89059   0.00000  Uiso   1.00
C705   C     0.08962   0.13934   0.61590   0.00000  Uiso   1.00
H706   H     0.08242   0.10247   0.60941   0.00000  Uiso   1.00
H707   H     0.09167   0.14373   0.65246   0.00000  Uiso   1.00
H708   H     0.06355   0.16159   0.60357   0.00000  Uiso   1.00
N709   N     0.11702   0.05175   0.68906   0.00000  Uiso   1.00
H710   H     0.12556   0.04331   0.65680   0.00000  Uiso   1.00
H711   H     0.08650   0.04162   0.69317   0.00000  Uiso   1.00
N712   N     0.21631   0.28157   0.81094   0.00000  Uiso   1.00
H713   H     0.24683   0.29169   0.80682   0.00000  Uiso   1.00
H714   H     0.20778   0.29003   0.84320   0.00000  Uiso   1.00
N715   N     0.21374   0.04433   0.81581   0.00000  Uiso   1.00
H716   H     0.19408   0.05651   0.84004   0.00000  Uiso   1.00
H717   H     0.23301   0.06988   0.80384   0.00000  Uiso   1.00
N718   N     0.11977   0.28900   0.68406   0.00000  Uiso   1.00
H719   H     0.10072   0.26318   0.69589   0.00000  Uiso   1.00
H720   H     0.13957   0.27707   0.65985   0.00000  Uiso   1.00
O721   O     0.43988   0.20625   0.75000   0.00000  Uiso   1.00
O722   O     0.56012   0.12709   0.75001   0.00000  Uiso   1.00
O723   O     0.56012   0.20625   0.75001   0.00000  Uiso   1.00
O724   O     0.43988   0.12709   0.75000   0.00000  Uiso   1.00
C725   C     0.42079   0.16679   0.74995   0.00000  Uiso   1.00
C726   C     0.57921   0.16655   0.75005   0.00000  Uiso   1.00
O727   O     0.49999   0.20627   0.68513   0.00000  Uiso   1.00
O728   O     0.50001   0.12707   0.81487   0.00000  Uiso   1.00
O729   O     0.50001   0.20627   0.81487   0.00000  Uiso   1.00
O730   O     0.49999   0.12707   0.68513   0.00000  Uiso   1.00
C731   C     0.49910   0.16696   0.66462   0.00000  Uiso   1.00
C732   C     0.50090   0.16638   0.83538   0.00000  Uiso   1.00
Cu733  Cu    0.50000   0.21355   0.75000   0.00000  Uiso   1.00
Cu734  Cu    0.50000   0.11978   0.75000   0.00000  Uiso   1.00
C735   C     0.53808   0.18057   0.90782   0.00000  Uiso   1.00
C736   C     0.46192   0.15276   0.59219   0.00000  Uiso   1.00
C737   C     0.50275   0.16568   0.88362   0.00000  Uiso   1.00
C738   C     0.49725   0.16765   0.61638   0.00000  Uiso   1.00
C739   C     0.46789   0.15032   0.90529   0.00000  Uiso   1.00
C740   C     0.53211   0.18302   0.59471   0.00000  Uiso   1.00
C741   C     0.46660   0.15063   0.95147   0.00000  Uiso   1.00
C742   C     0.53339   0.18270   0.54853   0.00000  Uiso   1.00
C743   C     0.50087   0.16639   0.97656   0.00000  Uiso   1.00
C744   C     0.49913   0.16695   0.52344   0.00000  Uiso   1.00
C745   C     0.53684   0.18145   0.95490   0.00000  Uiso   1.00
C746   C     0.46315   0.15188   0.54510   0.00000  Uiso   1.00
C747   C     0.43124   0.13574   0.97278   0.00000  Uiso   1.00
C748   C     0.56876   0.19760   0.52722   0.00000  Uiso   1.00
C749   C     0.42944   0.13634   0.51897   0.00000  Uiso   1.00
C750   C     0.57055   0.19699   0.98103   0.00000  Uiso   1.00
H751   H     0.44133   0.13876   0.88585   0.00000  Uiso   1.00
H752   H     0.55867   0.19458   0.61415   0.00000  Uiso   1.00
H753   H     0.40478   0.12362   0.95363   0.00000  Uiso   1.00
H754   H     0.59522   0.20972   0.54637   0.00000  Uiso   1.00
H755   H     0.40139   0.12434   0.53374   0.00000  Uiso   1.00
H756   H     0.59861   0.20900   0.96626   0.00000  Uiso   1.00
C757   C     0.35497   0.12466   0.74869   0.00000  Uiso   1.00
C758   C     0.64503   0.20867   0.75131   0.00000  Uiso   1.00
C759   C     0.64570   0.12451   0.74882   0.00000  Uiso   1.00
C760   C     0.35430   0.20882   0.75118   0.00000  Uiso   1.00
H761   H     0.37124   0.09177   0.74764   0.00000  Uiso   1.00
H762   H     0.62876   0.24157   0.75236   0.00000  Uiso   1.00
H763   H     0.62996   0.09158   0.74784   0.00000  Uiso   1.00
H764   H     0.37004   0.24175   0.75216   0.00000  Uiso   1.00
C765   C     0.62388   0.16652   0.75011   0.00000  Uiso   1.00
C766   C     0.37612   0.16681   0.74989   0.00000  Uiso   1.00
C767   C     0.47607   0.02600   0.72008   0.00000  Uiso   1.00
C768   C     0.52392   0.30733   0.77993   0.00000  Uiso   1.00
C769   C     0.52353   0.02330   0.78065   0.00000  Uiso   1.00
C770   C     0.47649   0.31003   0.71933   0.00000  Uiso   1.00
N771   N     0.50000   0.28402   0.75000   0.00000  Uiso   1.00
N772   N     0.50000   0.04931   0.75000   0.00000  Uiso   1.00
C773   C     0.57705   0.19399   0.88410   0.00000  Uiso   1.00
H774   H     0.60312   0.17175   0.89643   0.00000  Uiso   1.00
H775   H     0.57500   0.18960   0.84754   0.00000  Uiso   1.00
H776   H     0.58424   0.23087   0.89059   0.00000  Uiso   1.00
C777   C     0.42295   0.13934   0.61590   0.00000  Uiso   1.00
H778   H     0.41576   0.10247   0.60941   0.00000  Uiso   1.00
H779   H     0.42500   0.14373   0.65246   0.00000  Uiso   1.00
H780   H     0.39688   0.16159   0.60357   0.00000  Uiso   1.00
N781   N     0.45035   0.05175   0.68906   0.00000  Uiso   1.00
H782   H     0.45890   0.04331   0.65680   0.00000  Uiso   1.00
H783   H     0.41983   0.04162   0.69317   0.00000  Uiso   1.00
N784   N     0.54964   0.28157   0.81094   0.00000  Uiso   1.00
H785   H     0.58016   0.29169   0.80682   0.00000  Uiso   1.00
H786   H     0.54111   0.29003   0.84320   0.00000  Uiso   1.00
N787   N     0.54707   0.04433   0.81581   0.00000  Uiso   1.00
H788   H     0.52741   0.05651   0.84004   0.00000  Uiso   1.00
H789   H     0.56635   0.06988   0.80384   0.00000  Uiso   1.00
N790   N     0.45311   0.28900   0.68406   0.00000  Uiso   1.00
H791   H     0.43405   0.26318   0.69589   0.00000  Uiso   1.00
H792   H     0.47290   0.27707   0.65985   0.00000  Uiso   1.00
O793   O     0.77321   0.20625   0.75000   0.00000  Uiso   1.00
O794   O     0.89345   0.12709   0.75001   0.00000  Uiso   1.00
O795   O     0.89345   0.20625   0.75001   0.00000  Uiso   1.00
O796   O     0.77321   0.12709   0.75000   0.00000  Uiso   1.00
C797   C     0.75412   0.16679   0.74995   0.00000  Uiso   1.00
C798   C     0.91254   0.16655   0.75005   0.00000  Uiso   1.00
O799   O     0.83332   0.20627   0.68513   0.00000  Uiso   1.00
O800   O     0.83334   0.12707   0.81487   0.00000  Uiso   1.00
O801   O     0.83334   0.20627   0.81487   0.00000  Uiso   1.00
O802   O     0.83332   0.12707   0.68513   0.00000  Uiso   1.00
C803   C     0.83244   0.16696   0.66462   0.00000  Uiso   1.00
C804   C     0.83423   0.16638   0.83538   0.00000  Uiso   1.00
Cu805  Cu    0.83333   0.21355   0.75000   0.00000  Uiso   1.00
Cu806  Cu    0.83333   0.11978   0.75000   0.00000  Uiso   1.00
C807   C     0.87141   0.18057   0.90782   0.00000  Uiso   1.00
C808   C     0.79526   0.15276   0.59219   0.00000  Uiso   1.00
C809   C     0.83609   0.16568   0.88362   0.00000  Uiso   1.00
C810   C     0.83058   0.16765   0.61638   0.00000  Uiso   1.00
C811   C     0.80122   0.15032   0.90529   0.00000  Uiso   1.00
C812   C     0.86545   0.18302   0.59471   0.00000  Uiso   1.00
C813   C     0.79994   0.15063   0.95147   0.00000  Uiso   1.00
C814   C     0.86673   0.18270   0.54853   0.00000  Uiso   1.00
C815   C     0.83420   0.16639   0.97656   0.00000  Uiso   1.00
C816   C     0.83246   0.16695   0.52344   0.00000  Uiso   1.00
C817   C     0.87018   0.18145   0.95490   0.00000  Uiso   1.00
C818   C     0.79649   0.15188   0.54510   0.00000  Uiso   1.00
C819   C     0.76457   0.13574   0.97278   0.00000  Uiso   1.00
C820   C     0.90209   0.19760   0.52722   0.00000  Uiso   1.00
C821   C     0.76278   0.13634   0.51897   0.00000  Uiso   1.00
C822   C     0.90389   0.19699   0.98103   0.00000  Uiso   1.00
H823   H     0.77466   0.13876   0.88585   0.00000  Uiso   1.00
H824   H     0.89200   0.19458   0.61415   0.00000  Uiso   1.00
H825   H     0.73812   0.12362   0.95363   0.00000  Uiso   1.00
H826   H     0.92855   0.20972   0.54637   0.00000  Uiso   1.00
H827   H     0.73472   0.12434   0.53374   0.00000  Uiso   1.00
H828   H     0.93194   0.20900   0.96626   0.00000  Uiso   1.00
C829   C     0.68831   0.12466   0.74869   0.00000  Uiso   1.00
C830   C     0.97836   0.20867   0.75131   0.00000  Uiso   1.00
C831   C     0.97903   0.12451   0.74882   0.00000  Uiso   1.00
C832   C     0.68763   0.20882   0.75118   0.00000  Uiso   1.00
H833   H     0.70457   0.09177   0.74764   0.00000  Uiso   1.00
H834   H     0.96210   0.24157   0.75236   0.00000  Uiso   1.00
H835   H     0.96330   0.09158   0.74784   0.00000  Uiso   1.00
H836   H     0.70337   0.24175   0.75216   0.00000  Uiso   1.00
C837   C     0.95721   0.16652   0.75011   0.00000  Uiso   1.00
C838   C     0.70945   0.16681   0.74989   0.00000  Uiso   1.00
C839   C     0.80941   0.02600   0.72008   0.00000  Uiso   1.00
C840   C     0.85725   0.30733   0.77993   0.00000  Uiso   1.00
C841   C     0.85686   0.02330   0.78065   0.00000  Uiso   1.00
C842   C     0.80982   0.31003   0.71933   0.00000  Uiso   1.00
N843   N     0.83333   0.28402   0.75000   0.00000  Uiso   1.00
N844   N     0.83333   0.04931   0.75000   0.00000  Uiso   1.00
C845   C     0.91038   0.19399   0.88410   0.00000  Uiso   1.00
H846   H     0.93645   0.17175   0.89643   0.00000  Uiso   1.00
H847   H     0.90833   0.18960   0.84754   0.00000  Uiso   1.00
H848   H     0.91758   0.23087   0.89059   0.00000  Uiso   1.00
C849   C     0.75629   0.13934   0.61590   0.00000  Uiso   1.00
H850   H     0.74909   0.10247   0.60941   0.00000  Uiso   1.00
H851   H     0.75833   0.14373   0.65246   0.00000  Uiso   1.00
H852   H     0.73021   0.16159   0.60357   0.00000  Uiso   1.00
N853   N     0.78369   0.05175   0.68906   0.00000  Uiso   1.00
H854   H     0.79223   0.04331   0.65680   0.00000  Uiso   1.00
H855   H     0.75317   0.04162   0.69317   0.00000  Uiso   1.00
N856   N     0.88297   0.28157   0.81094   0.00000  Uiso   1.00
H857   H     0.91350   0.29169   0.80682   0.00000  Uiso   1.00
H858   H     0.87444   0.29003   0.84320   0.00000  Uiso   1.00
N859   N     0.88041   0.04433   0.81581   0.00000  Uiso   1.00
H860   H     0.86075   0.05651   0.84004   0.00000  Uiso   1.00
H861   H     0.89968   0.06988   0.80384   0.00000  Uiso   1.00
N862   N     0.78644   0.28900   0.68406   0.00000  Uiso   1.00
H863   H     0.76739   0.26318   0.69589   0.00000  Uiso   1.00
H864   H     0.80624   0.27707   0.65985   0.00000  Uiso   1.00
O865   O     0.10655   0.53958   0.75000   0.00000  Uiso   1.00
O866   O     0.22679   0.46042   0.75001   0.00000  Uiso   1.00
O867   O     0.22679   0.53958   0.75001   0.00000  Uiso   1.00
O868   O     0.10655   0.46042   0.75000   0.00000  Uiso   1.00
C869   C     0.08746   0.50012   0.74995   0.00000  Uiso   1.00
C870   C     0.24588   0.49988   0.75005   0.00000  Uiso   1.00
O871   O     0.16666   0.53960   0.68513   0.00000  Uiso   1.00
O872   O     0.16668   0.46040   0.81487   0.00000  Uiso   1.00
O873   O     0.16668   0.53960   0.81487   0.00000  Uiso   1.00
O874   O     0.16666   0.46040   0.68513   0.00000  Uiso   1.00
C875   C     0.16577   0.50029   0.66462   0.00000  Uiso   1.00
C876   C     0.16756   0.49971   0.83538   0.00000  Uiso   1.00
Cu877  Cu    0.16667   0.54689   0.75000   0.00000  Uiso   1.00
Cu878  Cu    0.16667   0.45311   0.75000   0.00000  Uiso   1.00
C879   C     0.20474   0.51391   0.90782   0.00000  Uiso   1.00
C880   C     0.12859   0.48609   0.59219   0.00000  Uiso   1.00
C881   C     0.16942   0.49902   0.88362   0.00000  Uiso   1.00
C882   C     0.16391   0.50099   0.61638   0.00000  Uiso   1.00
C883   C     0.13455   0.48365   0.90529   0.00000  Uiso   1.00
C884   C     0.19878   0.51635   0.59471   0.00000  Uiso   1.00
C885   C     0.13327   0.48397   0.95147   0.00000  Uiso   1.00
C886   C     0.20006   0.51604   0.54853   0.00000  Uiso   1.00
C887   C     0.16754   0.49972   0.97656   0.00000  Uiso   1.00
C888   C     0.16579   0.50028   0.52344   0.00000  Uiso   1.00
C889   C     0.20351   0.51479   0.95490   0.00000  Uiso   1.00
C890   C     0.12982   0.48521   0.54510   0.00000  Uiso   1.00
C891   C     0.09791   0.46907   0.97278   0.00000  Uiso   1.00
C892   C     0.23542   0.53093   0.52722   0.00000  Uiso   1.00
C893   C     0.09611   0.46968   0.51897   0.00000  Uiso   1.00
C894   C     0.23722   0.53033   0.98103   0.00000  Uiso   1.00
H895   H     0.10799   0.47209   0.88585   0.00000  Uiso   1.00
H896   H     0.22534   0.52791   0.61415   0.00000  Uiso   1.00
H897   H     0.07145   0.45695   0.95363   0.00000  Uiso   1.00
H898   H     0.26188   0.54305   0.54637   0.00000  Uiso   1.00
H899   H     0.06805   0.45767   0.53374   0.00000  Uiso   1.00
H900   H     0.26528   0.54233   0.96626   0.00000  Uiso   1.00
C901   C     0.02164   0.45799   0.74869   0.00000  Uiso   1.00
C902   C     0.31169   0.54201   0.75131   0.00000  Uiso   1.00
C903   C     0.31237   0.45785   0.74882   0.00000  Uiso   1.00
C904   C     0.02097   0.54215   0.75118   0.00000  Uiso   1.00
H905   H     0.03790   0.42510   0.74764   0.00000  Uiso   1.00
H906   H     0.29543   0.57490   0.75236   0.00000  Uiso   1.00
H907   H     0.29663   0.42492   0.74784   0.00000  Uiso   1.00
H908   H     0.03670   0.57508   0.75216   0.00000  Uiso   1.00
C909   C     0.29055   0.49985   0.75011   0.00000  Uiso   1.00
C910   C     0.04279   0.50015   0.74989   0.00000  Uiso   1.00
C911   C     0.14274   0.35933   0.72008   0.00000  Uiso   1.00
C912   C     0.19059   0.64067   0.77993   0.00000  Uiso   1.00
C913   C     0.19020   0.35663   0.78065   0.00000  Uiso   1.00
C914   C     0.14316   0.64337   0.71933   0.00000  Uiso   1.00
N915   N     0.16667   0.61736   0.75000   0.00000  Uiso   1.00
N916   N     0.16667   0.38264   0.75000   0.00000  Uiso   1.00
C917   C     0.24371   0.52733   0.88410   0.00000  Uiso   1.00
H918   H     0.26979   0.50508   0.89643   0.00000  Uiso   1.00
H919   H     0.24167   0.52294   0.84754   0.00000  Uiso   1.00
H920   H     0.25091   0.56420   0.89059   0.00000  Uiso   1.00
C921   C     0.08962   0.47267   0.61590   0.00000  Uiso   1.00
H922   H     0.08242   0.43580   0.60941   0.00000  Uiso   1.00
H923   H     0.09167   0.47706   0.65246   0.00000  Uiso   1.00
H924   H     0.06355   0.49492   0.60357   0.00000  Uiso   1.00
N925   N     0.11702   0.38509   0.68906   0.00000  Uiso   1.00
H926   H     0.12556   0.37664   0.65680   0.00000  Uiso   1.00
H927   H     0.08650   0.37495   0.69317   0.00000  Uiso   1.00
N928   N     0.21631   0.61491   0.81094   0.00000  Uiso   1.00
H929   H     0.24683   0.62502   0.80682   0.00000  Uiso   1.00
H930   H     0.20778   0.62336   0.84320   0.00000  Uiso   1.00
N931   N     0.21374   0.37766   0.81581   0.00000  Uiso   1.00
H932   H     0.19408   0.38985   0.84004   0.00000  Uiso   1.00
H933   H     0.23301   0.40321   0.80384   0.00000  Uiso   1.00
N934   N     0.11977   0.62233   0.68406   0.00000  Uiso   1.00
H935   H     0.10072   0.59652   0.69589   0.00000  Uiso   1.00
H936   H     0.13957   0.61040   0.65985   0.00000  Uiso   1.00
O937   O     0.43988   0.53958   0.75000   0.00000  Uiso   1.00
O938   O     0.56012   0.46042   0.75001   0.00000  Uiso   1.00
O939   O     0.56012   0.53958   0.75001   0.00000  Uiso   1.00
O940   O     0.43988   0.46042   0.75000   0.00000  Uiso   1.00
C941   C     0.42079   0.50012   0.74995   0.00000  Uiso   1.00
C942   C     0.57921   0.49988   0.75005   0.00000  Uiso   1.00
O943   O     0.49999   0.53960   0.68513   0.00000  Uiso   1.00
O944   O     0.50001   0.46040   0.81487   0.00000  Uiso   1.00
O945   O     0.50001   0.53960   0.81487   0.00000  Uiso   1.00
O946   O     0.49999   0.46040   0.68513   0.00000  Uiso   1.00
C947   C     0.49910   0.50029   0.66462   0.00000  Uiso   1.00
C948   C     0.50090   0.49971   0.83538   0.00000  Uiso   1.00
Cu949  Cu    0.50000   0.54689   0.75000   0.00000  Uiso   1.00
Cu950  Cu    0.50000   0.45311   0.75000   0.00000  Uiso   1.00
C951   C     0.53808   0.51391   0.90782   0.00000  Uiso   1.00
C952   C     0.46192   0.48609   0.59219   0.00000  Uiso   1.00
C953   C     0.50275   0.49902   0.88362   0.00000  Uiso   1.00
C954   C     0.49725   0.50099   0.61638   0.00000  Uiso   1.00
C955   C     0.46789   0.48365   0.90529   0.00000  Uiso   1.00
C956   C     0.53211   0.51635   0.59471   0.00000  Uiso   1.00
C957   C     0.46660   0.48397   0.95147   0.00000  Uiso   1.00
C958   C     0.53339   0.51604   0.54853   0.00000  Uiso   1.00
C959   C     0.50087   0.49972   0.97656   0.00000  Uiso   1.00
C960   C     0.49913   0.50028   0.52344   0.00000  Uiso   1.00
C961   C     0.53684   0.51479   0.95490   0.00000  Uiso   1.00
C962   C     0.46315   0.48521   0.54510   0.00000  Uiso   1.00
C963   C     0.43124   0.46907   0.97278   0.00000  Uiso   1.00
C964   C     0.56876   0.53093   0.52722   0.00000  Uiso   1.00
C965   C     0.42944   0.46968   0.51897   0.00000  Uiso   1.00
C966   C     0.57055   0.53033   0.98103   0.00000  Uiso   1.00
H967   H     0.44133   0.47209   0.88585   0.00000  Uiso   1.00
H968   H     0.55867   0.52791   0.61415   0.00000  Uiso   1.00
H969   H     0.40478   0.45695   0.95363   0.00000  Uiso   1.00
H970   H     0.59522   0.54305   0.54637   0.00000  Uiso   1.00
H971   H     0.40139   0.45767   0.53374   0.00000  Uiso   1.00
H972   H     0.59861   0.54233   0.96626   0.00000  Uiso   1.00
C973   C     0.35497   0.45799   0.74869   0.00000  Uiso   1.00
C974   C     0.64503   0.54201   0.75131   0.00000  Uiso   1.00
C975   C     0.64570   0.45785   0.74882   0.00000  Uiso   1.00
C976   C     0.35430   0.54215   0.75118   0.00000  Uiso   1.00
H977   H     0.37124   0.42510   0.74764   0.00000  Uiso   1.00
H978   H     0.62876   0.57490   0.75236   0.00000  Uiso   1.00
H979   H     0.62996   0.42492   0.74784   0.00000  Uiso   1.00
H980   H     0.37004   0.57508   0.75216   0.00000  Uiso   1.00
C981   C     0.62388   0.49985   0.75011   0.00000  Uiso   1.00
C982   C     0.37612   0.50015   0.74989   0.00000  Uiso   1.00
C983   C     0.47607   0.35933   0.72008   0.00000  Uiso   1.00
C984   C     0.52392   0.64067   0.77993   0.00000  Uiso   1.00
C985   C     0.52353   0.35663   0.78065   0.00000  Uiso   1.00
C986   C     0.47649   0.64337   0.71933   0.00000  Uiso   1.00
N987   N     0.50000   0.61736   0.75000   0.00000  Uiso   1.00
N988   N     0.50000   0.38264   0.75000   0.00000  Uiso   1.00
C989   C     0.57705   0.52733   0.88410   0.00000  Uiso   1.00
H990   H     0.60312   0.50508   0.89643   0.00000  Uiso   1.00
H991   H     0.57500   0.52294   0.84754   0.00000  Uiso   1.00
H992   H     0.58424   0.56420   0.89059   0.00000  Uiso   1.00
C993   C     0.42295   0.47267   0.61590   0.00000  Uiso   1.00
H994   H     0.41576   0.43580   0.60941   0.00000  Uiso   1.00
H995   H     0.42500   0.47706   0.65246   0.00000  Uiso   1.00
H996   H     0.39688   0.49492   0.60357   0.00000  Uiso   1.00
N997   N     0.45035   0.38509   0.68906   0.00000  Uiso   1.00
H998   H     0.45890   0.37664   0.65680   0.00000  Uiso   1.00
H999   H     0.41983   0.37495   0.69317   0.00000  Uiso   1.00
N1000  N     0.54964   0.61491   0.81094   0.00000  Uiso   1.00
H1001  H     0.58016   0.62502   0.80682   0.00000  Uiso   1.00
H1002  H     0.54111   0.62336   0.84320   0.00000  Uiso   1.00
N1003  N     0.54707   0.37766   0.81581   0.00000  Uiso   1.00
H1004  H     0.52741   0.38985   0.84004   0.00000  Uiso   1.00
H1005  H     0.56635   0.40321   0.80384   0.00000  Uiso   1.00
N1006  N     0.45311   0.62233   0.68406   0.00000  Uiso   1.00
H1007  H     0.43405   0.59652   0.69589   0.00000  Uiso   1.00
H1008  H     0.47290   0.61040   0.65985   0.00000  Uiso   1.00
O1009  O     0.77321   0.53958   0.75000   0.00000  Uiso   1.00
O1010  O     0.89345   0.46042   0.75001   0.00000  Uiso   1.00
O1011  O     0.89345   0.53958   0.75001   0.00000  Uiso   1.00
O1012  O     0.77321   0.46042   0.75000   0.00000  Uiso   1.00
C1013  C     0.75412   0.50012   0.74995   0.00000  Uiso   1.00
C1014  C     0.91254   0.49988   0.75005   0.00000  Uiso   1.00
O1015  O     0.83332   0.53960   0.68513   0.00000  Uiso   1.00
O1016  O     0.83334   0.46040   0.81487   0.00000  Uiso   1.00
O1017  O     0.83334   0.53960   0.81487   0.00000  Uiso   1.00
O1018  O     0.83332   0.46040   0.68513   0.00000  Uiso   1.00
C1019  C     0.83244   0.50029   0.66462   0.00000  Uiso   1.00
C1020  C     0.83423   0.49971   0.83538   0.00000  Uiso   1.00
Cu1021 Cu    0.83333   0.54689   0.75000   0.00000  Uiso   1.00
Cu1022 Cu    0.83333   0.45311   0.75000   0.00000  Uiso   1.00
C1023  C     0.87141   0.51391   0.90782   0.00000  Uiso   1.00
C1024  C     0.79526   0.48609   0.59219   0.00000  Uiso   1.00
C1025  C     0.83609   0.49902   0.88362   0.00000  Uiso   1.00
C1026  C     0.83058   0.50099   0.61638   0.00000  Uiso   1.00
C1027  C     0.80122   0.48365   0.90529   0.00000  Uiso   1.00
C1028  C     0.86545   0.51635   0.59471   0.00000  Uiso   1.00
C1029  C     0.79994   0.48397   0.95147   0.00000  Uiso   1.00
C1030  C     0.86673   0.51604   0.54853   0.00000  Uiso   1.00
C1031  C     0.83420   0.49972   0.97656   0.00000  Uiso   1.00
C1032  C     0.83246   0.50028   0.52344   0.00000  Uiso   1.00
C1033  C     0.87018   0.51479   0.95490   0.00000  Uiso   1.00
C1034  C     0.79649   0.48521   0.54510   0.00000  Uiso   1.00
C1035  C     0.76457   0.46907   0.97278   0.00000  Uiso   1.00
C1036  C     0.90209   0.53093   0.52722   0.00000  Uiso   1.00
C1037  C     0.76278   0.46968   0.51897   0.00000  Uiso   1.00
C1038  C     0.90389   0.53033   0.98103   0.00000  Uiso   1.00
H1039  H     0.77466   0.47209   0.88585   0.00000  Uiso   1.00
H1040  H     0.89200   0.52791   0.61415   0.00000  Uiso   1.00
H1041  H     0.73812   0.45695   0.95363   0.00000  Uiso   1.00
H1042  H     0.92855   0.54305   0.54637   0.00000  Uiso   1.00
H1043  H     0.73472   0.45767   0.53374   0.00000  Uiso   1.00
H1044  H     0.93194   0.54233   0.96626   0.00000  Uiso   1.00
C1045  C     0.68831   0.45799   0.74869   0.00000  Uiso   1.00
C1046  C     0.97836   0.54201   0.75131   0.00000  Uiso   1.00
C1047  C     0.97903   0.45785   0.74882   0.00000  Uiso   1.00
C1048  C     0.68763   0.54215   0.75118   0.00000  Uiso   1.00
H1049  H     0.70457   0.42510   0.74764   0.00000  Uiso   1.00
H1050  H     0.96210   0.57490   0.75236   0.00000  Uiso   1.00
H1051  H     0.96330   0.42492   0.74784   0.00000  Uiso   1.00
H1052  H     0.70337   0.57508   0.75216   0.00000  Uiso   1.00
C1053  C     0.95721   0.49985   0.75011   0.00000  Uiso   1.00
C1054  C     0.70945   0.50015   0.74989   0.00000  Uiso   1.00
C1055  C     0.80941   0.35933   0.72008   0.00000  Uiso   1.00
C1056  C     0.85725   0.64067   0.77993   0.00000  Uiso   1.00
C1057  C     0.85686   0.35663   0.78065   0.00000  Uiso   1.00
C1058  C     0.80982   0.64337   0.71933   0.00000  Uiso   1.00
N1059  N     0.83333   0.61736   0.75000   0.00000  Uiso   1.00
N1060  N     0.83333   0.38264   0.75000   0.00000  Uiso   1.00
C1061  C     0.91038   0.52733   0.88410   0.00000  Uiso   1.00
H1062  H     0.93645   0.50508   0.89643   0.00000  Uiso   1.00
H1063  H     0.90833   0.52294   0.84754   0.00000  Uiso   1.00
H1064  H     0.91758   0.56420   0.89059   0.00000  Uiso   1.00
C1065  C     0.75629   0.47267   0.61590   0.00000  Uiso   1.00
H1066  H     0.74909   0.43580   0.60941   0.00000  Uiso   1.00
H1067  H     0.75833   0.47706   0.65246   0.00000  Uiso   1.00
H1068  H     0.73021   0.49492   0.60357   0.00000  Uiso   1.00
N1069  N     0.78369   0.38509   0.68906   0.00000  Uiso   1.00
H1070  H     0.79223   0.37664   0.65680   0.00000  Uiso   1.00
H1071  H     0.75317   0.37495   0.69317   0.00000  Uiso   1.00
N1072  N     0.88297   0.61491   0.81094   0.00000  Uiso   1.00
H1073  H     0.91350   0.62502   0.80682   0.00000  Uiso   1.00
H1074  H     0.87444   0.62336   0.84320   0.00000  Uiso   1.00
N1075  N     0.88041   0.37766   0.81581   0.00000  Uiso   1.00
H1076  H     0.86075   0.38985   0.84004   0.00000  Uiso   1.00
H1077  H     0.89968   0.40321   0.80384   0.00000  Uiso   1.00
N1078  N     0.78644   0.62233   0.68406   0.00000  Uiso   1.00
H1079  H     0.76739   0.59652   0.69589   0.00000  Uiso   1.00
H1080  H     0.80624   0.61040   0.65985   0.00000  Uiso   1.00
O1081  O     0.10655   0.87291   0.75000   0.00000  Uiso   1.00
O1082  O     0.22679   0.79375   0.75001   0.00000  Uiso   1.00
O1083  O     0.22679   0.87291   0.75001   0.00000  Uiso   1.00
O1084  O     0.10655   0.79375   0.75000   0.00000  Uiso   1.00
C1085  C     0.08746   0.83345   0.74995   0.00000  Uiso   1.00
C1086  C     0.24588   0.83321   0.75005   0.00000  Uiso   1.00
O1087  O     0.16666   0.87293   0.68513   0.00000  Uiso   1.00
O1088  O     0.16668   0.79373   0.81487   0.00000  Uiso   1.00
O1089  O     0.16668   0.87293   0.81487   0.00000  Uiso   1.00
O1090  O     0.16666   0.79373   0.68513   0.00000  Uiso   1.00
C1091  C     0.16577   0.83362   0.66462   0.00000  Uiso   1.00
C1092  C     0.16756   0.83304   0.83538   0.00000  Uiso   1.00
Cu1093 Cu    0.16667   0.88022   0.75000   0.00000  Uiso   1.00
Cu1094 Cu    0.16667   0.78645   0.75000   0.00000  Uiso   1.00
C1095  C     0.20474   0.84724   0.90782   0.00000  Uiso   1.00
C1096  C     0.12859   0.81943   0.59219   0.00000  Uiso   1.00
C1097  C     0.16942   0.83235   0.88362   0.00000  Uiso   1.00
C1098  C     0.16391   0.83432   0.61638   0.00000  Uiso   1.00
C1099  C     0.13455   0.81699   0.90529   0.00000  Uiso   1.00
C1100  C     0.19878   0.84968   0.59471   0.00000  Uiso   1.00
C1101  C     0.13327   0.81730   0.95147   0.00000  Uiso   1.00
C1102  C     0.20006   0.84937   0.54853   0.00000  Uiso   1.00
C1103  C     0.16754   0.83306   0.97656   0.00000  Uiso   1.00
C1104  C     0.16579   0.83361   0.52344   0.00000  Uiso   1.00
C1105  C     0.20351   0.84812   0.95490   0.00000  Uiso   1.00
C1106  C     0.12982   0.81855   0.54510   0.00000  Uiso   1.00
C1107  C     0.09791   0.80241   0.97278   0.00000  Uiso   1.00
C1108  C     0.23542   0.86426   0.52722   0.00000  Uiso   1.00
C1109  C     0.09611   0.80301   0.51897   0.00000  Uiso   1.00
C1110  C     0.23722   0.86366   0.98103   0.00000  Uiso   1.00
H1111  H     0.10799   0.80543   0.88585   0.00000  Uiso   1.00
H1112  H     0.22534   0.86124   0.61415   0.00000  Uiso   1.00
H1113  H     0.07145   0.79029   0.95363   0.00000  Uiso   1.00
H1114  H     0.26188   0.87639   0.54637   0.00000  Uiso   1.00
H1115  H     0.06805   0.79100   0.53374   0.00000  Uiso   1.00
H1116  H     0.26528   0.87567   0.96626   0.00000  Uiso   1.00
C1117  C     0.02164   0.79133   0.74869   0.00000  Uiso   1.00
C1118  C     0.31169   0.87534   0.75131   0.00000  Uiso   1.00
C1119  C     0.31237   0.79118   0.74882   0.00000  Uiso   1.00
C1120  C     0.02097   0.87549   0.75118   0.00000  Uiso   1.00
H1121  H     0.03790   0.75843   0.74764   0.00000  Uiso   1.00
H1122  H     0.29543   0.90823   0.75236   0.00000  Uiso   1.00
H1123  H     0.29663   0.75825   0.74784   0.00000  Uiso   1.00
H1124  H     0.03670   0.90842   0.75216   0.00000  Uiso   1.00
C1125  C     0.29055   0.83319   0.75011   0.00000  Uiso   1.00
C1126  C     0.04279   0.83348   0.74989   0.00000  Uiso   1.00
C1127  C     0.14274   0.69266   0.72008   0.00000  Uiso   1.00
C1128  C     0.19059   0.97400   0.77993   0.00000  Uiso   1.00
C1129  C     0.19020   0.68996   0.78065   0.00000  Uiso   1.00
C1130  C     0.14316   0.97670   0.71933   0.00000  Uiso   1.00
N1131  N     0.16667   0.95069   0.75000   0.00000  Uiso   1.00
N1132  N     0.16667   0.71598   0.75000   0.00000  Uiso   1.00
C1133  C     0.24371   0.86066   0.88410   0.00000  Uiso   1.00
H1134  H     0.26979   0.83841   0.89643   0.00000  Uiso   1.00
H1135  H     0.24167   0.85627   0.84754   0.00000  Uiso   1.00
H1136  H     0.25091   0.89753   0.89059   0.00000  Uiso   1.00
C1137  C     0.08962   0.80601   0.61590   0.00000  Uiso   1.00
H1138  H     0.08242   0.76914   0.60941   0.00000  Uiso   1.00
H1139  H     0.09167   0.81040   0.65246   0.00000  Uiso   1.00
H1140  H     0.06355   0.82826   0.60357   0.00000  Uiso   1.00
N1141  N     0.11702   0.71842   0.68906   0.00000  Uiso   1.00
H1142  H     0.12556   0.70998   0.65680   0.00000  Uiso   1.00
H1143  H     0.08650   0.70829   0.69317   0.00000  Uiso   1.00
N1144  N     0.21631   0.94824   0.81094   0.00000  Uiso   1.00
H1145  H     0.24683   0.95835   0.80682   0.00000  Uiso   1.00
H1146  H     0.20778   0.95670   0.84320   0.00000  Uiso   1.00
N1147  N     0.21374   0.71099   0.81581   0.00000  Uiso   1.00
H1148  H     0.19408   0.72318   0.84004   0.00000  Uiso   1.00
H1149  H     0.23301   0.73655   0.80384   0.00000  Uiso   1.00
N1150  N     0.11977   0.95567   0.68406   0.00000  Uiso   1.00
H1151  H     0.10072   0.92985   0.69589   0.00000  Uiso   1.00
H1152  H     0.13957   0.94373   0.65985   0.00000  Uiso   1.00
O1153  O     0.43988   0.87291   0.75000   0.00000  Uiso   1.00
O1154  O     0.56012   0.79375   0.75001   0.00000  Uiso   1.00
O1155  O     0.56012   0.87291   0.75001   0.00000  Uiso   1.00
O1156  O     0.43988   0.79375   0.75000   0.00000  Uiso   1.00
C1157  C     0.42079   0.83345   0.74995   0.00000  Uiso   1.00
C1158  C     0.57921   0.83321   0.75005   0.00000  Uiso   1.00
O1159  O     0.49999   0.87293   0.68513   0.00000  Uiso   1.00
O1160  O     0.50001   0.79373   0.81487   0.00000  Uiso   1.00
O1161  O     0.50001   0.87293   0.81487   0.00000  Uiso   1.00
O1162  O     0.49999   0.79373   0.68513   0.00000  Uiso   1.00
C1163  C     0.49910   0.83362   0.66462   0.00000  Uiso   1.00
C1164  C     0.50090   0.83304   0.83538   0.00000  Uiso   1.00
Cu1165 Cu    0.50000   0.88022   0.75000   0.00000  Uiso   1.00
Cu1166 Cu    0.50000   0.78645   0.75000   0.00000  Uiso   1.00
C1167  C     0.53808   0.84724   0.90782   0.00000  Uiso   1.00
C1168  C     0.46192   0.81943   0.59219   0.00000  Uiso   1.00
C1169  C     0.50275   0.83235   0.88362   0.00000  Uiso   1.00
C1170  C     0.49725   0.83432   0.61638   0.00000  Uiso   1.00
C1171  C     0.46789   0.81699   0.90529   0.00000  Uiso   1.00
C1172  C     0.53211   0.84968   0.59471   0.00000  Uiso   1.00
C1173  C     0.46660   0.81730   0.95147   0.00000  Uiso   1.00
C1174  C     0.53339   0.84937   0.54853   0.00000  Uiso   1.00
C1175  C     0.50087   0.83306   0.97656   0.00000  Uiso   1.00
C1176  C     0.49913   0.83361   0.52344   0.00000  Uiso   1.00
C1177  C     0.53684   0.84812   0.95490   0.00000  Uiso   1.00
C1178  C     0.46315   0.81855   0.54510   0.00000  Uiso   1.00
C1179  C     0.43124   0.80241   0.97278   0.00000  Uiso   1.00
C1180  C     0.56876   0.86426   0.52722   0.00000  Uiso   1.00
C1181  C     0.42944   0.80301   0.51897   0.00000  Uiso   1.00
C1182  C     0.57055   0.86366   0.98103   0.00000  Uiso   1.00
H1183  H     0.44133   0.80543   0.88585   0.00000  Uiso   1.00
H1184  H     0.55867   0.86124   0.61415   0.00000  Uiso   1.00
H1185  H     0.40478   0.79029   0.95363   0.00000  Uiso   1.00
H1186  H     0.59522   0.87639   0.54637   0.00000  Uiso   1.00
H1187  H     0.40139   0.79100   0.53374   0.00000  Uiso   1.00
H1188  H     0.59861   0.87567   0.96626   0.00000  Uiso   1.00
C1189  C     0.35497   0.79133   0.74869   0.00000  Uiso   1.00
C1190  C     0.64503   0.87534   0.75131   0.00000  Uiso   1.00
C1191  C     0.64570   0.79118   0.74882   0.00000  Uiso   1.00
C1192  C     0.35430   0.87549   0.75118   0.00000  Uiso   1.00
H1193  H     0.37124   0.75843   0.74764   0.00000  Uiso   1.00
H1194  H     0.62876   0.90823   0.75236   0.00000  Uiso   1.00
H1195  H     0.62996   0.75825   0.74784   0.00000  Uiso   1.00
H1196  H     0.37004   0.90842   0.75216   0.00000  Uiso   1.00
C1197  C     0.62388   0.83319   0.75011   0.00000  Uiso   1.00
C1198  C     0.37612   0.83348   0.74989   0.00000  Uiso   1.00
C1199  C     0.47607   0.69266   0.72008   0.00000  Uiso   1.00
C1200  C     0.52392   0.97400   0.77993   0.00000  Uiso   1.00
C1201  C     0.52353   0.68996   0.78065   0.00000  Uiso   1.00
C1202  C     0.47649   0.97670   0.71933   0.00000  Uiso   1.00
N1203  N     0.50000   0.95069   0.75000   0.00000  Uiso   1.00
N1204  N     0.50000   0.71598   0.75000   0.00000  Uiso   1.00
C1205  C     0.57705   0.86066   0.88410   0.00000  Uiso   1.00
H1206  H     0.60312   0.83841   0.89643   0.00000  Uiso   1.00
H1207  H     0.57500   0.85627   0.84754   0.00000  Uiso   1.00
H1208  H     0.58424   0.89753   0.89059   0.00000  Uiso   1.00
C1209  C     0.42295   0.80601   0.61590   0.00000  Uiso   1.00
H1210  H     0.41576   0.76914   0.60941   0.00000  Uiso   1.00
H1211  H     0.42500   0.81040   0.65246   0.00000  Uiso   1.00
H1212  H     0.39688   0.82826   0.60357   0.00000  Uiso   1.00
N1213  N     0.45035   0.71842   0.68906   0.00000  Uiso   1.00
H1214  H     0.45890   0.70998   0.65680   0.00000  Uiso   1.00
H1215  H     0.41983   0.70829   0.69317   0.00000  Uiso   1.00
N1216  N     0.54964   0.94824   0.81094   0.00000  Uiso   1.00
H1217  H     0.58016   0.95835   0.80682   0.00000  Uiso   1.00
H1218  H     0.54111   0.95670   0.84320   0.00000  Uiso   1.00
N1219  N     0.54707   0.71099   0.81581   0.00000  Uiso   1.00
H1220  H     0.52741   0.72318   0.84004   0.00000  Uiso   1.00
H1221  H     0.56635   0.73655   0.80384   0.00000  Uiso   1.00
N1222  N     0.45311   0.95567   0.68406   0.00000  Uiso   1.00
H1223  H     0.43405   0.92985   0.69589   0.00000  Uiso   1.00
H1224  H     0.47290   0.94373   0.65985   0.00000  Uiso   1.00
O1225  O     0.77321   0.87291   0.75000   0.00000  Uiso   1.00
O1226  O     0.89345   0.79375   0.75001   0.00000  Uiso   1.00
O1227  O     0.89345   0.87291   0.75001   0.00000  Uiso   1.00
O1228  O     0.77321   0.79375   0.75000   0.00000  Uiso   1.00
C1229  C     0.75412   0.83345   0.74995   0.00000  Uiso   1.00
C1230  C     0.91254   0.83321   0.75005   0.00000  Uiso   1.00
O1231  O     0.83332   0.87293   0.68513   0.00000  Uiso   1.00
O1232  O     0.83334   0.79373   0.81487   0.00000  Uiso   1.00
O1233  O     0.83334   0.87293   0.81487   0.00000  Uiso   1.00
O1234  O     0.83332   0.79373   0.68513   0.00000  Uiso   1.00
C1235  C     0.83244   0.83362   0.66462   0.00000  Uiso   1.00
C1236  C     0.83423   0.83304   0.83538   0.00000  Uiso   1.00
Cu1237 Cu    0.83333   0.88022   0.75000   0.00000  Uiso   1.00
Cu1238 Cu    0.83333   0.78645   0.75000   0.00000  Uiso   1.00
C1239  C     0.87141   0.84724   0.90782   0.00000  Uiso   1.00
C1240  C     0.79526   0.81943   0.59219   0.00000  Uiso   1.00
C1241  C     0.83609   0.83235   0.88362   0.00000  Uiso   1.00
C1242  C     0.83058   0.83432   0.61638   0.00000  Uiso   1.00
C1243  C     0.80122   0.81699   0.90529   0.00000  Uiso   1.00
C1244  C     0.86545   0.84968   0.59471   0.00000  Uiso   1.00
C1245  C     0.79994   0.81730   0.95147   0.00000  Uiso   1.00
C1246  C     0.86673   0.84937   0.54853   0.00000  Uiso   1.00
C1247  C     0.83420   0.83306   0.97656   0.00000  Uiso   1.00
C1248  C     0.83246   0.83361   0.52344   0.00000  Uiso   1.00
C1249  C     0.87018   0.84812   0.95490   0.00000  Uiso   1.00
C1250  C     0.79649   0.81855   0.54510   0.00000  Uiso   1.00
C1251  C     0.76457   0.80241   0.97278   0.00000  Uiso   1.00
C1252  C     0.90209   0.86426   0.52722   0.00000  Uiso   1.00
C1253  C     0.76278   0.80301   0.51897   0.00000  Uiso   1.00
C1254  C     0.90389   0.86366   0.98103   0.00000  Uiso   1.00
H1255  H     0.77466   0.80543   0.88585   0.00000  Uiso   1.00
H1256  H     0.89200   0.86124   0.61415   0.00000  Uiso   1.00
H1257  H     0.73812   0.79029   0.95363   0.00000  Uiso   1.00
H1258  H     0.92855   0.87639   0.54637   0.00000  Uiso   1.00
H1259  H     0.73472   0.79100   0.53374   0.00000  Uiso   1.00
H1260  H     0.93194   0.87567   0.96626   0.00000  Uiso   1.00
C1261  C     0.68831   0.79133   0.74869   0.00000  Uiso   1.00
C1262  C     0.97836   0.87534   0.75131   0.00000  Uiso   1.00
C1263  C     0.97903   0.79118   0.74882   0.00000  Uiso   1.00
C1264  C     0.68763   0.87549   0.75118   0.00000  Uiso   1.00
H1265  H     0.70457   0.75843   0.74764   0.00000  Uiso   1.00
H1266  H     0.96210   0.90823   0.75236   0.00000  Uiso   1.00
H1267  H     0.96330   0.75825   0.74784   0.00000  Uiso   1.00
H1268  H     0.70337   0.90842   0.75216   0.00000  Uiso   1.00
C1269  C     0.95721   0.83319   0.75011   0.00000  Uiso   1.00
C1270  C     0.70945   0.83348   0.74989   0.00000  Uiso   1.00
C1271  C     0.80941   0.69266   0.72008   0.00000  Uiso   1.00
C1272  C     0.85725   0.97400   0.77993   0.00000  Uiso   1.00
C1273  C     0.85686   0.68996   0.78065   0.00000  Uiso   1.00
C1274  C     0.80982   0.97670   0.71933   0.00000  Uiso   1.00
N1275  N     0.83333   0.95069   0.75000   0.00000  Uiso   1.00
N1276  N     0.83333   0.71598   0.75000   0.00000  Uiso   1.00
C1277  C     0.91038   0.86066   0.88410   0.00000  Uiso   1.00
H1278  H     0.93645   0.83841   0.89643   0.00000  Uiso   1.00
H1279  H     0.90833   0.85627   0.84754   0.00000  Uiso   1.00
H1280  H     0.91758   0.89753   0.89059   0.00000  Uiso   1.00
C1281  C     0.75629   0.80601   0.61590   0.00000  Uiso   1.00
H1282  H     0.74909   0.76914   0.60941   0.00000  Uiso   1.00
H1283  H     0.75833   0.81040   0.65246   0.00000  Uiso   1.00
H1284  H     0.73021   0.82826   0.60357   0.00000  Uiso   1.00
N1285  N     0.78369   0.71842   0.68906   0.00000  Uiso   1.00
H1286  H     0.79223   0.70998   0.65680   0.00000  Uiso   1.00
H1287  H     0.75317   0.70829   0.69317   0.00000  Uiso   1.00
N1288  N     0.88297   0.94824   0.81094   0.00000  Uiso   1.00
H1289  H     0.91350   0.95835   0.80682   0.00000  Uiso   1.00
H1290  H     0.87444   0.95670   0.84320   0.00000  Uiso   1.00
N1291  N     0.88041   0.71099   0.81581   0.00000  Uiso   1.00
H1292  H     0.86075   0.72318   0.84004   0.00000  Uiso   1.00
H1293  H     0.89968   0.73655   0.80384   0.00000  Uiso   1.00
N1294  N     0.78644   0.95567   0.68406   0.00000  Uiso   1.00
H1295  H     0.76739   0.92985   0.69589   0.00000  Uiso   1.00
H1296  H     0.80624   0.94373   0.65985   0.00000  Uiso   1.00
loop_
_geom_bond_atom_site_label_1
_geom_bond_atom_site_label_2
_geom_bond_distance
_geom_bond_site_symmetry_2
_ccdc_geom_bond_type
O1     C5      1.301   .     A
O1     Cu13    1.965   .     S
O2     Cu14    1.965   .     S
O2     C6      1.301   .     A
O3     Cu13    1.961   .     S
O3     C6      1.297   .     A
O4     Cu14    1.961   .     S
O4     C5      1.297   .     A
C5     C46     1.450   .     S
C6     C45     1.450   .     S
O7     C11     1.298   .     A
O7     Cu13    1.961   .     S
O8     C12     1.298   .     A
O8     Cu14    1.961   .     S
O9     C12     1.298   .     A
O9     Cu13    1.956   .     S
O10    C11     1.298   .     A
O10    Cu14    1.956   .     S
C11    C18     1.448   .     S
C12    C17     1.448   .     S
Cu13   N51     2.033   .     S
Cu13   Cu14    2.706   .     S
Cu14   N52     2.033   .     S
C15    C53     1.519   .     S
C15    C25     1.416   .     A
C15    C17     1.414   .     A
C16    C57     1.519   .     S
C16    C18     1.414   .     A
C16    C26     1.416   .     A
C17    C19     1.393   .     A
C18    C20     1.393   .     A
C19    H31     1.086   .     S
C19    C21     1.388   .     A
C20    C22     1.388   .     A
C20    H32     1.086   .     S
C21    C23     1.409   .     A
C21    C27     1.397   .     A
C22    C28     1.397   .     A
C22    C24     1.409   .     A
C23    C25     1.420   .     A
C23    C672    1.410   .     S
C24    C26     1.420   .     A
C24    C671    1.410   1_554 S
C25    C30     1.410   .     A
C26    C29     1.410   .     A
C27    H33     1.084   .     S
C27    C677    1.390   .     S
C28    H34     1.084   .     S
C28    C678    1.390   1_554 S
C29    H35     1.081   .     S
C29    C675    1.390   1_554 S
C30    H36     1.081   .     S
C30    C676    1.390   .     S
C37    H41     1.083   .     S
C37    C46     1.403   .     A
C37    C183    1.383   1_455 S
C38    H42     1.083   .     S
C38    C45     1.402   .     A
C38    C112    1.383   .     S
C39    H43     1.083   .     S
C39    C45     1.400   .     A
C39    C109    1.383   .     S
C40    H44     1.083   .     S
C40    C46     1.400   .     A
C40    C182    1.383   1_455 S
C47    N61     1.431   .     S
C47    N52     1.361   .     A
C47    C482    1.423   1_545 S
C48    N51     1.361   .     A
C48    N64     1.431   .     S
C48    C265    1.423   .     S
C49    N67     1.432   .     S
C49    N52     1.389   .     A
C49    C480    1.423   1_545 S
C50    N51     1.389   .     A
C50    N70     1.431   .     S
C50    C263    1.423   .     S
C53    H54     1.110   .     S
C53    H55     1.107   .     S
C53    H56     1.110   .     S
C57    H58     1.110   .     S
C57    H59     1.107   .     S
C57    H60     1.110   .     S
N61    H62     1.046   .     S
N61    H63     1.046   .     S
N64    H65     1.045   .     S
N64    H66     1.045   .     S
N67    H68     1.043   .     S
N67    H69     1.038   .     S
N70    H71     1.037   .     S
N70    H72     1.042   .     S
O73    C77     1.301   .     A
O73    Cu85    1.965   .     S
O74    Cu86    1.965   .     S
O74    C78     1.301   .     A
O75    Cu85    1.961   .     S
O75    C78     1.297   .     A
O76    Cu86    1.961   .     S
O76    C77     1.297   .     A
C77    C118    1.450   .     S
C78    C117    1.450   .     S
O79    C83     1.298   .     A
O79    Cu85    1.961   .     S
O80    C84     1.298   .     A
O80    Cu86    1.961   .     S
O81    C84     1.298   .     A
O81    Cu85    1.956   .     S
O82    C83     1.298   .     A
O82    Cu86    1.956   .     S
C83    C90     1.448   .     S
C84    C89     1.448   .     S
Cu85   N123    2.033   .     S
Cu85   Cu86    2.706   .     S
Cu86   N124    2.033   .     S
C87    C125    1.519   .     S
C87    C97     1.416   .     A
C87    C89     1.414   .     A
C88    C129    1.519   .     S
C88    C90     1.414   .     A
C88    C98     1.416   .     A
C89    C91     1.393   .     A
C90    C92     1.393   .     A
C91    H103    1.086   .     S
C91    C93     1.388   .     A
C92    C94     1.388   .     A
C92    H104    1.086   .     S
C93    C95     1.409   .     A
C93    C99     1.397   .     A
C94    C100    1.397   .     A
C94    C96     1.409   .     A
C95    C97     1.420   .     A
C95    C744    1.410   .     S
C96    C98     1.420   .     A
C96    C743    1.410   1_554 S
C97    C102    1.410   .     A
C98    C101    1.410   .     A
C99    H105    1.084   .     S
C99    C749    1.390   .     S
C100   H106    1.084   .     S
C100   C750    1.390   1_554 S
C101   H107    1.081   .     S
C101   C747    1.390   1_554 S
C102   H108    1.081   .     S
C102   C748    1.390   .     S
C109   H113    1.083   .     S
C109   C118    1.403   .     A
C110   H114    1.083   .     S
C110   C117    1.402   .     A
C110   C184    1.383   .     S
C111   H115    1.083   .     S
C111   C117    1.400   .     A
C111   C181    1.383   .     S
C112   H116    1.083   .     S
C112   C118    1.400   .     A
C119   N133    1.431   .     S
C119   N124    1.361   .     A
C119   C554    1.423   1_545 S
C120   N123    1.361   .     A
C120   N136    1.431   .     S
C120   C337    1.423   .     S
C121   N139    1.432   .     S
C121   N124    1.389   .     A
C121   C552    1.423   1_545 S
C122   N123    1.389   .     A
C122   N142    1.431   .     S
C122   C335    1.423   .     S
C125   H126    1.110   .     S
C125   H127    1.107   .     S
C125   H128    1.110   .     S
C129   H130    1.110   .     S
C129   H131    1.107   .     S
C129   H132    1.110   .     S
N133   H134    1.046   .     S
N133   H135    1.046   .     S
N136   H137    1.045   .     S
N136   H138    1.045   .     S
N139   H140    1.043   .     S
N139   H141    1.038   .     S
N142   H143    1.037   .     S
N142   H144    1.042   .     S
O145   C149    1.301   .     A
O145   Cu157   1.965   .     S
O146   Cu158   1.965   .     S
O146   C150    1.301   .     A
O147   Cu157   1.961   .     S
O147   C150    1.297   .     A
O148   Cu158   1.961   .     S
O148   C149    1.297   .     A
C149   C190    1.450   .     S
C150   C189    1.450   .     S
O151   C155    1.298   .     A
O151   Cu157   1.961   .     S
O152   C156    1.298   .     A
O152   Cu158   1.961   .     S
O153   C156    1.298   .     A
O153   Cu157   1.956   .     S
O154   C155    1.298   .     A
O154   Cu158   1.956   .     S
C155   C162    1.448   .     S
C156   C161    1.448   .     S
Cu157  N195    2.033   .     S
Cu157  Cu158   2.706   .     S
Cu158  N196    2.033   .     S
C159   C197    1.519   .     S
C159   C169    1.416   .     A
C159   C161    1.414   .     A
C160   C201    1.519   .     S
C160   C162    1.414   .     A
C160   C170    1.416   .     A
C161   C163    1.393   .     A
C162   C164    1.393   .     A
C163   H175    1.086   .     S
C163   C165    1.388   .     A
C164   C166    1.388   .     A
C164   H176    1.086   .     S
C165   C167    1.409   .     A
C165   C171    1.397   .     A
C166   C172    1.397   .     A
C166   C168    1.409   .     A
C167   C169    1.420   .     A
C167   C816    1.410   .     S
C168   C170    1.420   .     A
C168   C815    1.410   1_554 S
C169   C174    1.410   .     A
C170   C173    1.410   .     A
C171   H177    1.084   .     S
C171   C821    1.390   .     S
C172   H178    1.084   .     S
C172   C822    1.390   1_554 S
C173   H179    1.081   .     S
C173   C819    1.390   1_554 S
C174   H180    1.081   .     S
C174   C820    1.390   .     S
C181   H185    1.083   .     S
C181   C190    1.403   .     A
C182   H186    1.083   .     S
C182   C189    1.402   .     A
C182   C40     1.383   1_655 S
C183   H187    1.083   .     S
C183   C189    1.400   .     A
C183   C37     1.383   1_655 S
C184   H188    1.083   .     S
C184   C190    1.400   .     A
C191   N205    1.431   .     S
C191   N196    1.361   .     A
C191   C626    1.423   1_545 S
C192   N195    1.361   .     A
C192   N208    1.431   .     S
C192   C409    1.423   .     S
C193   N211    1.432   .     S
C193   N196    1.389   .     A
C193   C624    1.423   1_545 S
C194   N195    1.389   .     A
C194   N214    1.431   .     S
C194   C407    1.423   .     S
C197   H198    1.110   .     S
C197   H199    1.107   .     S
C197   H200    1.110   .     S
C201   H202    1.110   .     S
C201   H203    1.107   .     S
C201   H204    1.110   .     S
N205   H206    1.046   .     S
N205   H207    1.046   .     S
N208   H209    1.045   .     S
N208   H210    1.045   .     S
N211   H212    1.043   .     S
N211   H213    1.038   .     S
N214   H215    1.037   .     S
N214   H216    1.042   .     S
O217   C221    1.301   .     A
O217   Cu229   1.965   .     S
O218   Cu230   1.965   .     S
O218   C222    1.301   .     A
O219   Cu229   1.961   .     S
O219   C222    1.297   .     A
O220   Cu230   1.961   .     S
O220   C221    1.297   .     A
C221   C262    1.450   .     S
C222   C261    1.450   .     S
O223   C227    1.298   .     A
O223   Cu229   1.961   .     S
O224   C228    1.298   .     A
O224   Cu230   1.961   .     S
O225   C228    1.298   .     A
O225   Cu229   1.956   .     S
O226   C227    1.298   .     A
O226   Cu230   1.956   .     S
C227   C234    1.448   .     S
C228   C233    1.448   .     S
Cu229  N267    2.033   .     S
Cu229  Cu230   2.706   .     S
Cu230  N268    2.033   .     S
C231   C269    1.519   .     S
C231   C241    1.416   .     A
C231   C233    1.414   .     A
C232   C273    1.519   .     S
C232   C234    1.414   .     A
C232   C242    1.416   .     A
C233   C235    1.393   .     A
C234   C236    1.393   .     A
C235   H247    1.086   .     S
C235   C237    1.388   .     A
C236   C238    1.388   .     A
C236   H248    1.086   .     S
C237   C239    1.409   .     A
C237   C243    1.397   .     A
C238   C244    1.397   .     A
C238   C240    1.409   .     A
C239   C241    1.420   .     A
C239   C888    1.410   .     S
C240   C242    1.420   .     A
C240   C887    1.410   1_554 S
C241   C246    1.410   .     A
C242   C245    1.410   .     A
C243   H249    1.084   .     S
C243   C893    1.390   .     S
C244   H250    1.084   .     S
C244   C894    1.390   1_554 S
C245   H251    1.081   .     S
C245   C891    1.390   1_554 S
C246   H252    1.081   .     S
C246   C892    1.390   .     S
C253   H257    1.083   .     S
C253   C262    1.403   .     A
C253   C399    1.383   1_455 S
C254   H258    1.083   .     S
C254   C261    1.402   .     A
C254   C328    1.383   .     S
C255   H259    1.083   .     S
C255   C261    1.400   .     A
C255   C325    1.383   .     S
C256   H260    1.083   .     S
C256   C262    1.400   .     A
C256   C398    1.383   1_455 S
C263   N277    1.431   .     S
C263   N268    1.361   .     A
C264   N267    1.361   .     A
C264   N280    1.431   .     S
C264   C481    1.423   .     S
C265   N283    1.432   .     S
C265   N268    1.389   .     A
C266   N267    1.389   .     A
C266   N286    1.431   .     S
C266   C479    1.423   .     S
C269   H270    1.110   .     S
C269   H271    1.107   .     S
C269   H272    1.110   .     S
C273   H274    1.110   .     S
C273   H275    1.107   .     S
C273   H276    1.110   .     S
N277   H278    1.046   .     S
N277   H279    1.046   .     S
N280   H281    1.045   .     S
N280   H282    1.045   .     S
N283   H284    1.043   .     S
N283   H285    1.038   .     S
N286   H287    1.037   .     S
N286   H288    1.042   .     S
O289   C293    1.301   .     A
O289   Cu301   1.965   .     S
O290   Cu302   1.965   .     S
O290   C294    1.301   .     A
O291   Cu301   1.961   .     S
O291   C294    1.297   .     A
O292   Cu302   1.961   .     S
O292   C293    1.297   .     A
C293   C334    1.450   .     S
C294   C333    1.450   .     S
O295   C299    1.298   .     A
O295   Cu301   1.961   .     S
O296   C300    1.298   .     A
O296   Cu302   1.961   .     S
O297   C300    1.298   .     A
O297   Cu301   1.956   .     S
O298   C299    1.298   .     A
O298   Cu302   1.956   .     S
C299   C306    1.448   .     S
C300   C305    1.448   .     S
Cu301  N339    2.033   .     S
Cu301  Cu302   2.706   .     S
Cu302  N340    2.033   .     S
C303   C341    1.519   .     S
C303   C313    1.416   .     A
C303   C305    1.414   .     A
C304   C345    1.519   .     S
C304   C306    1.414   .     A
C304   C314    1.416   .     A
C305   C307    1.393   .     A
C306   C308    1.393   .     A
C307   H319    1.086   .     S
C307   C309    1.388   .     A
C308   C310    1.388   .     A
C308   H320    1.086   .     S
C309   C311    1.409   .     A
C309   C315    1.397   .     A
C310   C316    1.397   .     A
C310   C312    1.409   .     A
C311   C313    1.420   .     A
C311   C960    1.410   .     S
C312   C314    1.420   .     A
C312   C959    1.410   1_554 S
C313   C318    1.410   .     A
C314   C317    1.410   .     A
C315   H321    1.084   .     S
C315   C965    1.390   .     S
C316   H322    1.084   .     S
C316   C966    1.390   1_554 S
C317   H323    1.081   .     S
C317   C963    1.390   1_554 S
C318   H324    1.081   .     S
C318   C964    1.390   .     S
C325   H329    1.083   .     S
C325   C334    1.403   .     A
C326   H330    1.083   .     S
C326   C333    1.402   .     A
C326   C400    1.383   .     S
C327   H331    1.083   .     S
C327   C333    1.400   .     A
C327   C397    1.383   .     S
C328   H332    1.083   .     S
C328   C334    1.400   .     A
C335   N349    1.431   .     S
C335   N340    1.361   .     A
C336   N339    1.361   .     A
C336   N352    1.431   .     S
C336   C553    1.423   .     S
C337   N355    1.432   .     S
C337   N340    1.389   .     A
C338   N339    1.389   .     A
C338   N358    1.431   .     S
C338   C551    1.423   .     S
C341   H342    1.110   .     S
C341   H343    1.107   .     S
C341   H344    1.110   .     S
C345   H346    1.110   .     S
C345   H347    1.107   .     S
C345   H348    1.110   .     S
N349   H350    1.046   .     S
N349   H351    1.046   .     S
N352   H353    1.045   .     S
N352   H354    1.045   .     S
N355   H356    1.043   .     S
N355   H357    1.038   .     S
N358   H359    1.037   .     S
N358   H360    1.042   .     S
O361   C365    1.301   .     A
O361   Cu373   1.965   .     S
O362   Cu374   1.965   .     S
O362   C366    1.301   .     A
O363   Cu373   1.961   .     S
O363   C366    1.297   .     A
O364   Cu374   1.961   .     S
O364   C365    1.297   .     A
C365   C406    1.450   .     S
C366   C405    1.450   .     S
O367   C371    1.298   .     A
O367   Cu373   1.961   .     S
O368   C372    1.298   .     A
O368   Cu374   1.961   .     S
O369   C372    1.298   .     A
O369   Cu373   1.956   .     S
O370   C371    1.298   .     A
O370   Cu374   1.956   .     S
C371   C378    1.448   .     S
C372   C377    1.448   .     S
Cu373  N411    2.033   .     S
Cu373  Cu374   2.706   .     S
Cu374  N412    2.033   .     S
C375   C413    1.519   .     S
C375   C385    1.416   .     A
C375   C377    1.414   .     A
C376   C417    1.519   .     S
C376   C378    1.414   .     A
C376   C386    1.416   .     A
C377   C379    1.393   .     A
C378   C380    1.393   .     A
C379   H391    1.086   .     S
C379   C381    1.388   .     A
C380   C382    1.388   .     A
C380   H392    1.086   .     S
C381   C383    1.409   .     A
C381   C387    1.397   .     A
C382   C388    1.397   .     A
C382   C384    1.409   .     A
C383   C385    1.420   .     A
C383   C1032   1.410   .     S
C384   C386    1.420   .     A
C384   C1031   1.410   1_554 S
C385   C390    1.410   .     A
C386   C389    1.410   .     A
C387   H393    1.084   .     S
C387   C1037   1.390   .     S
C388   H394    1.084   .     S
C388   C1038   1.390   1_554 S
C389   H395    1.081   .     S
C389   C1035   1.390   1_554 S
C390   H396    1.081   .     S
C390   C1036   1.390   .     S
C397   H401    1.083   .     S
C397   C406    1.403   .     A
C398   H402    1.083   .     S
C398   C405    1.402   .     A
C398   C256    1.383   1_655 S
C399   H403    1.083   .     S
C399   C405    1.400   .     A
C399   C253    1.383   1_655 S
C400   H404    1.083   .     S
C400   C406    1.400   .     A
C407   N421    1.431   .     S
C407   N412    1.361   .     A
C408   N411    1.361   .     A
C408   N424    1.431   .     S
C408   C625    1.423   .     S
C409   N427    1.432   .     S
C409   N412    1.389   .     A
C410   N411    1.389   .     A
C410   N430    1.431   .     S
C410   C623    1.423   .     S
C413   H414    1.110   .     S
C413   H415    1.107   .     S
C413   H416    1.110   .     S
C417   H418    1.110   .     S
C417   H419    1.107   .     S
C417   H420    1.110   .     S
N421   H422    1.046   .     S
N421   H423    1.046   .     S
N424   H425    1.045   .     S
N424   H426    1.045   .     S
N427   H428    1.043   .     S
N427   H429    1.038   .     S
N430   H431    1.037   .     S
N430   H432    1.042   .     S
O433   C437    1.301   .     A
O433   Cu445   1.965   .     S
O434   Cu446   1.965   .     S
O434   C438    1.301   .     A
O435   Cu445   1.961   .     S
O435   C438    1.297   .     A
O436   Cu446   1.961   .     S
O436   C437    1.297   .     A
C437   C478    1.450   .     S
C438   C477    1.450   .     S
O439   C443    1.298   .     A
O439   Cu445   1.961   .     S
O440   C444    1.298   .     A
O440   Cu446   1.961   .     S
O441   C444    1.298   .     A
O441   Cu445   1.956   .     S
O442   C443    1.298   .     A
O442   Cu446   1.956   .     S
C443   C450    1.448   .     S
C444   C449    1.448   .     S
Cu445  N483    2.033   .     S
Cu445  Cu446   2.706   .     S
Cu446  N484    2.033   .     S
C447   C485    1.519   .     S
C447   C457    1.416   .     A
C447   C449    1.414   .     A
C448   C489    1.519   .     S
C448   C450    1.414   .     A
C448   C458    1.416   .     A
C449   C451    1.393   .     A
C450   C452    1.393   .     A
C451   H463    1.086   .     S
C451   C453    1.388   .     A
C452   C454    1.388   .     A
C452   H464    1.086   .     S
C453   C455    1.409   .     A
C453   C459    1.397   .     A
C454   C460    1.397   .     A
C454   C456    1.409   .     A
C455   C457    1.420   .     A
C455   C1104   1.410   .     S
C456   C458    1.420   .     A
C456   C1103   1.410   1_554 S
C457   C462    1.410   .     A
C458   C461    1.410   .     A
C459   H465    1.084   .     S
C459   C1109   1.390   .     S
C460   H466    1.084   .     S
C460   C1110   1.390   1_554 S
C461   H467    1.081   .     S
C461   C1107   1.390   1_554 S
C462   H468    1.081   .     S
C462   C1108   1.390   .     S
C469   H473    1.083   .     S
C469   C478    1.403   .     A
C469   C615    1.383   1_455 S
C470   H474    1.083   .     S
C470   C477    1.402   .     A
C470   C544    1.383   .     S
C471   H475    1.083   .     S
C471   C477    1.400   .     A
C471   C541    1.383   .     S
C472   H476    1.083   .     S
C472   C478    1.400   .     A
C472   C614    1.383   1_455 S
C479   N493    1.431   .     S
C479   N484    1.361   .     A
C480   N483    1.361   .     A
C480   N496    1.431   .     S
C480   C49     1.423   1_565 S
C481   N499    1.432   .     S
C481   N484    1.389   .     A
C482   N483    1.389   .     A
C482   N502    1.431   .     S
C482   C47     1.423   1_565 S
C485   H486    1.110   .     S
C485   H487    1.107   .     S
C485   H488    1.110   .     S
C489   H490    1.110   .     S
C489   H491    1.107   .     S
C489   H492    1.110   .     S
N493   H494    1.046   .     S
N493   H495    1.046   .     S
N496   H497    1.045   .     S
N496   H498    1.045   .     S
N499   H500    1.043   .     S
N499   H501    1.038   .     S
N502   H503    1.037   .     S
N502   H504    1.042   .     S
O505   C509    1.301   .     A
O505   Cu517   1.965   .     S
O506   Cu518   1.965   .     S
O506   C510    1.301   .     A
O507   Cu517   1.961   .     S
O507   C510    1.297   .     A
O508   Cu518   1.961   .     S
O508   C509    1.297   .     A
C509   C550    1.450   .     S
C510   C549    1.450   .     S
O511   C515    1.298   .     A
O511   Cu517   1.961   .     S
O512   C516    1.298   .     A
O512   Cu518   1.961   .     S
O513   C516    1.298   .     A
O513   Cu517   1.956   .     S
O514   C515    1.298   .     A
O514   Cu518   1.956   .     S
C515   C522    1.448   .     S
C516   C521    1.448   .     S
Cu517  N555    2.033   .     S
Cu517  Cu518   2.706   .     S
Cu518  N556    2.033   .     S
C519   C557    1.519   .     S
C519   C529    1.416   .     A
C519   C521    1.414   .     A
C520   C561    1.519   .     S
C520   C522    1.414   .     A
C520   C530    1.416   .     A
C521   C523    1.393   .     A
C522   C524    1.393   .     A
C523   H535    1.086   .     S
C523   C525    1.388   .     A
C524   C526    1.388   .     A
C524   H536    1.086   .     S
C525   C527    1.409   .     A
C525   C531    1.397   .     A
C526   C532    1.397   .     A
C526   C528    1.409   .     A
C527   C529    1.420   .     A
C527   C1176   1.410   .     S
C528   C530    1.420   .     A
C528   C1175   1.410   1_554 S
C529   C534    1.410   .     A
C530   C533    1.410   .     A
C531   H537    1.084   .     S
C531   C1181   1.390   .     S
C532   H538    1.084   .     S
C532   C1182   1.390   1_554 S
C533   H539    1.081   .     S
C533   C1179   1.390   1_554 S
C534   H540    1.081   .     S
C534   C1180   1.390   .     S
C541   H545    1.083   .     S
C541   C550    1.403   .     A
C542   H546    1.083   .     S
C542   C549    1.402   .     A
C542   C616    1.383   .     S
C543   H547    1.083   .     S
C543   C549    1.400   .     A
C543   C613    1.383   .     S
C544   H548    1.083   .     S
C544   C550    1.400   .     A
C551   N565    1.431   .     S
C551   N556    1.361   .     A
C552   N555    1.361   .     A
C552   N568    1.431   .     S
C552   C121    1.423   1_565 S
C553   N571    1.432   .     S
C553   N556    1.389   .     A
C554   N555    1.389   .     A
C554   N574    1.431   .     S
C554   C119    1.423   1_565 S
C557   H558    1.110   .     S
C557   H559    1.107   .     S
C557   H560    1.110   .     S
C561   H562    1.110   .     S
C561   H563    1.107   .     S
C561   H564    1.110   .     S
N565   H566    1.046   .     S
N565   H567    1.046   .     S
N568   H569    1.045   .     S
N568   H570    1.045   .     S
N571   H572    1.043   .     S
N571   H573    1.038   .     S
N574   H575    1.037   .     S
N574   H576    1.042   .     S
O577   C581    1.301   .     A
O577   Cu589   1.965   .     S
O578   Cu590   1.965   .     S
O578   C582    1.301   .     A
O579   Cu589   1.961   .     S
O579   C582    1.297   .     A
O580   Cu590   1.961   .     S
O580   C581    1.297   .     A
C581   C622    1.450   .     S
C582   C621    1.450   .     S
O583   C587    1.298   .     A
O583   Cu589   1.961   .     S
O584   C588    1.298   .     A
O584   Cu590   1.961   .     S
O585   C588    1.298   .     A
O585   Cu589   1.956   .     S
O586   C587    1.298   .     A
O586   Cu590   1.956   .     S
C587   C594    1.448   .     S
C588   C593    1.448   .     S
Cu589  N627    2.033   .     S
Cu589  Cu590   2.706   .     S
Cu590  N628    2.033   .     S
C591   C629    1.519   .     S
C591   C601    1.416   .     A
C591   C593    1.414   .     A
C592   C633    1.519   .     S
C592   C594    1.414   .     A
C592   C602    1.416   .     A
C593   C595    1.393   .     A
C594   C596    1.393   .     A
C595   H607    1.086   .     S
C595   C597    1.388   .     A
C596   C598    1.388   .     A
C596   H608    1.086   .     S
C597   C599    1.409   .     A
C597   C603    1.397   .     A
C598   C604    1.397   .     A
C598   C600    1.409   .     A
C599   C601    1.420   .     A
C599   C1248   1.410   .     S
C600   C602    1.420   .     A
C600   C1247   1.410   1_554 S
C601   C606    1.410   .     A
C602   C605    1.410   .     A
C603   H609    1.084   .     S
C603   C1253   1.390   .     S
C604   H610    1.084   .     S
C604   C1254   1.390   1_554 S
C605   H611    1.081   .     S
C605   C1251   1.390   1_554 S
C606   H612    1.081   .     S
C606   C1252   1.390   .     S
C613   H617    1.083   .     S
C613   C622    1.403   .     A
C614   H618    1.083   .     S
C614   C621    1.402   .     A
C614   C472    1.383   1_655 S
C615   H619    1.083   .     S
C615   C621    1.400   .     A
C615   C469    1.383   1_655 S
C616   H620    1.083   .     S
C616   C622    1.400   .     A
C623   N637    1.431   .     S
C623   N628    1.361   .     A
C624   N627    1.361   .     A
C624   N640    1.431   .     S
C624   C193    1.423   1_565 S
C625   N643    1.432   .     S
C625   N628    1.389   .     A
C626   N627    1.389   .     A
C626   N646    1.431   .     S
C626   C191    1.423   1_565 S
C629   H630    1.110   .     S
C629   H631    1.107   .     S
C629   H632    1.110   .     S
C633   H634    1.110   .     S
C633   H635    1.107   .     S
C633   H636    1.110   .     S
N637   H638    1.046   .     S
N637   H639    1.046   .     S
N640   H641    1.045   .     S
N640   H642    1.045   .     S
N643   H644    1.043   .     S
N643   H645    1.038   .     S
N646   H647    1.037   .     S
N646   H648    1.042   .     S
O649   C653    1.301   .     A
O649   Cu661   1.965   .     S
O650   Cu662   1.965   .     S
O650   C654    1.301   .     A
O651   Cu661   1.961   .     S
O651   C654    1.297   .     A
O652   Cu662   1.961   .     S
O652   C653    1.297   .     A
C653   C694    1.450   .     S
C654   C693    1.450   .     S
O655   C659    1.298   .     A
O655   Cu661   1.961   .     S
O656   C660    1.298   .     A
O656   Cu662   1.961   .     S
O657   C660    1.298   .     A
O657   Cu661   1.956   .     S
O658   C659    1.298   .     A
O658   Cu662   1.956   .     S
C659   C666    1.448   .     S
C660   C665    1.448   .     S
Cu661  N699    2.033   .     S
Cu661  Cu662   2.706   .     S
Cu662  N700    2.033   .     S
C663   C701    1.519   .     S
C663   C673    1.416   .     A
C663   C665    1.414   .     A
C664   C705    1.519   .     S
C664   C666    1.414   .     A
C664   C674    1.416   .     A
C665   C667    1.393   .     A
C666   C668    1.393   .     A
C667   H679    1.086   .     S
C667   C669    1.388   .     A
C668   C670    1.388   .     A
C668   H680    1.086   .     S
C669   C671    1.409   .     A
C669   C675    1.397   .     A
C670   C676    1.397   .     A
C670   C672    1.409   .     A
C671   C673    1.420   .     A
C671   C24     1.410   1_556 S
C672   C674    1.420   .     A
C673   C678    1.410   .     A
C674   C677    1.410   .     A
C675   H681    1.084   .     S
C675   C29     1.390   1_556 S
C676   H682    1.084   .     S
C677   H683    1.081   .     S
C678   H684    1.081   .     S
C678   C28     1.390   1_556 S
C685   H689    1.083   .     S
C685   C694    1.403   .     A
C685   C831    1.383   1_455 S
C686   H690    1.083   .     S
C686   C693    1.402   .     A
C686   C760    1.383   .     S
C687   H691    1.083   .     S
C687   C693    1.400   .     A
C687   C757    1.383   .     S
C688   H692    1.083   .     S
C688   C694    1.400   .     A
C688   C830    1.383   1_455 S
C695   N709    1.431   .     S
C695   N700    1.361   .     A
C695   C1130   1.423   1_545 S
C696   N699    1.361   .     A
C696   N712    1.431   .     S
C696   C913    1.423   .     S
C697   N715    1.432   .     S
C697   N700    1.389   .     A
C697   C1128   1.423   1_545 S
C698   N699    1.389   .     A
C698   N718    1.431   .     S
C698   C911    1.423   .     S
C701   H702    1.110   .     S
C701   H703    1.107   .     S
C701   H704    1.110   .     S
C705   H706    1.110   .     S
C705   H707    1.107   .     S
C705   H708    1.110   .     S
N709   H710    1.046   .     S
N709   H711    1.046   .     S
N712   H713    1.045   .     S
N712   H714    1.045   .     S
N715   H716    1.043   .     S
N715   H717    1.038   .     S
N718   H719    1.037   .     S
N718   H720    1.042   .     S
O721   C725    1.301   .     A
O721   Cu733   1.965   .     S
O722   Cu734   1.965   .     S
O722   C726    1.301   .     A
O723   Cu733   1.961   .     S
O723   C726    1.297   .     A
O724   Cu734   1.961   .     S
O724   C725    1.297   .     A
C725   C766    1.450   .     S
C726   C765    1.450   .     S
O727   C731    1.298   .     A
O727   Cu733   1.961   .     S
O728   C732    1.298   .     A
O728   Cu734   1.961   .     S
O729   C732    1.298   .     A
O729   Cu733   1.956   .     S
O730   C731    1.298   .     A
O730   Cu734   1.956   .     S
C731   C738    1.448   .     S
C732   C737    1.448   .     S
Cu733  N771    2.033   .     S
Cu733  Cu734   2.706   .     S
Cu734  N772    2.033   .     S
C735   C773    1.519   .     S
C735   C745    1.416   .     A
C735   C737    1.414   .     A
C736   C777    1.519   .     S
C736   C738    1.414   .     A
C736   C746    1.416   .     A
C737   C739    1.393   .     A
C738   C740    1.393   .     A
C739   H751    1.086   .     S
C739   C741    1.388   .     A
C740   C742    1.388   .     A
C740   H752    1.086   .     S
C741   C743    1.409   .     A
C741   C747    1.397   .     A
C742   C748    1.397   .     A
C742   C744    1.409   .     A
C743   C745    1.420   .     A
C743   C96     1.410   1_556 S
C744   C746    1.420   .     A
C745   C750    1.410   .     A
C746   C749    1.410   .     A
C747   H753    1.084   .     S
C747   C101    1.390   1_556 S
C748   H754    1.084   .     S
C749   H755    1.081   .     S
C750   H756    1.081   .     S
C750   C100    1.390   1_556 S
C757   H761    1.083   .     S
C757   C766    1.403   .     A
C758   H762    1.083   .     S
C758   C765    1.402   .     A
C758   C832    1.383   .     S
C759   H763    1.083   .     S
C759   C765    1.400   .     A
C759   C829    1.383   .     S
C760   H764    1.083   .     S
C760   C766    1.400   .     A
C767   N781    1.431   .     S
C767   N772    1.361   .     A
C767   C1202   1.423   1_545 S
C768   N771    1.361   .     A
C768   N784    1.431   .     S
C768   C985    1.423   .     S
C769   N787    1.432   .     S
C769   N772    1.389   .     A
C769   C1200   1.423   1_545 S
C770   N771    1.389   .     A
C770   N790    1.431   .     S
C770   C983    1.423   .     S
C773   H774    1.110   .     S
C773   H775    1.107   .     S
C773   H776    1.110   .     S
C777   H778    1.110   .     S
C777   H779    1.107   .     S
C777   H780    1.110   .     S
N781   H782    1.046   .     S
N781   H783    1.046   .     S
N784   H785    1.045   .     S
N784   H786    1.045   .     S
N787   H788    1.043   .     S
N787   H789    1.038   .     S
N790   H791    1.037   .     S
N790   H792    1.042   .     S
O793   C797    1.301   .     A
O793   Cu805   1.965   .     S
O794   Cu806   1.965   .     S
O794   C798    1.301   .     A
O795   Cu805   1.961   .     S
O795   C798    1.297   .     A
O796   Cu806   1.961   .     S
O796   C797    1.297   .     A
C797   C838    1.450   .     S
C798   C837    1.450   .     S
O799   C803    1.298   .     A
O799   Cu805   1.961   .     S
O800   C804    1.298   .     A
O800   Cu806   1.961   .     S
O801   C804    1.298   .     A
O801   Cu805   1.956   .     S
O802   C803    1.298   .     A
O802   Cu806   1.956   .     S
C803   C810    1.448   .     S
C804   C809    1.448   .     S
Cu805  N843    2.033   .     S
Cu805  Cu806   2.706   .     S
Cu806  N844    2.033   .     S
C807   C845    1.519   .     S
C807   C817    1.416   .     A
C807   C809    1.414   .     A
C808   C849    1.519   .     S
C808   C810    1.414   .     A
C808   C818    1.416   .     A
C809   C811    1.393   .     A
C810   C812    1.393   .     A
C811   H823    1.086   .     S
C811   C813    1.388   .     A
C812   C814    1.388   .     A
C812   H824    1.086   .     S
C813   C815    1.409   .     A
C813   C819    1.397   .     A
C814   C820    1.397   .     A
C814   C816    1.409   .     A
C815   C817    1.420   .     A
C815   C168    1.410   1_556 S
C816   C818    1.420   .     A
C817   C822    1.410   .     A
C818   C821    1.410   .     A
C819   H825    1.084   .     S
C819   C173    1.390   1_556 S
C820   H826    1.084   .     S
C821   H827    1.081   .     S
C822   H828    1.081   .     S
C822   C172    1.390   1_556 S
C829   H833    1.083   .     S
C829   C838    1.403   .     A
C830   H834    1.083   .     S
C830   C837    1.402   .     A
C830   C688    1.383   1_655 S
C831   H835    1.083   .     S
C831   C837    1.400   .     A
C831   C685    1.383   1_655 S
C832   H836    1.083   .     S
C832   C838    1.400   .     A
C839   N853    1.431   .     S
C839   N844    1.361   .     A
C839   C1274   1.423   1_545 S
C840   N843    1.361   .     A
C840   N856    1.431   .     S
C840   C1057   1.423   .     S
C841   N859    1.432   .     S
C841   N844    1.389   .     A
C841   C1272   1.423   1_545 S
C842   N843    1.389   .     A
C842   N862    1.431   .     S
C842   C1055   1.423   .     S
C845   H846    1.110   .     S
C845   H847    1.107   .     S
C845   H848    1.110   .     S
C849   H850    1.110   .     S
C849   H851    1.107   .     S
C849   H852    1.110   .     S
N853   H854    1.046   .     S
N853   H855    1.046   .     S
N856   H857    1.045   .     S
N856   H858    1.045   .     S
N859   H860    1.043   .     S
N859   H861    1.038   .     S
N862   H863    1.037   .     S
N862   H864    1.042   .     S
O865   C869    1.301   .     A
O865   Cu877   1.965   .     S
O866   Cu878   1.965   .     S
O866   C870    1.301   .     A
O867   Cu877   1.961   .     S
O867   C870    1.297   .     A
O868   Cu878   1.961   .     S
O868   C869    1.297   .     A
C869   C910    1.450   .     S
C870   C909    1.450   .     S
O871   C875    1.298   .     A
O871   Cu877   1.961   .     S
O872   C876    1.298   .     A
O872   Cu878   1.961   .     S
O873   C876    1.298   .     A
O873   Cu877   1.956   .     S
O874   C875    1.298   .     A
O874   Cu878   1.956   .     S
C875   C882    1.448   .     S
C876   C881    1.448   .     S
Cu877  N915    2.033   .     S
Cu877  Cu878   2.706   .     S
Cu878  N916    2.033   .     S
C879   C917    1.519   .     S
C879   C889    1.416   .     A
C879   C881    1.414   .     A
C880   C921    1.519   .     S
C880   C882    1.414   .     A
C880   C890    1.416   .     A
C881   C883    1.393   .     A
C882   C884    1.393   .     A
C883   H895    1.086   .     S
C883   C885    1.388   .     A
C884   C886    1.388   .     A
C884   H896    1.086   .     S
C885   C887    1.409   .     A
C885   C891    1.397   .     A
C886   C892    1.397   .     A
C886   C888    1.409   .     A
C887   C889    1.420   .     A
C887   C240    1.410   1_556 S
C888   C890    1.420   .     A
C889   C894    1.410   .     A
C890   C893    1.410   .     A
C891   H897    1.084   .     S
C891   C245    1.390   1_556 S
C892   H898    1.084   .     S
C893   H899    1.081   .     S
C894   H900    1.081   .     S
C894   C244    1.390   1_556 S
C901   H905    1.083   .     S
C901   C910    1.403   .     A
C901   C1047   1.383   1_455 S
C902   H906    1.083   .     S
C902   C909    1.402   .     A
C902   C976    1.383   .     S
C903   H907    1.083   .     S
C903   C909    1.400   .     A
C903   C973    1.383   .     S
C904   H908    1.083   .     S
C904   C910    1.400   .     A
C904   C1046   1.383   1_455 S
C911   N925    1.431   .     S
C911   N916    1.361   .     A
C912   N915    1.361   .     A
C912   N928    1.431   .     S
C912   C1129   1.423   .     S
C913   N931    1.432   .     S
C913   N916    1.389   .     A
C914   N915    1.389   .     A
C914   N934    1.431   .     S
C914   C1127   1.423   .     S
C917   H918    1.110   .     S
C917   H919    1.107   .     S
C917   H920    1.110   .     S
C921   H922    1.110   .     S
C921   H923    1.107   .     S
C921   H924    1.110   .     S
N925   H926    1.046   .     S
N925   H927    1.046   .     S
N928   H929    1.045   .     S
N928   H930    1.045   .     S
N931   H932    1.043   .     S
N931   H933    1.038   .     S
N934   H935    1.037   .     S
N934   H936    1.042   .     S
O937   C941    1.301   .     A
O937   Cu949   1.965   .     S
O938   Cu950   1.965   .     S
O938   C942    1.301   .     A
O939   Cu949   1.961   .     S
O939   C942    1.297   .     A
O940   Cu950   1.961   .     S
O940   C941    1.297   .     A
C941   C982    1.450   .     S
C942   C981    1.450   .     S
O943   C947    1.298   .     A
O943   Cu949   1.961   .     S
O944   C948    1.298   .     A
O944   Cu950   1.961   .     S
O945   C948    1.298   .     A
O945   Cu949   1.956   .     S
O946   C947    1.298   .     A
O946   Cu950   1.956   .     S
C947   C954    1.448   .     S
C948   C953    1.448   .     S
Cu949  N987    2.033   .     S
Cu949  Cu950   2.706   .     S
Cu950  N988    2.033   .     S
C951   C989    1.519   .     S
C951   C961    1.416   .     A
C951   C953    1.414   .     A
C952   C993    1.519   .     S
C952   C954    1.414   .     A
C952   C962    1.416   .     A
C953   C955    1.393   .     A
C954   C956    1.393   .     A
C955   H967    1.086   .     S
C955   C957    1.388   .     A
C956   C958    1.388   .     A
C956   H968    1.086   .     S
C957   C959    1.409   .     A
C957   C963    1.397   .     A
C958   C964    1.397   .     A
C958   C960    1.409   .     A
C959   C961    1.420   .     A
C959   C312    1.410   1_556 S
C960   C962    1.420   .     A
C961   C966    1.410   .     A
C962   C965    1.410   .     A
C963   H969    1.084   .     S
C963   C317    1.390   1_556 S
C964   H970    1.084   .     S
C965   H971    1.081   .     S
C966   H972    1.081   .     S
C966   C316    1.390   1_556 S
C973   H977    1.083   .     S
C973   C982    1.403   .     A
C974   H978    1.083   .     S
C974   C981    1.402   .     A
C974   C1048   1.383   .     S
C975   H979    1.083   .     S
C975   C981    1.400   .     A
C975   C1045   1.383   .     S
C976   H980    1.083   .     S
C976   C982    1.400   .     A
C983   N997    1.431   .     S
C983   N988    1.361   .     A
C984   N987    1.361   .     A
C984   N1000   1.431   .     S
C984   C1201   1.423   .     S
C985   N1003   1.432   .     S
C985   N988    1.389   .     A
C986   N987    1.389   .     A
C986   N1006   1.431   .     S
C986   C1199   1.423   .     S
C989   H990    1.110   .     S
C989   H991    1.107   .     S
C989   H992    1.110   .     S
C993   H994    1.110   .     S
C993   H995    1.107   .     S
C993   H996    1.110   .     S
N997   H998    1.046   .     S
N997   H999    1.046   .     S
N1000  H1001   1.045   .     S
N1000  H1002   1.045   .     S
N1003  H1004   1.043   .     S
N1003  H1005   1.038   .     S
N1006  H1007   1.037   .     S
N1006  H1008   1.042   .     S
O1009  C1013   1.301   .     A
O1009  Cu1021  1.965   .     S
O1010  Cu1022  1.965   .     S
O1010  C1014   1.301   .     A
O1011  Cu1021  1.961   .     S
O1011  C1014   1.297   .     A
O1012  Cu1022  1.961   .     S
O1012  C1013   1.297   .     A
C1013  C1054   1.450   .     S
C1014  C1053   1.450   .     S
O1015  C1019   1.298   .     A
O1015  Cu1021  1.961   .     S
O1016  C1020   1.298   .     A
O1016  Cu1022  1.961   .     S
O1017  C1020   1.298   .     A
O1017  Cu1021  1.956   .     S
O1018  C1019   1.298   .     A
O1018  Cu1022  1.956   .     S
C1019  C1026   1.448   .     S
C1020  C1025   1.448   .     S
Cu1021 N1059   2.033   .     S
Cu1021 Cu1022  2.706   .     S
Cu1022 N1060   2.033   .     S
C1023  C1061   1.519   .     S
C1023  C1033   1.416   .     A
C1023  C1025   1.414   .     A
C1024  C1065   1.519   .     S
C1024  C1026   1.414   .     A
C1024  C1034   1.416   .     A
C1025  C1027   1.393   .     A
C1026  C1028   1.393   .     A
C1027  H1039   1.086   .     S
C1027  C1029   1.388   .     A
C1028  C1030   1.388   .     A
C1028  H1040   1.086   .     S
C1029  C1031   1.409   .     A
C1029  C1035   1.397   .     A
C1030  C1036   1.397   .     A
C1030  C1032   1.409   .     A
C1031  C1033   1.420   .     A
C1031  C384    1.410   1_556 S
C1032  C1034   1.420   .     A
C1033  C1038   1.410   .     A
C1034  C1037   1.410   .     A
C1035  H1041   1.084   .     S
C1035  C389    1.390   1_556 S
C1036  H1042   1.084   .     S
C1037  H1043   1.081   .     S
C1038  H1044   1.081   .     S
C1038  C388    1.390   1_556 S
C1045  H1049   1.083   .     S
C1045  C1054   1.403   .     A
C1046  H1050   1.083   .     S
C1046  C1053   1.402   .     A
C1046  C904    1.383   1_655 S
C1047  H1051   1.083   .     S
C1047  C1053   1.400   .     A
C1047  C901    1.383   1_655 S
C1048  H1052   1.083   .     S
C1048  C1054   1.400   .     A
C1055  N1069   1.431   .     S
C1055  N1060   1.361   .     A
C1056  N1059   1.361   .     A
C1056  N1072   1.431   .     S
C1056  C1273   1.423   .     S
C1057  N1075   1.432   .     S
C1057  N1060   1.389   .     A
C1058  N1059   1.389   .     A
C1058  N1078   1.431   .     S
C1058  C1271   1.423   .     S
C1061  H1062   1.110   .     S
C1061  H1063   1.107   .     S
C1061  H1064   1.110   .     S
C1065  H1066   1.110   .     S
C1065  H1067   1.107   .     S
C1065  H1068   1.110   .     S
N1069  H1070   1.046   .     S
N1069  H1071   1.046   .     S
N1072  H1073   1.045   .     S
N1072  H1074   1.045   .     S
N1075  H1076   1.043   .     S
N1075  H1077   1.038   .     S
N1078  H1079   1.037   .     S
N1078  H1080   1.042   .     S
O1081  C1085   1.301   .     A
O1081  Cu1093  1.965   .     S
O1082  Cu1094  1.965   .     S
O1082  C1086   1.301   .     A
O1083  Cu1093  1.961   .     S
O1083  C1086   1.297   .     A
O1084  Cu1094  1.961   .     S
O1084  C1085   1.297   .     A
C1085  C1126   1.450   .     S
C1086  C1125   1.450   .     S
O1087  C1091   1.298   .     A
O1087  Cu1093  1.961   .     S
O1088  C1092   1.298   .     A
O1088  Cu1094  1.961   .     S
O1089  C1092   1.298   .     A
O1089  Cu1093  1.956   .     S
O1090  C1091   1.298   .     A
O1090  Cu1094  1.956   .     S
C1091  C1098   1.448   .     S
C1092  C1097   1.448   .     S
Cu1093 N1131   2.033   .     S
Cu1093 Cu1094  2.706   .     S
Cu1094 N1132   2.033   .     S
C1095  C1133   1.519   .     S
C1095  C1105   1.416   .     A
C1095  C1097   1.414   .     A
C1096  C1137   1.519   .     S
C1096  C1098   1.414   .     A
C1096  C1106   1.416   .     A
C1097  C1099   1.393   .     A
C1098  C1100   1.393   .     A
C1099  H1111   1.086   .     S
C1099  C1101   1.388   .     A
C1100  C1102   1.388   .     A
C1100  H1112   1.086   .     S
C1101  C1103   1.409   .     A
C1101  C1107   1.397   .     A
C1102  C1108   1.397   .     A
C1102  C1104   1.409   .     A
C1103  C1105   1.420   .     A
C1103  C456    1.410   1_556 S
C1104  C1106   1.420   .     A
C1105  C1110   1.410   .     A
C1106  C1109   1.410   .     A
C1107  H1113   1.084   .     S
C1107  C461    1.390   1_556 S
C1108  H1114   1.084   .     S
C1109  H1115   1.081   .     S
C1110  H1116   1.081   .     S
C1110  C460    1.390   1_556 S
C1117  H1121   1.083   .     S
C1117  C1126   1.403   .     A
C1117  C1263   1.383   1_455 S
C1118  H1122   1.083   .     S
C1118  C1125   1.402   .     A
C1118  C1192   1.383   .     S
C1119  H1123   1.083   .     S
C1119  C1125   1.400   .     A
C1119  C1189   1.383   .     S
C1120  H1124   1.083   .     S
C1120  C1126   1.400   .     A
C1120  C1262   1.383   1_455 S
C1127  N1141   1.431   .     S
C1127  N1132   1.361   .     A
C1128  N1131   1.361   .     A
C1128  N1144   1.431   .     S
C1128  C697    1.423   1_565 S
C1129  N1147   1.432   .     S
C1129  N1132   1.389   .     A
C1130  N1131   1.389   .     A
C1130  N1150   1.431   .     S
C1130  C695    1.423   1_565 S
C1133  H1134   1.110   .     S
C1133  H1135   1.107   .     S
C1133  H1136   1.110   .     S
C1137  H1138   1.110   .     S
C1137  H1139   1.107   .     S
C1137  H1140   1.110   .     S
N1141  H1142   1.046   .     S
N1141  H1143   1.046   .     S
N1144  H1145   1.045   .     S
N1144  H1146   1.045   .     S
N1147  H1148   1.043   .     S
N1147  H1149   1.038   .     S
N1150  H1151   1.037   .     S
N1150  H1152   1.042   .     S
O1153  C1157   1.301   .     A
O1153  Cu1165  1.965   .     S
O1154  Cu1166  1.965   .     S
O1154  C1158   1.301   .     A
O1155  Cu1165  1.961   .     S
O1155  C1158   1.297   .     A
O1156  Cu1166  1.961   .     S
O1156  C1157   1.297   .     A
C1157  C1198   1.450   .     S
C1158  C1197   1.450   .     S
O1159  C1163   1.298   .     A
O1159  Cu1165  1.961   .     S
O1160  C1164   1.298   .     A
O1160  Cu1166  1.961   .     S
O1161  C1164   1.298   .     A
O1161  Cu1165  1.956   .     S
O1162  C1163   1.298   .     A
O1162  Cu1166  1.956   .     S
C1163  C1170   1.448   .     S
C1164  C1169   1.448   .     S
Cu1165 N1203   2.033   .     S
Cu1165 Cu1166  2.706   .     S
Cu1166 N1204   2.033   .     S
C1167  C1205   1.519   .     S
C1167  C1177   1.416   .     A
C1167  C1169   1.414   .     A
C1168  C1209   1.519   .     S
C1168  C1170   1.414   .     A
C1168  C1178   1.416   .     A
C1169  C1171   1.393   .     A
C1170  C1172   1.393   .     A
C1171  H1183   1.086   .     S
C1171  C1173   1.388   .     A
C1172  C1174   1.388   .     A
C1172  H1184   1.086   .     S
C1173  C1175   1.409   .     A
C1173  C1179   1.397   .     A
C1174  C1180   1.397   .     A
C1174  C1176   1.409   .     A
C1175  C1177   1.420   .     A
C1175  C528    1.410   1_556 S
C1176  C1178   1.420   .     A
C1177  C1182   1.410   .     A
C1178  C1181   1.410   .     A
C1179  H1185   1.084   .     S
C1179  C533    1.390   1_556 S
C1180  H1186   1.084   .     S
C1181  H1187   1.081   .     S
C1182  H1188   1.081   .     S
C1182  C532    1.390   1_556 S
C1189  H1193   1.083   .     S
C1189  C1198   1.403   .     A
C1190  H1194   1.083   .     S
C1190  C1197   1.402   .     A
C1190  C1264   1.383   .     S
C1191  H1195   1.083   .     S
C1191  C1197   1.400   .     A
C1191  C1261   1.383   .     S
C1192  H1196   1.083   .     S
C1192  C1198   1.400   .     A
C1199  N1213   1.431   .     S
C1199  N1204   1.361   .     A
C1200  N1203   1.361   .     A
C1200  N1216   1.431   .     S
C1200  C769    1.423   1_565 S
C1201  N1219   1.432   .     S
C1201  N1204   1.389   .     A
C1202  N1203   1.389   .     A
C1202  N1222   1.431   .     S
C1202  C767    1.423   1_565 S
C1205  H1206   1.110   .     S
C1205  H1207   1.107   .     S
C1205  H1208   1.110   .     S
C1209  H1210   1.110   .     S
C1209  H1211   1.107   .     S
C1209  H1212   1.110   .     S
N1213  H1214   1.046   .     S
N1213  H1215   1.046   .     S
N1216  H1217   1.045   .     S
N1216  H1218   1.045   .     S
N1219  H1220   1.043   .     S
N1219  H1221   1.038   .     S
N1222  H1223   1.037   .     S
N1222  H1224   1.042   .     S
O1225  C1229   1.301   .     A
O1225  Cu1237  1.965   .     S
O1226  Cu1238  1.965   .     S
O1226  C1230   1.301   .     A
O1227  Cu1237  1.961   .     S
O1227  C1230   1.297   .     A
O1228  Cu1238  1.961   .     S
O1228  C1229   1.297   .     A
C1229  C1270   1.450   .     S
C1230  C1269   1.450   .     S
O1231  C1235   1.298   .     A
O1231  Cu1237  1.961   .     S
O1232  C1236   1.298   .     A
O1232  Cu1238  1.961   .     S
O1233  C1236   1.298   .     A
O1233  Cu1237  1.956   .     S
O1234  C1235   1.298   .     A
O1234  Cu1238  1.956   .     S
C1235  C1242   1.448   .     S
C1236  C1241   1.448   .     S
Cu1237 N1275   2.033   .     S
Cu1237 Cu1238  2.706   .     S
Cu1238 N1276   2.033   .     S
C1239  C1277   1.519   .     S
C1239  C1249   1.416   .     A
C1239  C1241   1.414   .     A
C1240  C1281   1.519   .     S
C1240  C1242   1.414   .     A
C1240  C1250   1.416   .     A
C1241  C1243   1.393   .     A
C1242  C1244   1.393   .     A
C1243  H1255   1.086   .     S
C1243  C1245   1.388   .     A
C1244  C1246   1.388   .     A
C1244  H1256   1.086   .     S
C1245  C1247   1.409   .     A
C1245  C1251   1.397   .     A
C1246  C1252   1.397   .     A
C1246  C1248   1.409   .     A
C1247  C1249   1.420   .     A
C1247  C600    1.410   1_556 S
C1248  C1250   1.420   .     A
C1249  C1254   1.410   .     A
C1250  C1253   1.410   .     A
C1251  H1257   1.084   .     S
C1251  C605    1.390   1_556 S
C1252  H1258   1.084   .     S
C1253  H1259   1.081   .     S
C1254  H1260   1.081   .     S
C1254  C604    1.390   1_556 S
C1261  H1265   1.083   .     S
C1261  C1270   1.403   .     A
C1262  H1266   1.083   .     S
C1262  C1269   1.402   .     A
C1262  C1120   1.383   1_655 S
C1263  H1267   1.083   .     S
C1263  C1269   1.400   .     A
C1263  C1117   1.383   1_655 S
C1264  H1268   1.083   .     S
C1264  C1270   1.400   .     A
C1271  N1285   1.431   .     S
C1271  N1276   1.361   .     A
C1272  N1275   1.361   .     A
C1272  N1288   1.431   .     S
C1272  C841    1.423   1_565 S
C1273  N1291   1.432   .     S
C1273  N1276   1.389   .     A
C1274  N1275   1.389   .     A
C1274  N1294   1.431   .     S
C1274  C839    1.423   1_565 S
C1277  H1278   1.110   .     S
C1277  H1279   1.107   .     S
C1277  H1280   1.110   .     S
C1281  H1282   1.110   .     S
C1281  H1283   1.107   .     S
C1281  H1284   1.110   .     S
N1285  H1286   1.046   .     S
N1285  H1287   1.046   .     S
N1288  H1289   1.045   .     S
N1288  H1290   1.045   .     S
N1291  H1292   1.043   .     S
N1291  H1293   1.038   .     S
N1294  H1295   1.037   .     S
N1294  H1296   1.042   .     S
