data_str_m1_o5_o17_pcu_sym.46
_audit_creation_date              2020-01-03
_audit_creation_method            'Materials Studio'
_symmetry_space_group_name_H-M    'P1'
_symmetry_Int_Tables_number       1
_symmetry_cell_setting            triclinic
loop_
_symmetry_equiv_pos_as_xyz
  x,y,z
_cell_length_a                    31.7844
_cell_length_b                    31.7844
_cell_length_c                    34.5062
_cell_angle_alpha                 90.0001
_cell_angle_beta                  90.0001
_cell_angle_gamma                 89.9604
loop_
_atom_site_label
_atom_site_type_symbol
_atom_site_fract_x
_atom_site_fract_y
_atom_site_fract_z
_atom_site_U_iso_or_equiv
_atom_site_adp_type
_atom_site_occupancy
Br1    Br    0.45466   0.32875   0.38928   0.00000  Uiso   1.00
Br2    Br    0.29536   0.42126   0.11072   0.00000  Uiso   1.00
Br3    Br    0.42125   0.29534   0.88928   0.00000  Uiso   1.00
Br4    Br    0.07875   0.20466   0.11072   0.00000  Uiso   1.00
Br5    Br    0.29536   0.42126   0.88928   0.00000  Uiso   1.00
Br6    Br    0.20464   0.07874   0.11072   0.00000  Uiso   1.00
Br7    Br    0.07875   0.20466   0.88928   0.00000  Uiso   1.00
Br8    Br    0.42125   0.29534   0.11072   0.00000  Uiso   1.00
Br9    Br    0.04534   0.17125   0.61072   0.00000  Uiso   1.00
Br10   Br    0.17124   0.04532   0.38928   0.00000  Uiso   1.00
Br11   Br    0.32876   0.45468   0.61072   0.00000  Uiso   1.00
Br12   Br    0.04534   0.17125   0.38928   0.00000  Uiso   1.00
Br13   Br    0.45466   0.32875   0.61072   0.00000  Uiso   1.00
Br14   Br    0.32876   0.45468   0.38928   0.00000  Uiso   1.00
Br15   Br    0.17124   0.04532   0.61072   0.00000  Uiso   1.00
Br16   Br    0.20464   0.07874   0.88928   0.00000  Uiso   1.00
C17    C     0.25000   0.00000   0.35589   0.00000  Uiso   1.00
C18    C     0.33002   0.41998   0.75000   0.00000  Uiso   1.00
C19    C     0.43494   0.29032   0.02010   0.00000  Uiso   1.00
C20    C     0.20966   0.06505   0.97990   0.00000  Uiso   1.00
C21    C     0.29034   0.43495   0.02010   0.00000  Uiso   1.00
C22    C     0.43494   0.29032   0.97990   0.00000  Uiso   1.00
C23    C     0.06506   0.20968   0.02010   0.00000  Uiso   1.00
C24    C     0.41998   0.16998   0.25000   0.00000  Uiso   1.00
C25    C     0.08002   0.33002   0.75000   0.00000  Uiso   1.00
C26    C     0.33002   0.41998   0.25000   0.00000  Uiso   1.00
C27    C     0.16998   0.08002   0.75000   0.00000  Uiso   1.00
C28    C     0.08002   0.33002   0.25000   0.00000  Uiso   1.00
C29    C     0.41998   0.16998   0.75000   0.00000  Uiso   1.00
C30    C     0.16998   0.41998   0.75000   0.00000  Uiso   1.00
C31    C     0.33002   0.08002   0.25000   0.00000  Uiso   1.00
C32    C     0.41998   0.33002   0.75000   0.00000  Uiso   1.00
C33    C     0.25000  -0.00000   0.64411   0.00000  Uiso   1.00
C34    C     0.08002   0.16998   0.25000   0.00000  Uiso   1.00
C35    C     0.33002   0.08002   0.75000   0.00000  Uiso   1.00
C36    C     0.16998   0.41998   0.25000   0.00000  Uiso   1.00
C37    C     0.08002   0.16998   0.75000   0.00000  Uiso   1.00
C38    C     0.41998   0.33002   0.25000   0.00000  Uiso   1.00
C39    C     0.13833   0.38833   0.25000   0.00000  Uiso   1.00
C40    C     0.36167   0.11167   0.75000   0.00000  Uiso   1.00
C41    C     0.11167   0.13833   0.25000   0.00000  Uiso   1.00
C42    C     0.38833   0.36167   0.75000   0.00000  Uiso   1.00
C43    C     0.36167   0.11167   0.25000   0.00000  Uiso   1.00
C44    C    -0.00000   0.25000   0.35589   0.00000  Uiso   1.00
C45    C     0.13833   0.38833   0.75000   0.00000  Uiso   1.00
C46    C     0.38833   0.36167   0.25000   0.00000  Uiso   1.00
C47    C     0.11167   0.13833   0.75000   0.00000  Uiso   1.00
C48    C     0.13833   0.11167   0.75000   0.00000  Uiso   1.00
C49    C     0.36167   0.38833   0.25000   0.00000  Uiso   1.00
C50    C     0.11167   0.36167   0.75000   0.00000  Uiso   1.00
C51    C     0.38833   0.13833   0.25000   0.00000  Uiso   1.00
C52    C     0.36167   0.38833   0.75000   0.00000  Uiso   1.00
C53    C     0.13833   0.11167   0.25000   0.00000  Uiso   1.00
C54    C     0.38833   0.13833   0.75000   0.00000  Uiso   1.00
C55    C    -0.00000   0.25000   0.64411   0.00000  Uiso   1.00
C56    C     0.11167   0.36167   0.25000   0.00000  Uiso   1.00
C57    C     0.47992   0.28291   0.41823   0.00000  Uiso   1.00
C58    C     0.02007   0.21709   0.58177   0.00000  Uiso   1.00
C59    C     0.21708   0.02007   0.41823   0.00000  Uiso   1.00
C60    C     0.28292   0.47993   0.58177   0.00000  Uiso   1.00
C61    C     0.02008   0.21709   0.41823   0.00000  Uiso   1.00
C62    C     0.47992   0.28291   0.58177   0.00000  Uiso   1.00
C63    C     0.28292   0.47993   0.41823   0.00000  Uiso   1.00
C64    C     0.21708   0.02007   0.58177   0.00000  Uiso   1.00
C65    C     0.22991   0.03291   0.91823   0.00000  Uiso   1.00
C66    C    -0.00000   0.25000   0.85589   0.00000  Uiso   1.00
C67    C     0.27008   0.46709   0.08177   0.00000  Uiso   1.00
C68    C     0.46708   0.27007   0.91823   0.00000  Uiso   1.00
C69    C     0.03291   0.22992   0.08177   0.00000  Uiso   1.00
C70    C     0.27008   0.46709   0.91823   0.00000  Uiso   1.00
C71    C     0.22991   0.03291   0.08177   0.00000  Uiso   1.00
C72    C     0.03291   0.22992   0.91823   0.00000  Uiso   1.00
C73    C     0.46708   0.27007   0.08177   0.00000  Uiso   1.00
C74    C     0.00000   0.25000   0.39817   0.00000  Uiso   1.00
C75    C    -0.00000   0.25000   0.60183   0.00000  Uiso   1.00
C76    C     0.25000   0.00000   0.39817   0.00000  Uiso   1.00
C77    C    -0.00000   0.25000   0.14411   0.00000  Uiso   1.00
C78    C     0.25000  -0.00000   0.60183   0.00000  Uiso   1.00
C79    C     0.25000   0.00000   0.89817   0.00000  Uiso   1.00
C80    C     0.25000  -0.00000   0.10183   0.00000  Uiso   1.00
C81    C     0.00000   0.25000   0.89817   0.00000  Uiso   1.00
C82    C    -0.00000   0.25000   0.10183   0.00000  Uiso   1.00
C83    C     0.02031   0.21712   0.45901   0.00000  Uiso   1.00
C84    C     0.47969   0.28288   0.54099   0.00000  Uiso   1.00
C85    C     0.28288   0.47970   0.45901   0.00000  Uiso   1.00
C86    C     0.21711   0.02030   0.54099   0.00000  Uiso   1.00
C87    C     0.47969   0.28288   0.45901   0.00000  Uiso   1.00
C88    C     0.25000   0.00000   0.85589   0.00000  Uiso   1.00
C89    C     0.02031   0.21712   0.54099   0.00000  Uiso   1.00
C90    C     0.21711   0.02030   0.45901   0.00000  Uiso   1.00
C91    C     0.28288   0.47970   0.54099   0.00000  Uiso   1.00
C92    C     0.27032   0.46713   0.95901   0.00000  Uiso   1.00
C93    C     0.22968   0.03287   0.04099   0.00000  Uiso   1.00
C94    C     0.03288   0.22969   0.95901   0.00000  Uiso   1.00
C95    C     0.46712   0.27031   0.04099   0.00000  Uiso   1.00
C96    C     0.22968   0.03287   0.95901   0.00000  Uiso   1.00
C97    C     0.27032   0.46713   0.04099   0.00000  Uiso   1.00
C98    C     0.46712   0.27031   0.95901   0.00000  Uiso   1.00
C99    C     0.25000  -0.00000   0.14411   0.00000  Uiso   1.00
C100   C     0.03288   0.22969   0.04099   0.00000  Uiso   1.00
C101   C     0.00000   0.25000   0.47946   0.00000  Uiso   1.00
C102   C    -0.00000   0.25000   0.52054   0.00000  Uiso   1.00
C103   C     0.25000  -0.00000   0.47946   0.00000  Uiso   1.00
C104   C     0.25000   0.00000   0.52054   0.00000  Uiso   1.00
C105   C     0.25000   0.00000   0.97946   0.00000  Uiso   1.00
C106   C     0.25000  -0.00000   0.02054   0.00000  Uiso   1.00
C107   C     0.00000   0.25000   0.97946   0.00000  Uiso   1.00
C108   C    -0.00000   0.25000   0.02054   0.00000  Uiso   1.00
C109   C     0.04032   0.18494   0.47990   0.00000  Uiso   1.00
C110   C     0.16998   0.08002   0.25000   0.00000  Uiso   1.00
C111   C     0.45968   0.31506   0.52010   0.00000  Uiso   1.00
C112   C     0.31507   0.45970   0.47990   0.00000  Uiso   1.00
C113   C     0.18493   0.04030   0.52010   0.00000  Uiso   1.00
C114   C     0.45968   0.31506   0.47990   0.00000  Uiso   1.00
C115   C     0.04032   0.18494   0.52010   0.00000  Uiso   1.00
C116   C     0.18493   0.04030   0.47990   0.00000  Uiso   1.00
C117   C     0.31507   0.45970   0.52010   0.00000  Uiso   1.00
C118   C     0.29034   0.43495   0.97990   0.00000  Uiso   1.00
C119   C     0.20966   0.06505   0.02010   0.00000  Uiso   1.00
C120   C     0.06506   0.20968   0.97990   0.00000  Uiso   1.00
H121   H     0.05640   0.15931   0.46559   0.00000  Uiso   1.00
H122   H     0.19357   0.09067   0.03441   0.00000  Uiso   1.00
H123   H     0.09069   0.19360   0.96559   0.00000  Uiso   1.00
H124   H     0.40931   0.30640   0.03441   0.00000  Uiso   1.00
H125   H     0.19357   0.09067   0.96559   0.00000  Uiso   1.00
H126   H     0.30643   0.40933   0.03441   0.00000  Uiso   1.00
H127   H     0.40931   0.30640   0.96559   0.00000  Uiso   1.00
H128   H     0.09069   0.19360   0.03441   0.00000  Uiso   1.00
H129   H     0.44360   0.34069   0.53441   0.00000  Uiso   1.00
H130   H     0.34070   0.44363   0.46559   0.00000  Uiso   1.00
H131   H     0.15930   0.05637   0.53441   0.00000  Uiso   1.00
H132   H     0.44360   0.34069   0.46559   0.00000  Uiso   1.00
H133   H     0.05640   0.15931   0.53441   0.00000  Uiso   1.00
H134   H     0.15930   0.05637   0.46559   0.00000  Uiso   1.00
H135   H     0.34070   0.44363   0.53441   0.00000  Uiso   1.00
H136   H     0.30643   0.40933   0.96559   0.00000  Uiso   1.00
O137   O     0.25000   0.00000   0.25000   0.00000  Uiso   1.00
O138   O     0.25000   0.46538   0.66251   0.00000  Uiso   1.00
O139   O     0.46538   0.25000   0.33749   0.00000  Uiso   1.00
O140   O     0.03461   0.25000   0.66251   0.00000  Uiso   1.00
O141   O    -0.00000   0.21538   0.83749   0.00000  Uiso   1.00
O142   O     0.00000   0.28461   0.16251   0.00000  Uiso   1.00
O143   O     0.28461   0.00000   0.83749   0.00000  Uiso   1.00
O144   O     0.21538   0.00000   0.16251   0.00000  Uiso   1.00
O145   O     0.00000   0.28461   0.83749   0.00000  Uiso   1.00
O146   O    -0.00000   0.21538   0.16251   0.00000  Uiso   1.00
O147   O     0.21538   0.00000   0.83749   0.00000  Uiso   1.00
O148   O     0.25000   0.00000   0.75000   0.00000  Uiso   1.00
O149   O     0.28461   0.00000   0.16251   0.00000  Uiso   1.00
O150   O     0.20126   0.08332   0.27298   0.00000  Uiso   1.00
O151   O     0.29873   0.41668   0.72702   0.00000  Uiso   1.00
O152   O     0.41668   0.20126   0.27298   0.00000  Uiso   1.00
O153   O     0.08332   0.29873   0.72702   0.00000  Uiso   1.00
O154   O     0.29873   0.41668   0.27298   0.00000  Uiso   1.00
O155   O     0.20126   0.08332   0.72702   0.00000  Uiso   1.00
O156   O     0.08332   0.29873   0.27298   0.00000  Uiso   1.00
O157   O     0.41668   0.20126   0.72702   0.00000  Uiso   1.00
O158   O     0.20126   0.41668   0.72702   0.00000  Uiso   1.00
O159   O    -0.00000   0.25000   0.25000   0.00000  Uiso   1.00
O160   O     0.29873   0.08332   0.27298   0.00000  Uiso   1.00
O161   O     0.41668   0.29873   0.72702   0.00000  Uiso   1.00
O162   O     0.08332   0.20126   0.27298   0.00000  Uiso   1.00
O163   O     0.29873   0.08332   0.72702   0.00000  Uiso   1.00
O164   O     0.20126   0.41668   0.27298   0.00000  Uiso   1.00
O165   O     0.08332   0.20126   0.72702   0.00000  Uiso   1.00
O166   O     0.41668   0.29873   0.27298   0.00000  Uiso   1.00
O167   O     0.45126   0.33332   0.77298   0.00000  Uiso   1.00
O168   O     0.04873   0.16668   0.22702   0.00000  Uiso   1.00
O169   O     0.16668   0.45126   0.77298   0.00000  Uiso   1.00
O170   O    -0.00000   0.25000   0.75000   0.00000  Uiso   1.00
O171   O     0.33332   0.04874   0.22702   0.00000  Uiso   1.00
O172   O     0.04873   0.16668   0.77298   0.00000  Uiso   1.00
O173   O     0.45126   0.33332   0.22702   0.00000  Uiso   1.00
O174   O     0.33332   0.04874   0.77298   0.00000  Uiso   1.00
O175   O     0.16668   0.45126   0.22702   0.00000  Uiso   1.00
O176   O     0.45126   0.16668   0.22702   0.00000  Uiso   1.00
O177   O     0.04873   0.33332   0.77298   0.00000  Uiso   1.00
O178   O     0.16668   0.04874   0.22702   0.00000  Uiso   1.00
O179   O     0.33332   0.45126   0.77298   0.00000  Uiso   1.00
O180   O     0.04873   0.33332   0.22702   0.00000  Uiso   1.00
O181   O     0.25000   0.46538   0.33749   0.00000  Uiso   1.00
O182   O     0.45126   0.16668   0.77298   0.00000  Uiso   1.00
O183   O     0.33332   0.45126   0.22702   0.00000  Uiso   1.00
O184   O     0.16668   0.04874   0.77298   0.00000  Uiso   1.00
O185   O     0.25000   0.03462   0.66251   0.00000  Uiso   1.00
O186   O     0.03461   0.25000   0.33749   0.00000  Uiso   1.00
O187   O     0.46538   0.25000   0.66251   0.00000  Uiso   1.00
O188   O     0.25000   0.03462   0.33749   0.00000  Uiso   1.00
Zn189  Zn    0.20052   0.00000   0.21730   0.00000  Uiso   1.00
Zn190  Zn    0.04947   0.25000   0.28270   0.00000  Uiso   1.00
Zn191  Zn    0.25000   0.45052   0.71730   0.00000  Uiso   1.00
Zn192  Zn    0.25000   0.04948   0.28270   0.00000  Uiso   1.00
Zn193  Zn    0.04947   0.25000   0.71730   0.00000  Uiso   1.00
Zn194  Zn    0.45052   0.25000   0.28270   0.00000  Uiso   1.00
Zn195  Zn    0.25000   0.04948   0.71730   0.00000  Uiso   1.00
Zn196  Zn    0.25000   0.45052   0.28270   0.00000  Uiso   1.00
Zn197  Zn    0.29947   0.00000   0.78270   0.00000  Uiso   1.00
Zn198  Zn    0.00000   0.20052   0.21730   0.00000  Uiso   1.00
Zn199  Zn   -0.00000   0.29947   0.78270   0.00000  Uiso   1.00
Zn200  Zn    0.29947   0.00000   0.21730   0.00000  Uiso   1.00
Zn201  Zn    0.20052   0.00000   0.78270   0.00000  Uiso   1.00
Zn202  Zn   -0.00000   0.29947   0.21730   0.00000  Uiso   1.00
Zn203  Zn   -0.00000   0.20052   0.78270   0.00000  Uiso   1.00
Zn204  Zn    0.45052   0.25000   0.71730   0.00000  Uiso   1.00
Br205  Br    0.95466   0.32875   0.38928   0.00000  Uiso   1.00
Br206  Br    0.79536   0.42126   0.11072   0.00000  Uiso   1.00
Br207  Br    0.92125   0.29534   0.88928   0.00000  Uiso   1.00
Br208  Br    0.57875   0.20466   0.11072   0.00000  Uiso   1.00
Br209  Br    0.79536   0.42126   0.88928   0.00000  Uiso   1.00
Br210  Br    0.70464   0.07874   0.11072   0.00000  Uiso   1.00
Br211  Br    0.57875   0.20466   0.88928   0.00000  Uiso   1.00
Br212  Br    0.92125   0.29534   0.11072   0.00000  Uiso   1.00
Br213  Br    0.54534   0.17125   0.61072   0.00000  Uiso   1.00
Br214  Br    0.67124   0.04532   0.38928   0.00000  Uiso   1.00
Br215  Br    0.82876   0.45468   0.61072   0.00000  Uiso   1.00
Br216  Br    0.54534   0.17125   0.38928   0.00000  Uiso   1.00
Br217  Br    0.95466   0.32875   0.61072   0.00000  Uiso   1.00
Br218  Br    0.82876   0.45468   0.38928   0.00000  Uiso   1.00
Br219  Br    0.67124   0.04532   0.61072   0.00000  Uiso   1.00
Br220  Br    0.70464   0.07874   0.88928   0.00000  Uiso   1.00
C221   C     0.75000   0.00000   0.35589   0.00000  Uiso   1.00
C222   C     0.83002   0.41998   0.75000   0.00000  Uiso   1.00
C223   C     0.93494   0.29032   0.02010   0.00000  Uiso   1.00
C224   C     0.70966   0.06505   0.97990   0.00000  Uiso   1.00
C225   C     0.79034   0.43495   0.02010   0.00000  Uiso   1.00
C226   C     0.93494   0.29032   0.97990   0.00000  Uiso   1.00
C227   C     0.56506   0.20968   0.02010   0.00000  Uiso   1.00
C228   C     0.91998   0.16998   0.25000   0.00000  Uiso   1.00
C229   C     0.58002   0.33002   0.75000   0.00000  Uiso   1.00
C230   C     0.83002   0.41998   0.25000   0.00000  Uiso   1.00
C231   C     0.66998   0.08002   0.75000   0.00000  Uiso   1.00
C232   C     0.58002   0.33002   0.25000   0.00000  Uiso   1.00
C233   C     0.91998   0.16998   0.75000   0.00000  Uiso   1.00
C234   C     0.66998   0.41998   0.75000   0.00000  Uiso   1.00
C235   C     0.83002   0.08002   0.25000   0.00000  Uiso   1.00
C236   C     0.91998   0.33002   0.75000   0.00000  Uiso   1.00
C237   C     0.75000  -0.00000   0.64411   0.00000  Uiso   1.00
C238   C     0.58002   0.16998   0.25000   0.00000  Uiso   1.00
C239   C     0.83002   0.08002   0.75000   0.00000  Uiso   1.00
C240   C     0.66998   0.41998   0.25000   0.00000  Uiso   1.00
C241   C     0.58002   0.16998   0.75000   0.00000  Uiso   1.00
C242   C     0.91998   0.33002   0.25000   0.00000  Uiso   1.00
C243   C     0.63833   0.38833   0.25000   0.00000  Uiso   1.00
C244   C     0.86167   0.11167   0.75000   0.00000  Uiso   1.00
C245   C     0.61167   0.13833   0.25000   0.00000  Uiso   1.00
C246   C     0.88833   0.36167   0.75000   0.00000  Uiso   1.00
C247   C     0.86167   0.11167   0.25000   0.00000  Uiso   1.00
C248   C     0.50000   0.25000   0.35589   0.00000  Uiso   1.00
C249   C     0.63833   0.38833   0.75000   0.00000  Uiso   1.00
C250   C     0.88833   0.36167   0.25000   0.00000  Uiso   1.00
C251   C     0.61167   0.13833   0.75000   0.00000  Uiso   1.00
C252   C     0.63833   0.11167   0.75000   0.00000  Uiso   1.00
C253   C     0.86167   0.38833   0.25000   0.00000  Uiso   1.00
C254   C     0.61167   0.36167   0.75000   0.00000  Uiso   1.00
C255   C     0.88833   0.13833   0.25000   0.00000  Uiso   1.00
C256   C     0.86167   0.38833   0.75000   0.00000  Uiso   1.00
C257   C     0.63833   0.11167   0.25000   0.00000  Uiso   1.00
C258   C     0.88833   0.13833   0.75000   0.00000  Uiso   1.00
C259   C     0.50000   0.25000   0.64411   0.00000  Uiso   1.00
C260   C     0.61167   0.36167   0.25000   0.00000  Uiso   1.00
C261   C     0.97992   0.28291   0.41823   0.00000  Uiso   1.00
C262   C     0.52007   0.21709   0.58177   0.00000  Uiso   1.00
C263   C     0.71708   0.02007   0.41823   0.00000  Uiso   1.00
C264   C     0.78292   0.47993   0.58177   0.00000  Uiso   1.00
C265   C     0.52008   0.21709   0.41823   0.00000  Uiso   1.00
C266   C     0.97992   0.28291   0.58177   0.00000  Uiso   1.00
C267   C     0.78292   0.47993   0.41823   0.00000  Uiso   1.00
C268   C     0.71708   0.02007   0.58177   0.00000  Uiso   1.00
C269   C     0.72991   0.03291   0.91823   0.00000  Uiso   1.00
C270   C     0.50000   0.25000   0.85589   0.00000  Uiso   1.00
C271   C     0.77008   0.46709   0.08177   0.00000  Uiso   1.00
C272   C     0.96708   0.27007   0.91823   0.00000  Uiso   1.00
C273   C     0.53291   0.22992   0.08177   0.00000  Uiso   1.00
C274   C     0.77008   0.46709   0.91823   0.00000  Uiso   1.00
C275   C     0.72991   0.03291   0.08177   0.00000  Uiso   1.00
C276   C     0.53291   0.22992   0.91823   0.00000  Uiso   1.00
C277   C     0.96708   0.27007   0.08177   0.00000  Uiso   1.00
C278   C     0.50000   0.25000   0.39817   0.00000  Uiso   1.00
C279   C     0.50000   0.25000   0.60183   0.00000  Uiso   1.00
C280   C     0.75000   0.00000   0.39817   0.00000  Uiso   1.00
C281   C     0.50000   0.25000   0.14411   0.00000  Uiso   1.00
C282   C     0.75000  -0.00000   0.60183   0.00000  Uiso   1.00
C283   C     0.75000   0.00000   0.89817   0.00000  Uiso   1.00
C284   C     0.75000  -0.00000   0.10183   0.00000  Uiso   1.00
C285   C     0.50000   0.25000   0.89817   0.00000  Uiso   1.00
C286   C     0.50000   0.25000   0.10183   0.00000  Uiso   1.00
C287   C     0.52031   0.21712   0.45901   0.00000  Uiso   1.00
C288   C     0.97969   0.28288   0.54099   0.00000  Uiso   1.00
C289   C     0.78288   0.47970   0.45901   0.00000  Uiso   1.00
C290   C     0.71711   0.02030   0.54099   0.00000  Uiso   1.00
C291   C     0.97969   0.28288   0.45901   0.00000  Uiso   1.00
C292   C     0.75000   0.00000   0.85589   0.00000  Uiso   1.00
C293   C     0.52031   0.21712   0.54099   0.00000  Uiso   1.00
C294   C     0.71711   0.02030   0.45901   0.00000  Uiso   1.00
C295   C     0.78288   0.47970   0.54099   0.00000  Uiso   1.00
C296   C     0.77032   0.46713   0.95901   0.00000  Uiso   1.00
C297   C     0.72968   0.03287   0.04099   0.00000  Uiso   1.00
C298   C     0.53288   0.22969   0.95901   0.00000  Uiso   1.00
C299   C     0.96712   0.27031   0.04099   0.00000  Uiso   1.00
C300   C     0.72968   0.03287   0.95901   0.00000  Uiso   1.00
C301   C     0.77032   0.46713   0.04099   0.00000  Uiso   1.00
C302   C     0.96712   0.27031   0.95901   0.00000  Uiso   1.00
C303   C     0.75000  -0.00000   0.14411   0.00000  Uiso   1.00
C304   C     0.53288   0.22969   0.04099   0.00000  Uiso   1.00
C305   C     0.50000   0.25000   0.47946   0.00000  Uiso   1.00
C306   C     0.50000   0.25000   0.52054   0.00000  Uiso   1.00
C307   C     0.75000  -0.00000   0.47946   0.00000  Uiso   1.00
C308   C     0.75000   0.00000   0.52054   0.00000  Uiso   1.00
C309   C     0.75000   0.00000   0.97946   0.00000  Uiso   1.00
C310   C     0.75000  -0.00000   0.02054   0.00000  Uiso   1.00
C311   C     0.50000   0.25000   0.97946   0.00000  Uiso   1.00
C312   C     0.50000   0.25000   0.02054   0.00000  Uiso   1.00
C313   C     0.54032   0.18494   0.47990   0.00000  Uiso   1.00
C314   C     0.66998   0.08002   0.25000   0.00000  Uiso   1.00
C315   C     0.95968   0.31506   0.52010   0.00000  Uiso   1.00
C316   C     0.81507   0.45970   0.47990   0.00000  Uiso   1.00
C317   C     0.68493   0.04030   0.52010   0.00000  Uiso   1.00
C318   C     0.95968   0.31506   0.47990   0.00000  Uiso   1.00
C319   C     0.54032   0.18494   0.52010   0.00000  Uiso   1.00
C320   C     0.68493   0.04030   0.47990   0.00000  Uiso   1.00
C321   C     0.81507   0.45970   0.52010   0.00000  Uiso   1.00
C322   C     0.79034   0.43495   0.97990   0.00000  Uiso   1.00
C323   C     0.70966   0.06505   0.02010   0.00000  Uiso   1.00
C324   C     0.56506   0.20968   0.97990   0.00000  Uiso   1.00
H325   H     0.55640   0.15931   0.46559   0.00000  Uiso   1.00
H326   H     0.69357   0.09067   0.03441   0.00000  Uiso   1.00
H327   H     0.59069   0.19360   0.96559   0.00000  Uiso   1.00
H328   H     0.90931   0.30640   0.03441   0.00000  Uiso   1.00
H329   H     0.69357   0.09067   0.96559   0.00000  Uiso   1.00
H330   H     0.80643   0.40933   0.03441   0.00000  Uiso   1.00
H331   H     0.90931   0.30640   0.96559   0.00000  Uiso   1.00
H332   H     0.59069   0.19360   0.03441   0.00000  Uiso   1.00
H333   H     0.94360   0.34069   0.53441   0.00000  Uiso   1.00
H334   H     0.84070   0.44363   0.46559   0.00000  Uiso   1.00
H335   H     0.65930   0.05637   0.53441   0.00000  Uiso   1.00
H336   H     0.94360   0.34069   0.46559   0.00000  Uiso   1.00
H337   H     0.55640   0.15931   0.53441   0.00000  Uiso   1.00
H338   H     0.65930   0.05637   0.46559   0.00000  Uiso   1.00
H339   H     0.84070   0.44363   0.53441   0.00000  Uiso   1.00
H340   H     0.80643   0.40933   0.96559   0.00000  Uiso   1.00
O341   O     0.75000   0.00000   0.25000   0.00000  Uiso   1.00
O342   O     0.75000   0.46538   0.66251   0.00000  Uiso   1.00
O343   O     0.96538   0.25000   0.33749   0.00000  Uiso   1.00
O344   O     0.53461   0.25000   0.66251   0.00000  Uiso   1.00
O345   O     0.50000   0.21538   0.83749   0.00000  Uiso   1.00
O346   O     0.50000   0.28461   0.16251   0.00000  Uiso   1.00
O347   O     0.78461   0.00000   0.83749   0.00000  Uiso   1.00
O348   O     0.71538   0.00000   0.16251   0.00000  Uiso   1.00
O349   O     0.50000   0.28461   0.83749   0.00000  Uiso   1.00
O350   O     0.50000   0.21538   0.16251   0.00000  Uiso   1.00
O351   O     0.71538   0.00000   0.83749   0.00000  Uiso   1.00
O352   O     0.75000   0.00000   0.75000   0.00000  Uiso   1.00
O353   O     0.78461   0.00000   0.16251   0.00000  Uiso   1.00
O354   O     0.70126   0.08332   0.27298   0.00000  Uiso   1.00
O355   O     0.79873   0.41668   0.72702   0.00000  Uiso   1.00
O356   O     0.91668   0.20126   0.27298   0.00000  Uiso   1.00
O357   O     0.58332   0.29873   0.72702   0.00000  Uiso   1.00
O358   O     0.79873   0.41668   0.27298   0.00000  Uiso   1.00
O359   O     0.70126   0.08332   0.72702   0.00000  Uiso   1.00
O360   O     0.58332   0.29873   0.27298   0.00000  Uiso   1.00
O361   O     0.91668   0.20126   0.72702   0.00000  Uiso   1.00
O362   O     0.70126   0.41668   0.72702   0.00000  Uiso   1.00
O363   O     0.50000   0.25000   0.25000   0.00000  Uiso   1.00
O364   O     0.79873   0.08332   0.27298   0.00000  Uiso   1.00
O365   O     0.91668   0.29873   0.72702   0.00000  Uiso   1.00
O366   O     0.58332   0.20126   0.27298   0.00000  Uiso   1.00
O367   O     0.79873   0.08332   0.72702   0.00000  Uiso   1.00
O368   O     0.70126   0.41668   0.27298   0.00000  Uiso   1.00
O369   O     0.58332   0.20126   0.72702   0.00000  Uiso   1.00
O370   O     0.91668   0.29873   0.27298   0.00000  Uiso   1.00
O371   O     0.95126   0.33332   0.77298   0.00000  Uiso   1.00
O372   O     0.54873   0.16668   0.22702   0.00000  Uiso   1.00
O373   O     0.66668   0.45126   0.77298   0.00000  Uiso   1.00
O374   O     0.50000   0.25000   0.75000   0.00000  Uiso   1.00
O375   O     0.83332   0.04874   0.22702   0.00000  Uiso   1.00
O376   O     0.54873   0.16668   0.77298   0.00000  Uiso   1.00
O377   O     0.95126   0.33332   0.22702   0.00000  Uiso   1.00
O378   O     0.83332   0.04874   0.77298   0.00000  Uiso   1.00
O379   O     0.66668   0.45126   0.22702   0.00000  Uiso   1.00
O380   O     0.95126   0.16668   0.22702   0.00000  Uiso   1.00
O381   O     0.54873   0.33332   0.77298   0.00000  Uiso   1.00
O382   O     0.66668   0.04874   0.22702   0.00000  Uiso   1.00
O383   O     0.83332   0.45126   0.77298   0.00000  Uiso   1.00
O384   O     0.54873   0.33332   0.22702   0.00000  Uiso   1.00
O385   O     0.75000   0.46538   0.33749   0.00000  Uiso   1.00
O386   O     0.95126   0.16668   0.77298   0.00000  Uiso   1.00
O387   O     0.83332   0.45126   0.22702   0.00000  Uiso   1.00
O388   O     0.66668   0.04874   0.77298   0.00000  Uiso   1.00
O389   O     0.75000   0.03462   0.66251   0.00000  Uiso   1.00
O390   O     0.53461   0.25000   0.33749   0.00000  Uiso   1.00
O391   O     0.96538   0.25000   0.66251   0.00000  Uiso   1.00
O392   O     0.75000   0.03462   0.33749   0.00000  Uiso   1.00
Zn393  Zn    0.70052   0.00000   0.21730   0.00000  Uiso   1.00
Zn394  Zn    0.54947   0.25000   0.28270   0.00000  Uiso   1.00
Zn395  Zn    0.75000   0.45052   0.71730   0.00000  Uiso   1.00
Zn396  Zn    0.75000   0.04948   0.28270   0.00000  Uiso   1.00
Zn397  Zn    0.54947   0.25000   0.71730   0.00000  Uiso   1.00
Zn398  Zn    0.95052   0.25000   0.28270   0.00000  Uiso   1.00
Zn399  Zn    0.75000   0.04948   0.71730   0.00000  Uiso   1.00
Zn400  Zn    0.75000   0.45052   0.28270   0.00000  Uiso   1.00
Zn401  Zn    0.79947   0.00000   0.78270   0.00000  Uiso   1.00
Zn402  Zn    0.50000   0.20052   0.21730   0.00000  Uiso   1.00
Zn403  Zn    0.50000   0.29947   0.78270   0.00000  Uiso   1.00
Zn404  Zn    0.79947   0.00000   0.21730   0.00000  Uiso   1.00
Zn405  Zn    0.70052   0.00000   0.78270   0.00000  Uiso   1.00
Zn406  Zn    0.50000   0.29947   0.21730   0.00000  Uiso   1.00
Zn407  Zn    0.50000   0.20052   0.78270   0.00000  Uiso   1.00
Zn408  Zn    0.95052   0.25000   0.71730   0.00000  Uiso   1.00
Br409  Br    0.45466   0.82875   0.38928   0.00000  Uiso   1.00
Br410  Br    0.29536   0.92126   0.11072   0.00000  Uiso   1.00
Br411  Br    0.42125   0.79534   0.88928   0.00000  Uiso   1.00
Br412  Br    0.07875   0.70466   0.11072   0.00000  Uiso   1.00
Br413  Br    0.29536   0.92126   0.88928   0.00000  Uiso   1.00
Br414  Br    0.20464   0.57874   0.11072   0.00000  Uiso   1.00
Br415  Br    0.07875   0.70466   0.88928   0.00000  Uiso   1.00
Br416  Br    0.42125   0.79534   0.11072   0.00000  Uiso   1.00
Br417  Br    0.04534   0.67125   0.61072   0.00000  Uiso   1.00
Br418  Br    0.17124   0.54532   0.38928   0.00000  Uiso   1.00
Br419  Br    0.32876   0.95468   0.61072   0.00000  Uiso   1.00
Br420  Br    0.04534   0.67125   0.38928   0.00000  Uiso   1.00
Br421  Br    0.45466   0.82875   0.61072   0.00000  Uiso   1.00
Br422  Br    0.32876   0.95468   0.38928   0.00000  Uiso   1.00
Br423  Br    0.17124   0.54532   0.61072   0.00000  Uiso   1.00
Br424  Br    0.20464   0.57874   0.88928   0.00000  Uiso   1.00
C425   C     0.25000   0.50000   0.35589   0.00000  Uiso   1.00
C426   C     0.33002   0.91998   0.75000   0.00000  Uiso   1.00
C427   C     0.43494   0.79032   0.02010   0.00000  Uiso   1.00
C428   C     0.20966   0.56505   0.97990   0.00000  Uiso   1.00
C429   C     0.29034   0.93495   0.02010   0.00000  Uiso   1.00
C430   C     0.43494   0.79032   0.97990   0.00000  Uiso   1.00
C431   C     0.06506   0.70968   0.02010   0.00000  Uiso   1.00
C432   C     0.41998   0.66998   0.25000   0.00000  Uiso   1.00
C433   C     0.08002   0.83002   0.75000   0.00000  Uiso   1.00
C434   C     0.33002   0.91998   0.25000   0.00000  Uiso   1.00
C435   C     0.16998   0.58002   0.75000   0.00000  Uiso   1.00
C436   C     0.08002   0.83002   0.25000   0.00000  Uiso   1.00
C437   C     0.41998   0.66998   0.75000   0.00000  Uiso   1.00
C438   C     0.16998   0.91998   0.75000   0.00000  Uiso   1.00
C439   C     0.33002   0.58002   0.25000   0.00000  Uiso   1.00
C440   C     0.41998   0.83002   0.75000   0.00000  Uiso   1.00
C441   C     0.25000   0.50000   0.64411   0.00000  Uiso   1.00
C442   C     0.08002   0.66998   0.25000   0.00000  Uiso   1.00
C443   C     0.33002   0.58002   0.75000   0.00000  Uiso   1.00
C444   C     0.16998   0.91998   0.25000   0.00000  Uiso   1.00
C445   C     0.08002   0.66998   0.75000   0.00000  Uiso   1.00
C446   C     0.41998   0.83002   0.25000   0.00000  Uiso   1.00
C447   C     0.13833   0.88833   0.25000   0.00000  Uiso   1.00
C448   C     0.36167   0.61167   0.75000   0.00000  Uiso   1.00
C449   C     0.11167   0.63833   0.25000   0.00000  Uiso   1.00
C450   C     0.38833   0.86167   0.75000   0.00000  Uiso   1.00
C451   C     0.36167   0.61167   0.25000   0.00000  Uiso   1.00
C452   C    -0.00000   0.75000   0.35589   0.00000  Uiso   1.00
C453   C     0.13833   0.88833   0.75000   0.00000  Uiso   1.00
C454   C     0.38833   0.86167   0.25000   0.00000  Uiso   1.00
C455   C     0.11167   0.63833   0.75000   0.00000  Uiso   1.00
C456   C     0.13833   0.61167   0.75000   0.00000  Uiso   1.00
C457   C     0.36167   0.88833   0.25000   0.00000  Uiso   1.00
C458   C     0.11167   0.86167   0.75000   0.00000  Uiso   1.00
C459   C     0.38833   0.63833   0.25000   0.00000  Uiso   1.00
C460   C     0.36167   0.88833   0.75000   0.00000  Uiso   1.00
C461   C     0.13833   0.61167   0.25000   0.00000  Uiso   1.00
C462   C     0.38833   0.63833   0.75000   0.00000  Uiso   1.00
C463   C    -0.00000   0.75000   0.64411   0.00000  Uiso   1.00
C464   C     0.11167   0.86167   0.25000   0.00000  Uiso   1.00
C465   C     0.47992   0.78291   0.41823   0.00000  Uiso   1.00
C466   C     0.02007   0.71709   0.58177   0.00000  Uiso   1.00
C467   C     0.21708   0.52007   0.41823   0.00000  Uiso   1.00
C468   C     0.28292   0.97993   0.58177   0.00000  Uiso   1.00
C469   C     0.02008   0.71709   0.41823   0.00000  Uiso   1.00
C470   C     0.47992   0.78291   0.58177   0.00000  Uiso   1.00
C471   C     0.28292   0.97993   0.41823   0.00000  Uiso   1.00
C472   C     0.21708   0.52007   0.58177   0.00000  Uiso   1.00
C473   C     0.22991   0.53291   0.91823   0.00000  Uiso   1.00
C474   C    -0.00000   0.75000   0.85589   0.00000  Uiso   1.00
C475   C     0.27008   0.96709   0.08177   0.00000  Uiso   1.00
C476   C     0.46708   0.77007   0.91823   0.00000  Uiso   1.00
C477   C     0.03291   0.72992   0.08177   0.00000  Uiso   1.00
C478   C     0.27008   0.96709   0.91823   0.00000  Uiso   1.00
C479   C     0.22991   0.53291   0.08177   0.00000  Uiso   1.00
C480   C     0.03291   0.72992   0.91823   0.00000  Uiso   1.00
C481   C     0.46708   0.77007   0.08177   0.00000  Uiso   1.00
C482   C     0.00000   0.75000   0.39817   0.00000  Uiso   1.00
C483   C    -0.00000   0.75000   0.60183   0.00000  Uiso   1.00
C484   C     0.25000   0.50000   0.39817   0.00000  Uiso   1.00
C485   C    -0.00000   0.75000   0.14411   0.00000  Uiso   1.00
C486   C     0.25000   0.50000   0.60183   0.00000  Uiso   1.00
C487   C     0.25000   0.50000   0.89817   0.00000  Uiso   1.00
C488   C     0.25000   0.50000   0.10183   0.00000  Uiso   1.00
C489   C     0.00000   0.75000   0.89817   0.00000  Uiso   1.00
C490   C    -0.00000   0.75000   0.10183   0.00000  Uiso   1.00
C491   C     0.02031   0.71712   0.45901   0.00000  Uiso   1.00
C492   C     0.47969   0.78288   0.54099   0.00000  Uiso   1.00
C493   C     0.28288   0.97970   0.45901   0.00000  Uiso   1.00
C494   C     0.21711   0.52030   0.54099   0.00000  Uiso   1.00
C495   C     0.47969   0.78288   0.45901   0.00000  Uiso   1.00
C496   C     0.25000   0.50000   0.85589   0.00000  Uiso   1.00
C497   C     0.02031   0.71712   0.54099   0.00000  Uiso   1.00
C498   C     0.21711   0.52030   0.45901   0.00000  Uiso   1.00
C499   C     0.28288   0.97970   0.54099   0.00000  Uiso   1.00
C500   C     0.27032   0.96713   0.95901   0.00000  Uiso   1.00
C501   C     0.22968   0.53287   0.04099   0.00000  Uiso   1.00
C502   C     0.03288   0.72969   0.95901   0.00000  Uiso   1.00
C503   C     0.46712   0.77031   0.04099   0.00000  Uiso   1.00
C504   C     0.22968   0.53287   0.95901   0.00000  Uiso   1.00
C505   C     0.27032   0.96713   0.04099   0.00000  Uiso   1.00
C506   C     0.46712   0.77031   0.95901   0.00000  Uiso   1.00
C507   C     0.25000   0.50000   0.14411   0.00000  Uiso   1.00
C508   C     0.03288   0.72969   0.04099   0.00000  Uiso   1.00
C509   C     0.00000   0.75000   0.47946   0.00000  Uiso   1.00
C510   C    -0.00000   0.75000   0.52054   0.00000  Uiso   1.00
C511   C     0.25000   0.50000   0.47946   0.00000  Uiso   1.00
C512   C     0.25000   0.50000   0.52054   0.00000  Uiso   1.00
C513   C     0.25000   0.50000   0.97946   0.00000  Uiso   1.00
C514   C     0.25000   0.50000   0.02054   0.00000  Uiso   1.00
C515   C     0.00000   0.75000   0.97946   0.00000  Uiso   1.00
C516   C    -0.00000   0.75000   0.02054   0.00000  Uiso   1.00
C517   C     0.04032   0.68494   0.47990   0.00000  Uiso   1.00
C518   C     0.16998   0.58002   0.25000   0.00000  Uiso   1.00
C519   C     0.45968   0.81506   0.52010   0.00000  Uiso   1.00
C520   C     0.31507   0.95970   0.47990   0.00000  Uiso   1.00
C521   C     0.18493   0.54030   0.52010   0.00000  Uiso   1.00
C522   C     0.45968   0.81506   0.47990   0.00000  Uiso   1.00
C523   C     0.04032   0.68494   0.52010   0.00000  Uiso   1.00
C524   C     0.18493   0.54030   0.47990   0.00000  Uiso   1.00
C525   C     0.31507   0.95970   0.52010   0.00000  Uiso   1.00
C526   C     0.29034   0.93495   0.97990   0.00000  Uiso   1.00
C527   C     0.20966   0.56505   0.02010   0.00000  Uiso   1.00
C528   C     0.06506   0.70968   0.97990   0.00000  Uiso   1.00
H529   H     0.05640   0.65931   0.46559   0.00000  Uiso   1.00
H530   H     0.19357   0.59067   0.03441   0.00000  Uiso   1.00
H531   H     0.09069   0.69360   0.96559   0.00000  Uiso   1.00
H532   H     0.40931   0.80640   0.03441   0.00000  Uiso   1.00
H533   H     0.19357   0.59067   0.96559   0.00000  Uiso   1.00
H534   H     0.30643   0.90933   0.03441   0.00000  Uiso   1.00
H535   H     0.40931   0.80640   0.96559   0.00000  Uiso   1.00
H536   H     0.09069   0.69360   0.03441   0.00000  Uiso   1.00
H537   H     0.44360   0.84069   0.53441   0.00000  Uiso   1.00
H538   H     0.34070   0.94363   0.46559   0.00000  Uiso   1.00
H539   H     0.15930   0.55637   0.53441   0.00000  Uiso   1.00
H540   H     0.44360   0.84069   0.46559   0.00000  Uiso   1.00
H541   H     0.05640   0.65931   0.53441   0.00000  Uiso   1.00
H542   H     0.15930   0.55637   0.46559   0.00000  Uiso   1.00
H543   H     0.34070   0.94363   0.53441   0.00000  Uiso   1.00
H544   H     0.30643   0.90933   0.96559   0.00000  Uiso   1.00
O545   O     0.25000   0.50000   0.25000   0.00000  Uiso   1.00
O546   O     0.25000   0.96538   0.66251   0.00000  Uiso   1.00
O547   O     0.46538   0.75000   0.33749   0.00000  Uiso   1.00
O548   O     0.03461   0.75000   0.66251   0.00000  Uiso   1.00
O549   O    -0.00000   0.71538   0.83749   0.00000  Uiso   1.00
O550   O     0.00000   0.78461   0.16251   0.00000  Uiso   1.00
O551   O     0.28461   0.50000   0.83749   0.00000  Uiso   1.00
O552   O     0.21538   0.50000   0.16251   0.00000  Uiso   1.00
O553   O     0.00000   0.78461   0.83749   0.00000  Uiso   1.00
O554   O    -0.00000   0.71538   0.16251   0.00000  Uiso   1.00
O555   O     0.21538   0.50000   0.83749   0.00000  Uiso   1.00
O556   O     0.25000   0.50000   0.75000   0.00000  Uiso   1.00
O557   O     0.28461   0.50000   0.16251   0.00000  Uiso   1.00
O558   O     0.20126   0.58332   0.27298   0.00000  Uiso   1.00
O559   O     0.29873   0.91668   0.72702   0.00000  Uiso   1.00
O560   O     0.41668   0.70126   0.27298   0.00000  Uiso   1.00
O561   O     0.08332   0.79873   0.72702   0.00000  Uiso   1.00
O562   O     0.29873   0.91668   0.27298   0.00000  Uiso   1.00
O563   O     0.20126   0.58332   0.72702   0.00000  Uiso   1.00
O564   O     0.08332   0.79873   0.27298   0.00000  Uiso   1.00
O565   O     0.41668   0.70126   0.72702   0.00000  Uiso   1.00
O566   O     0.20126   0.91668   0.72702   0.00000  Uiso   1.00
O567   O    -0.00000   0.75000   0.25000   0.00000  Uiso   1.00
O568   O     0.29873   0.58332   0.27298   0.00000  Uiso   1.00
O569   O     0.41668   0.79873   0.72702   0.00000  Uiso   1.00
O570   O     0.08332   0.70126   0.27298   0.00000  Uiso   1.00
O571   O     0.29873   0.58332   0.72702   0.00000  Uiso   1.00
O572   O     0.20126   0.91668   0.27298   0.00000  Uiso   1.00
O573   O     0.08332   0.70126   0.72702   0.00000  Uiso   1.00
O574   O     0.41668   0.79873   0.27298   0.00000  Uiso   1.00
O575   O     0.45126   0.83332   0.77298   0.00000  Uiso   1.00
O576   O     0.04873   0.66668   0.22702   0.00000  Uiso   1.00
O577   O     0.16668   0.95126   0.77298   0.00000  Uiso   1.00
O578   O    -0.00000   0.75000   0.75000   0.00000  Uiso   1.00
O579   O     0.33332   0.54874   0.22702   0.00000  Uiso   1.00
O580   O     0.04873   0.66668   0.77298   0.00000  Uiso   1.00
O581   O     0.45126   0.83332   0.22702   0.00000  Uiso   1.00
O582   O     0.33332   0.54874   0.77298   0.00000  Uiso   1.00
O583   O     0.16668   0.95126   0.22702   0.00000  Uiso   1.00
O584   O     0.45126   0.66668   0.22702   0.00000  Uiso   1.00
O585   O     0.04873   0.83332   0.77298   0.00000  Uiso   1.00
O586   O     0.16668   0.54874   0.22702   0.00000  Uiso   1.00
O587   O     0.33332   0.95126   0.77298   0.00000  Uiso   1.00
O588   O     0.04873   0.83332   0.22702   0.00000  Uiso   1.00
O589   O     0.25000   0.96538   0.33749   0.00000  Uiso   1.00
O590   O     0.45126   0.66668   0.77298   0.00000  Uiso   1.00
O591   O     0.33332   0.95126   0.22702   0.00000  Uiso   1.00
O592   O     0.16668   0.54874   0.77298   0.00000  Uiso   1.00
O593   O     0.25000   0.53462   0.66251   0.00000  Uiso   1.00
O594   O     0.03461   0.75000   0.33749   0.00000  Uiso   1.00
O595   O     0.46538   0.75000   0.66251   0.00000  Uiso   1.00
O596   O     0.25000   0.53462   0.33749   0.00000  Uiso   1.00
Zn597  Zn    0.20052   0.50000   0.21730   0.00000  Uiso   1.00
Zn598  Zn    0.04947   0.75000   0.28270   0.00000  Uiso   1.00
Zn599  Zn    0.25000   0.95052   0.71730   0.00000  Uiso   1.00
Zn600  Zn    0.25000   0.54948   0.28270   0.00000  Uiso   1.00
Zn601  Zn    0.04947   0.75000   0.71730   0.00000  Uiso   1.00
Zn602  Zn    0.45052   0.75000   0.28270   0.00000  Uiso   1.00
Zn603  Zn    0.25000   0.54948   0.71730   0.00000  Uiso   1.00
Zn604  Zn    0.25000   0.95052   0.28270   0.00000  Uiso   1.00
Zn605  Zn    0.29947   0.50000   0.78270   0.00000  Uiso   1.00
Zn606  Zn    0.00000   0.70052   0.21730   0.00000  Uiso   1.00
Zn607  Zn   -0.00000   0.79947   0.78270   0.00000  Uiso   1.00
Zn608  Zn    0.29947   0.50000   0.21730   0.00000  Uiso   1.00
Zn609  Zn    0.20052   0.50000   0.78270   0.00000  Uiso   1.00
Zn610  Zn   -0.00000   0.79947   0.21730   0.00000  Uiso   1.00
Zn611  Zn   -0.00000   0.70052   0.78270   0.00000  Uiso   1.00
Zn612  Zn    0.45052   0.75000   0.71730   0.00000  Uiso   1.00
Br613  Br    0.95466   0.82875   0.38928   0.00000  Uiso   1.00
Br614  Br    0.79536   0.92126   0.11072   0.00000  Uiso   1.00
Br615  Br    0.92125   0.79534   0.88928   0.00000  Uiso   1.00
Br616  Br    0.57875   0.70466   0.11072   0.00000  Uiso   1.00
Br617  Br    0.79536   0.92126   0.88928   0.00000  Uiso   1.00
Br618  Br    0.70464   0.57874   0.11072   0.00000  Uiso   1.00
Br619  Br    0.57875   0.70466   0.88928   0.00000  Uiso   1.00
Br620  Br    0.92125   0.79534   0.11072   0.00000  Uiso   1.00
Br621  Br    0.54534   0.67125   0.61072   0.00000  Uiso   1.00
Br622  Br    0.67124   0.54532   0.38928   0.00000  Uiso   1.00
Br623  Br    0.82876   0.95468   0.61072   0.00000  Uiso   1.00
Br624  Br    0.54534   0.67125   0.38928   0.00000  Uiso   1.00
Br625  Br    0.95466   0.82875   0.61072   0.00000  Uiso   1.00
Br626  Br    0.82876   0.95468   0.38928   0.00000  Uiso   1.00
Br627  Br    0.67124   0.54532   0.61072   0.00000  Uiso   1.00
Br628  Br    0.70464   0.57874   0.88928   0.00000  Uiso   1.00
C629   C     0.75000   0.50000   0.35589   0.00000  Uiso   1.00
C630   C     0.83002   0.91998   0.75000   0.00000  Uiso   1.00
C631   C     0.93494   0.79032   0.02010   0.00000  Uiso   1.00
C632   C     0.70966   0.56505   0.97990   0.00000  Uiso   1.00
C633   C     0.79034   0.93495   0.02010   0.00000  Uiso   1.00
C634   C     0.93494   0.79032   0.97990   0.00000  Uiso   1.00
C635   C     0.56506   0.70968   0.02010   0.00000  Uiso   1.00
C636   C     0.91998   0.66998   0.25000   0.00000  Uiso   1.00
C637   C     0.58002   0.83002   0.75000   0.00000  Uiso   1.00
C638   C     0.83002   0.91998   0.25000   0.00000  Uiso   1.00
C639   C     0.66998   0.58002   0.75000   0.00000  Uiso   1.00
C640   C     0.58002   0.83002   0.25000   0.00000  Uiso   1.00
C641   C     0.91998   0.66998   0.75000   0.00000  Uiso   1.00
C642   C     0.66998   0.91998   0.75000   0.00000  Uiso   1.00
C643   C     0.83002   0.58002   0.25000   0.00000  Uiso   1.00
C644   C     0.91998   0.83002   0.75000   0.00000  Uiso   1.00
C645   C     0.75000   0.50000   0.64411   0.00000  Uiso   1.00
C646   C     0.58002   0.66998   0.25000   0.00000  Uiso   1.00
C647   C     0.83002   0.58002   0.75000   0.00000  Uiso   1.00
C648   C     0.66998   0.91998   0.25000   0.00000  Uiso   1.00
C649   C     0.58002   0.66998   0.75000   0.00000  Uiso   1.00
C650   C     0.91998   0.83002   0.25000   0.00000  Uiso   1.00
C651   C     0.63833   0.88833   0.25000   0.00000  Uiso   1.00
C652   C     0.86167   0.61167   0.75000   0.00000  Uiso   1.00
C653   C     0.61167   0.63833   0.25000   0.00000  Uiso   1.00
C654   C     0.88833   0.86167   0.75000   0.00000  Uiso   1.00
C655   C     0.86167   0.61167   0.25000   0.00000  Uiso   1.00
C656   C     0.50000   0.75000   0.35589   0.00000  Uiso   1.00
C657   C     0.63833   0.88833   0.75000   0.00000  Uiso   1.00
C658   C     0.88833   0.86167   0.25000   0.00000  Uiso   1.00
C659   C     0.61167   0.63833   0.75000   0.00000  Uiso   1.00
C660   C     0.63833   0.61167   0.75000   0.00000  Uiso   1.00
C661   C     0.86167   0.88833   0.25000   0.00000  Uiso   1.00
C662   C     0.61167   0.86167   0.75000   0.00000  Uiso   1.00
C663   C     0.88833   0.63833   0.25000   0.00000  Uiso   1.00
C664   C     0.86167   0.88833   0.75000   0.00000  Uiso   1.00
C665   C     0.63833   0.61167   0.25000   0.00000  Uiso   1.00
C666   C     0.88833   0.63833   0.75000   0.00000  Uiso   1.00
C667   C     0.50000   0.75000   0.64411   0.00000  Uiso   1.00
C668   C     0.61167   0.86167   0.25000   0.00000  Uiso   1.00
C669   C     0.97992   0.78291   0.41823   0.00000  Uiso   1.00
C670   C     0.52007   0.71709   0.58177   0.00000  Uiso   1.00
C671   C     0.71708   0.52007   0.41823   0.00000  Uiso   1.00
C672   C     0.78292   0.97993   0.58177   0.00000  Uiso   1.00
C673   C     0.52008   0.71709   0.41823   0.00000  Uiso   1.00
C674   C     0.97992   0.78291   0.58177   0.00000  Uiso   1.00
C675   C     0.78292   0.97993   0.41823   0.00000  Uiso   1.00
C676   C     0.71708   0.52007   0.58177   0.00000  Uiso   1.00
C677   C     0.72991   0.53291   0.91823   0.00000  Uiso   1.00
C678   C     0.50000   0.75000   0.85589   0.00000  Uiso   1.00
C679   C     0.77008   0.96709   0.08177   0.00000  Uiso   1.00
C680   C     0.96708   0.77007   0.91823   0.00000  Uiso   1.00
C681   C     0.53291   0.72992   0.08177   0.00000  Uiso   1.00
C682   C     0.77008   0.96709   0.91823   0.00000  Uiso   1.00
C683   C     0.72991   0.53291   0.08177   0.00000  Uiso   1.00
C684   C     0.53291   0.72992   0.91823   0.00000  Uiso   1.00
C685   C     0.96708   0.77007   0.08177   0.00000  Uiso   1.00
C686   C     0.50000   0.75000   0.39817   0.00000  Uiso   1.00
C687   C     0.50000   0.75000   0.60183   0.00000  Uiso   1.00
C688   C     0.75000   0.50000   0.39817   0.00000  Uiso   1.00
C689   C     0.50000   0.75000   0.14411   0.00000  Uiso   1.00
C690   C     0.75000   0.50000   0.60183   0.00000  Uiso   1.00
C691   C     0.75000   0.50000   0.89817   0.00000  Uiso   1.00
C692   C     0.75000   0.50000   0.10183   0.00000  Uiso   1.00
C693   C     0.50000   0.75000   0.89817   0.00000  Uiso   1.00
C694   C     0.50000   0.75000   0.10183   0.00000  Uiso   1.00
C695   C     0.52031   0.71712   0.45901   0.00000  Uiso   1.00
C696   C     0.97969   0.78288   0.54099   0.00000  Uiso   1.00
C697   C     0.78288   0.97970   0.45901   0.00000  Uiso   1.00
C698   C     0.71711   0.52030   0.54099   0.00000  Uiso   1.00
C699   C     0.97969   0.78288   0.45901   0.00000  Uiso   1.00
C700   C     0.75000   0.50000   0.85589   0.00000  Uiso   1.00
C701   C     0.52031   0.71712   0.54099   0.00000  Uiso   1.00
C702   C     0.71711   0.52030   0.45901   0.00000  Uiso   1.00
C703   C     0.78288   0.97970   0.54099   0.00000  Uiso   1.00
C704   C     0.77032   0.96713   0.95901   0.00000  Uiso   1.00
C705   C     0.72968   0.53287   0.04099   0.00000  Uiso   1.00
C706   C     0.53288   0.72969   0.95901   0.00000  Uiso   1.00
C707   C     0.96712   0.77031   0.04099   0.00000  Uiso   1.00
C708   C     0.72968   0.53287   0.95901   0.00000  Uiso   1.00
C709   C     0.77032   0.96713   0.04099   0.00000  Uiso   1.00
C710   C     0.96712   0.77031   0.95901   0.00000  Uiso   1.00
C711   C     0.75000   0.50000   0.14411   0.00000  Uiso   1.00
C712   C     0.53288   0.72969   0.04099   0.00000  Uiso   1.00
C713   C     0.50000   0.75000   0.47946   0.00000  Uiso   1.00
C714   C     0.50000   0.75000   0.52054   0.00000  Uiso   1.00
C715   C     0.75000   0.50000   0.47946   0.00000  Uiso   1.00
C716   C     0.75000   0.50000   0.52054   0.00000  Uiso   1.00
C717   C     0.75000   0.50000   0.97946   0.00000  Uiso   1.00
C718   C     0.75000   0.50000   0.02054   0.00000  Uiso   1.00
C719   C     0.50000   0.75000   0.97946   0.00000  Uiso   1.00
C720   C     0.50000   0.75000   0.02054   0.00000  Uiso   1.00
C721   C     0.54032   0.68494   0.47990   0.00000  Uiso   1.00
C722   C     0.66998   0.58002   0.25000   0.00000  Uiso   1.00
C723   C     0.95968   0.81506   0.52010   0.00000  Uiso   1.00
C724   C     0.81507   0.95970   0.47990   0.00000  Uiso   1.00
C725   C     0.68493   0.54030   0.52010   0.00000  Uiso   1.00
C726   C     0.95968   0.81506   0.47990   0.00000  Uiso   1.00
C727   C     0.54032   0.68494   0.52010   0.00000  Uiso   1.00
C728   C     0.68493   0.54030   0.47990   0.00000  Uiso   1.00
C729   C     0.81507   0.95970   0.52010   0.00000  Uiso   1.00
C730   C     0.79034   0.93495   0.97990   0.00000  Uiso   1.00
C731   C     0.70966   0.56505   0.02010   0.00000  Uiso   1.00
C732   C     0.56506   0.70968   0.97990   0.00000  Uiso   1.00
H733   H     0.55640   0.65931   0.46559   0.00000  Uiso   1.00
H734   H     0.69357   0.59067   0.03441   0.00000  Uiso   1.00
H735   H     0.59069   0.69360   0.96559   0.00000  Uiso   1.00
H736   H     0.90931   0.80640   0.03441   0.00000  Uiso   1.00
H737   H     0.69357   0.59067   0.96559   0.00000  Uiso   1.00
H738   H     0.80643   0.90933   0.03441   0.00000  Uiso   1.00
H739   H     0.90931   0.80640   0.96559   0.00000  Uiso   1.00
H740   H     0.59069   0.69360   0.03441   0.00000  Uiso   1.00
H741   H     0.94360   0.84069   0.53441   0.00000  Uiso   1.00
H742   H     0.84070   0.94363   0.46559   0.00000  Uiso   1.00
H743   H     0.65930   0.55637   0.53441   0.00000  Uiso   1.00
H744   H     0.94360   0.84069   0.46559   0.00000  Uiso   1.00
H745   H     0.55640   0.65931   0.53441   0.00000  Uiso   1.00
H746   H     0.65930   0.55637   0.46559   0.00000  Uiso   1.00
H747   H     0.84070   0.94363   0.53441   0.00000  Uiso   1.00
H748   H     0.80643   0.90933   0.96559   0.00000  Uiso   1.00
O749   O     0.75000   0.50000   0.25000   0.00000  Uiso   1.00
O750   O     0.75000   0.96538   0.66251   0.00000  Uiso   1.00
O751   O     0.96538   0.75000   0.33749   0.00000  Uiso   1.00
O752   O     0.53461   0.75000   0.66251   0.00000  Uiso   1.00
O753   O     0.50000   0.71538   0.83749   0.00000  Uiso   1.00
O754   O     0.50000   0.78461   0.16251   0.00000  Uiso   1.00
O755   O     0.78461   0.50000   0.83749   0.00000  Uiso   1.00
O756   O     0.71538   0.50000   0.16251   0.00000  Uiso   1.00
O757   O     0.50000   0.78461   0.83749   0.00000  Uiso   1.00
O758   O     0.50000   0.71538   0.16251   0.00000  Uiso   1.00
O759   O     0.71538   0.50000   0.83749   0.00000  Uiso   1.00
O760   O     0.75000   0.50000   0.75000   0.00000  Uiso   1.00
O761   O     0.78461   0.50000   0.16251   0.00000  Uiso   1.00
O762   O     0.70126   0.58332   0.27298   0.00000  Uiso   1.00
O763   O     0.79873   0.91668   0.72702   0.00000  Uiso   1.00
O764   O     0.91668   0.70126   0.27298   0.00000  Uiso   1.00
O765   O     0.58332   0.79873   0.72702   0.00000  Uiso   1.00
O766   O     0.79873   0.91668   0.27298   0.00000  Uiso   1.00
O767   O     0.70126   0.58332   0.72702   0.00000  Uiso   1.00
O768   O     0.58332   0.79873   0.27298   0.00000  Uiso   1.00
O769   O     0.91668   0.70126   0.72702   0.00000  Uiso   1.00
O770   O     0.70126   0.91668   0.72702   0.00000  Uiso   1.00
O771   O     0.50000   0.75000   0.25000   0.00000  Uiso   1.00
O772   O     0.79873   0.58332   0.27298   0.00000  Uiso   1.00
O773   O     0.91668   0.79873   0.72702   0.00000  Uiso   1.00
O774   O     0.58332   0.70126   0.27298   0.00000  Uiso   1.00
O775   O     0.79873   0.58332   0.72702   0.00000  Uiso   1.00
O776   O     0.70126   0.91668   0.27298   0.00000  Uiso   1.00
O777   O     0.58332   0.70126   0.72702   0.00000  Uiso   1.00
O778   O     0.91668   0.79873   0.27298   0.00000  Uiso   1.00
O779   O     0.95126   0.83332   0.77298   0.00000  Uiso   1.00
O780   O     0.54873   0.66668   0.22702   0.00000  Uiso   1.00
O781   O     0.66668   0.95126   0.77298   0.00000  Uiso   1.00
O782   O     0.50000   0.75000   0.75000   0.00000  Uiso   1.00
O783   O     0.83332   0.54874   0.22702   0.00000  Uiso   1.00
O784   O     0.54873   0.66668   0.77298   0.00000  Uiso   1.00
O785   O     0.95126   0.83332   0.22702   0.00000  Uiso   1.00
O786   O     0.83332   0.54874   0.77298   0.00000  Uiso   1.00
O787   O     0.66668   0.95126   0.22702   0.00000  Uiso   1.00
O788   O     0.95126   0.66668   0.22702   0.00000  Uiso   1.00
O789   O     0.54873   0.83332   0.77298   0.00000  Uiso   1.00
O790   O     0.66668   0.54874   0.22702   0.00000  Uiso   1.00
O791   O     0.83332   0.95126   0.77298   0.00000  Uiso   1.00
O792   O     0.54873   0.83332   0.22702   0.00000  Uiso   1.00
O793   O     0.75000   0.96538   0.33749   0.00000  Uiso   1.00
O794   O     0.95126   0.66668   0.77298   0.00000  Uiso   1.00
O795   O     0.83332   0.95126   0.22702   0.00000  Uiso   1.00
O796   O     0.66668   0.54874   0.77298   0.00000  Uiso   1.00
O797   O     0.75000   0.53462   0.66251   0.00000  Uiso   1.00
O798   O     0.53461   0.75000   0.33749   0.00000  Uiso   1.00
O799   O     0.96538   0.75000   0.66251   0.00000  Uiso   1.00
O800   O     0.75000   0.53462   0.33749   0.00000  Uiso   1.00
Zn801  Zn    0.70052   0.50000   0.21730   0.00000  Uiso   1.00
Zn802  Zn    0.54947   0.75000   0.28270   0.00000  Uiso   1.00
Zn803  Zn    0.75000   0.95052   0.71730   0.00000  Uiso   1.00
Zn804  Zn    0.75000   0.54948   0.28270   0.00000  Uiso   1.00
Zn805  Zn    0.54947   0.75000   0.71730   0.00000  Uiso   1.00
Zn806  Zn    0.95052   0.75000   0.28270   0.00000  Uiso   1.00
Zn807  Zn    0.75000   0.54948   0.71730   0.00000  Uiso   1.00
Zn808  Zn    0.75000   0.95052   0.28270   0.00000  Uiso   1.00
Zn809  Zn    0.79947   0.50000   0.78270   0.00000  Uiso   1.00
Zn810  Zn    0.50000   0.70052   0.21730   0.00000  Uiso   1.00
Zn811  Zn    0.50000   0.79947   0.78270   0.00000  Uiso   1.00
Zn812  Zn    0.79947   0.50000   0.21730   0.00000  Uiso   1.00
Zn813  Zn    0.70052   0.50000   0.78270   0.00000  Uiso   1.00
Zn814  Zn    0.50000   0.79947   0.21730   0.00000  Uiso   1.00
Zn815  Zn    0.50000   0.70052   0.78270   0.00000  Uiso   1.00
Zn816  Zn    0.95052   0.75000   0.71730   0.00000  Uiso   1.00
loop_
_geom_bond_atom_site_label_1
_geom_bond_atom_site_label_2
_geom_bond_distance
_geom_bond_site_symmetry_2
_ccdc_geom_bond_type
Br1    C57     1.940   .     S
Br2    C67     1.940   .     S
Br3    C68     1.940   .     S
Br4    C69     1.940   .     S
Br5    C70     1.940   .     S
Br6    C71     1.940   .     S
Br7    C72     1.940   .     S
Br8    C73     1.940   .     S
Br9    C58     1.940   .     S
Br10   C59     1.940   .     S
Br11   C60     1.940   .     S
Br12   C61     1.940   .     S
Br13   C62     1.940   .     S
Br14   C63     1.940   .     S
Br15   C64     1.940   .     S
Br16   C65     1.940   .     S
C17    O188    1.270   .     A
C17    C76     1.459   .     S
C17    O589    1.270   1_545 S
C18    C52     1.422   .     S
C18    O179    1.276   .     A
C18    O151    1.276   .     A
C19    H124    1.080   .     S
C19    C95     1.403   .     A
C19    C22     1.387   1_554 S
C20    C96     1.403   .     A
C20    H125    1.080   .     S
C20    C119    1.387   1_556 S
C21    C97     1.403   .     A
C21    H126    1.080   .     S
C21    C118    1.387   1_554 S
C22    C98     1.403   .     A
C22    H127    1.080   .     S
C22    C19     1.387   1_556 S
C23    C100    1.403   .     A
C23    H128    1.080   .     S
C23    C120    1.387   1_554 S
C24    O152    1.276   .     A
C24    C51     1.423   .     S
C24    O176    1.276   .     A
C25    O177    1.276   .     A
C25    O153    1.276   .     A
C25    C50     1.423   .     S
C26    O183    1.276   .     A
C26    C49     1.422   .     S
C26    O154    1.276   .     A
C27    C48     1.422   .     S
C27    O155    1.276   .     A
C27    O184    1.276   .     A
C28    C56     1.423   .     S
C28    O180    1.276   .     A
C28    O156    1.276   .     A
C29    O157    1.276   .     A
C29    O182    1.276   .     A
C29    C54     1.423   .     S
C30    C45     1.423   .     S
C30    O169    1.276   .     A
C30    O158    1.276   .     A
C31    C43     1.423   .     S
C31    O160    1.276   .     A
C31    O171    1.276   .     A
C32    O161    1.276   .     A
C32    C42     1.422   .     S
C32    O167    1.276   .     A
C33    O546    1.270   1_545 A
C33    C78     1.459   .     S
C33    O185    1.270   .     S
C34    C41     1.422   .     S
C34    O168    1.276   .     A
C34    O162    1.276   .     A
C35    O163    1.276   .     A
C35    O174    1.276   .     A
C35    C40     1.423   .     S
C36    O164    1.276   .     A
C36    C39     1.423   .     S
C36    O175    1.276   .     A
C37    O172    1.276   .     A
C37    C47     1.422   .     S
C37    O165    1.276   .     A
C38    O166    1.276   .     A
C38    O173    1.276   .     A
C38    C46     1.422   .     S
C39    C56     1.199   .     T
C40    C54     1.199   .     T
C41    C53     1.198   .     T
C42    C52     1.198   .     T
C43    C51     1.199   .     T
C44    O343    1.270   1_455 A
C44    C74     1.459   .     S
C44    O186    1.270   .     S
C45    C50     1.199   .     T
C46    C49     1.198   .     T
C47    C48     1.198   .     T
C53    C110    1.422   .     S
C55    C75     1.459   .     S
C55    O391    1.270   1_455 A
C55    O140    1.270   .     S
C57    C87     1.407   .     A
C57    C278    1.407   .     S
C58    C89     1.407   .     A
C58    C75     1.407   .     S
C59    C90     1.407   .     A
C59    C76     1.407   .     A
C60    C486    1.407   .     A
C60    C91     1.407   .     A
C61    C83     1.407   .     A
C61    C74     1.407   .     A
C62    C279    1.407   .     A
C62    C84     1.407   .     A
C63    C85     1.407   .     A
C63    C484    1.407   .     S
C64    C86     1.407   .     A
C64    C78     1.407   .     S
C65    C79     1.407   .     A
C65    C96     1.407   .     A
C66    O141    1.270   .     A
C66    C81     1.459   .     S
C66    O145    1.270   .     S
C67    C97     1.407   .     A
C67    C488    1.407   .     A
C68    C98     1.407   .     A
C68    C285    1.407   .     S
C69    C100    1.407   .     A
C69    C82     1.407   .     S
C70    C92     1.407   .     A
C70    C487    1.407   .     S
C71    C93     1.407   .     A
C71    C80     1.407   .     S
C72    C81     1.407   .     A
C72    C94     1.407   .     A
C73    C286    1.407   .     A
C73    C95     1.407   .     A
C74    C261    1.407   1_455 S
C75    C266    1.407   1_455 A
C76    C471    1.407   1_545 S
C77    C82     1.459   .     S
C77    O146    1.270   .     A
C77    O142    1.270   .     S
C78    C468    1.407   1_545 A
C79    C88     1.459   .     S
C79    C478    1.407   1_545 S
C80    C99     1.459   .     S
C80    C475    1.407   1_545 A
C81    C272    1.407   1_455 S
C82    C277    1.407   1_455 A
C83    C109    1.403   .     A
C83    C101    1.416   .     A
C84    C306    1.416   .     A
C84    C111    1.403   .     A
C85    C112    1.403   .     A
C85    C511    1.416   .     A
C86    C104    1.416   .     A
C86    C113    1.403   .     A
C87    C114    1.403   .     A
C87    C305    1.416   .     S
C88    O143    1.270   .     A
C88    O147    1.270   .     A
C89    C115    1.403   .     A
C89    C102    1.416   .     S
C90    C116    1.403   .     A
C90    C103    1.416   .     S
C91    C117    1.403   .     A
C91    C512    1.416   .     S
C92    C118    1.403   .     A
C92    C513    1.416   .     S
C93    C119    1.403   .     A
C93    C106    1.416   .     S
C94    C120    1.403   .     A
C94    C107    1.416   .     A
C95    C312    1.416   .     A
C96    C105    1.416   .     A
C97    C514    1.416   .     A
C98    C311    1.416   .     S
C99    O144    1.270   .     S
C99    O149    1.270   .     S
C100   C108    1.416   .     S
C101   C291    1.416   1_455 S
C101   C102    1.417   .     S
C102   C288    1.416   1_455 A
C103   C493    1.416   1_545 A
C103   C104    1.417   .     S
C104   C499    1.416   1_545 S
C105   C500    1.416   1_545 S
C105   C106    1.417   1_556 S
C106   C505    1.416   1_545 A
C106   C105    1.417   1_554 S
C107   C302    1.416   1_455 S
C107   C108    1.417   1_556 S
C108   C299    1.416   1_455 A
C108   C107    1.417   1_554 S
C109   H121    1.080   .     S
C109   C115    1.387   .     A
C110   O178    1.276   .     A
C110   O150    1.276   .     A
C111   H129    1.080   .     S
C111   C114    1.387   .     A
C112   C117    1.387   .     A
C112   H130    1.080   .     S
C113   H131    1.080   .     S
C113   C116    1.387   .     A
C114   H132    1.080   .     S
C115   H133    1.080   .     S
C116   H134    1.080   .     S
C117   H135    1.080   .     S
C118   H136    1.080   .     S
C118   C21     1.387   1_556 S
C119   H122    1.080   .     S
C119   C20     1.387   1_554 S
C120   H123    1.080   .     S
C120   C23     1.387   1_556 S
O137   Zn192   1.935   .     S
O137   Zn200   1.935   .     S
O137   Zn189   1.935   .     S
O137   Zn604   1.935   1_545 S
O138   Zn191   1.949   .     S
O138   C441    1.270   .     A
O139   Zn194   1.949   .     S
O139   C248    1.270   .     A
O140   Zn193   1.949   .     S
O141   Zn203   1.949   .     S
O142   Zn202   1.949   .     S
O143   Zn197   1.949   .     S
O144   Zn189   1.949   .     S
O145   Zn199   1.949   .     S
O146   Zn198   1.949   .     S
O147   Zn201   1.949   .     S
O148   Zn197   1.935   .     S
O148   Zn201   1.935   .     S
O148   Zn195   1.935   .     S
O148   Zn599   1.935   1_545 S
O149   Zn200   1.949   .     S
O150   Zn192   1.915   .     S
O151   Zn191   1.915   .     S
O152   Zn194   1.916   .     S
O153   Zn193   1.916   .     S
O154   Zn196   1.915   .     S
O155   Zn195   1.915   .     S
O156   Zn190   1.916   .     S
O157   Zn204   1.916   .     S
O158   Zn191   1.916   .     S
O159   Zn398   1.935   1_455 S
O159   Zn202   1.935   .     S
O159   Zn190   1.935   .     S
O159   Zn198   1.935   .     S
O160   Zn192   1.916   .     S
O161   Zn204   1.915   .     S
O162   Zn190   1.915   .     S
O163   Zn195   1.916   .     S
O164   Zn196   1.916   .     S
O165   Zn193   1.915   .     S
O166   Zn194   1.915   .     S
O167   Zn403   1.915   .     S
O168   Zn198   1.915   .     S
O169   Zn609   1.916   .     S
O170   Zn408   1.935   1_455 S
O170   Zn199   1.935   .     S
O170   Zn203   1.935   .     S
O170   Zn193   1.935   .     S
O171   Zn200   1.916   .     S
O172   Zn203   1.915   .     S
O173   Zn406   1.915   .     S
O174   Zn197   1.916   .     S
O175   Zn597   1.916   .     S
O176   Zn402   1.916   .     S
O177   Zn199   1.916   .     S
O178   Zn189   1.915   .     S
O179   Zn605   1.915   .     S
O180   Zn202   1.916   .     S
O181   Zn196   1.949   .     S
O181   C425    1.270   .     S
O182   Zn407   1.916   .     S
O183   Zn608   1.915   .     S
O184   Zn201   1.915   .     S
O185   Zn195   1.949   .     S
O186   Zn190   1.949   .     S
O187   Zn204   1.949   .     S
O187   C259    1.270   .     A
O188   Zn192   1.949   .     S
Zn189  O583    1.916   1_545 S
Zn191  O556    1.935   .     S
Zn194  O363    1.935   .     S
Zn196  O545    1.935   .     S
Zn197  O587    1.915   1_545 S
Zn198  O380    1.916   1_455 S
Zn199  O371    1.915   1_455 S
Zn200  O591    1.915   1_545 S
Zn201  O577    1.916   1_545 S
Zn202  O377    1.915   1_455 S
Zn203  O386    1.916   1_455 S
Zn204  O374    1.935   .     S
Br205  C261    1.940   .     S
Br206  C271    1.940   .     S
Br207  C272    1.940   .     S
Br208  C273    1.940   .     S
Br209  C274    1.940   .     S
Br210  C275    1.940   .     S
Br211  C276    1.940   .     S
Br212  C277    1.940   .     S
Br213  C262    1.940   .     S
Br214  C263    1.940   .     S
Br215  C264    1.940   .     S
Br216  C265    1.940   .     S
Br217  C266    1.940   .     S
Br218  C267    1.940   .     S
Br219  C268    1.940   .     S
Br220  C269    1.940   .     S
C221   O392    1.270   .     A
C221   C280    1.459   .     S
C221   O793    1.270   1_545 S
C222   C256    1.422   .     S
C222   O383    1.276   .     A
C222   O355    1.276   .     A
C223   H328    1.080   .     S
C223   C299    1.403   .     A
C223   C226    1.387   1_554 S
C224   C300    1.403   .     A
C224   H329    1.080   .     S
C224   C323    1.387   1_556 S
C225   C301    1.403   .     A
C225   H330    1.080   .     S
C225   C322    1.387   1_554 S
C226   C302    1.403   .     A
C226   H331    1.080   .     S
C226   C223    1.387   1_556 S
C227   C304    1.403   .     A
C227   H332    1.080   .     S
C227   C324    1.387   1_554 S
C228   O356    1.276   .     A
C228   C255    1.423   .     S
C228   O380    1.276   .     A
C229   O381    1.276   .     A
C229   O357    1.276   .     A
C229   C254    1.423   .     S
C230   O387    1.276   .     A
C230   C253    1.422   .     S
C230   O358    1.276   .     A
C231   C252    1.422   .     S
C231   O359    1.276   .     A
C231   O388    1.276   .     A
C232   C260    1.423   .     S
C232   O384    1.276   .     A
C232   O360    1.276   .     A
C233   O361    1.276   .     A
C233   O386    1.276   .     A
C233   C258    1.423   .     S
C234   C249    1.423   .     S
C234   O373    1.276   .     A
C234   O362    1.276   .     A
C235   C247    1.423   .     S
C235   O364    1.276   .     A
C235   O375    1.276   .     A
C236   O365    1.276   .     A
C236   C246    1.422   .     S
C236   O371    1.276   .     A
C237   O750    1.270   1_545 A
C237   C282    1.459   .     S
C237   O389    1.270   .     S
C238   C245    1.422   .     S
C238   O372    1.276   .     A
C238   O366    1.276   .     A
C239   O367    1.276   .     A
C239   O378    1.276   .     A
C239   C244    1.423   .     S
C240   O368    1.276   .     A
C240   C243    1.423   .     S
C240   O379    1.276   .     A
C241   O376    1.276   .     A
C241   C251    1.422   .     S
C241   O369    1.276   .     A
C242   O370    1.276   .     A
C242   O377    1.276   .     A
C242   C250    1.422   .     S
C243   C260    1.199   .     T
C244   C258    1.199   .     T
C245   C257    1.198   .     T
C246   C256    1.198   .     T
C247   C255    1.199   .     T
C248   C278    1.459   .     S
C248   O390    1.270   .     S
C249   C254    1.199   .     T
C250   C253    1.198   .     T
C251   C252    1.198   .     T
C257   C314    1.422   .     S
C259   C279    1.459   .     S
C259   O344    1.270   .     S
C261   C291    1.407   .     A
C261   C74     1.407   1_655 S
C262   C293    1.407   .     A
C262   C279    1.407   .     S
C263   C294    1.407   .     A
C263   C280    1.407   .     A
C264   C690    1.407   .     A
C264   C295    1.407   .     A
C265   C287    1.407   .     A
C265   C278    1.407   .     A
C266   C75     1.407   1_655 A
C266   C288    1.407   .     A
C267   C289    1.407   .     A
C267   C688    1.407   .     S
C268   C290    1.407   .     A
C268   C282    1.407   .     S
C269   C283    1.407   .     A
C269   C300    1.407   .     A
C270   O345    1.270   .     A
C270   C285    1.459   .     S
C270   O349    1.270   .     S
C271   C301    1.407   .     A
C271   C692    1.407   .     A
C272   C302    1.407   .     A
C272   C81     1.407   1_655 S
C273   C304    1.407   .     A
C273   C286    1.407   .     S
C274   C296    1.407   .     A
C274   C691    1.407   .     S
C275   C297    1.407   .     A
C275   C284    1.407   .     S
C276   C285    1.407   .     A
C276   C298    1.407   .     A
C277   C82     1.407   1_655 A
C277   C299    1.407   .     A
C280   C675    1.407   1_545 S
C281   C286    1.459   .     S
C281   O350    1.270   .     A
C281   O346    1.270   .     S
C282   C672    1.407   1_545 A
C283   C292    1.459   .     S
C283   C682    1.407   1_545 S
C284   C303    1.459   .     S
C284   C679    1.407   1_545 A
C287   C313    1.403   .     A
C287   C305    1.416   .     A
C288   C102    1.416   1_655 A
C288   C315    1.403   .     A
C289   C316    1.403   .     A
C289   C715    1.416   .     A
C290   C308    1.416   .     A
C290   C317    1.403   .     A
C291   C318    1.403   .     A
C291   C101    1.416   1_655 S
C292   O347    1.270   .     A
C292   O351    1.270   .     A
C293   C319    1.403   .     A
C293   C306    1.416   .     S
C294   C320    1.403   .     A
C294   C307    1.416   .     S
C295   C321    1.403   .     A
C295   C716    1.416   .     S
C296   C322    1.403   .     A
C296   C717    1.416   .     S
C297   C323    1.403   .     A
C297   C310    1.416   .     S
C298   C324    1.403   .     A
C298   C311    1.416   .     A
C299   C108    1.416   1_655 A
C300   C309    1.416   .     A
C301   C718    1.416   .     A
C302   C107    1.416   1_655 S
C303   O348    1.270   .     S
C303   O353    1.270   .     S
C304   C312    1.416   .     S
C305   C306    1.417   .     S
C307   C697    1.416   1_545 A
C307   C308    1.417   .     S
C308   C703    1.416   1_545 S
C309   C704    1.416   1_545 S
C309   C310    1.417   1_556 S
C310   C709    1.416   1_545 A
C310   C309    1.417   1_554 S
C311   C312    1.417   1_556 S
C312   C311    1.417   1_554 S
C313   H325    1.080   .     S
C313   C319    1.387   .     A
C314   O382    1.276   .     A
C314   O354    1.276   .     A
C315   H333    1.080   .     S
C315   C318    1.387   .     A
C316   C321    1.387   .     A
C316   H334    1.080   .     S
C317   H335    1.080   .     S
C317   C320    1.387   .     A
C318   H336    1.080   .     S
C319   H337    1.080   .     S
C320   H338    1.080   .     S
C321   H339    1.080   .     S
C322   H340    1.080   .     S
C322   C225    1.387   1_556 S
C323   H326    1.080   .     S
C323   C224    1.387   1_554 S
C324   H327    1.080   .     S
C324   C227    1.387   1_556 S
O341   Zn396   1.935   .     S
O341   Zn404   1.935   .     S
O341   Zn393   1.935   .     S
O341   Zn808   1.935   1_545 S
O342   Zn395   1.949   .     S
O342   C645    1.270   .     A
O343   Zn398   1.949   .     S
O343   C44     1.270   1_655 A
O344   Zn397   1.949   .     S
O345   Zn407   1.949   .     S
O346   Zn406   1.949   .     S
O347   Zn401   1.949   .     S
O348   Zn393   1.949   .     S
O349   Zn403   1.949   .     S
O350   Zn402   1.949   .     S
O351   Zn405   1.949   .     S
O352   Zn401   1.935   .     S
O352   Zn405   1.935   .     S
O352   Zn399   1.935   .     S
O352   Zn803   1.935   1_545 S
O353   Zn404   1.949   .     S
O354   Zn396   1.915   .     S
O355   Zn395   1.915   .     S
O356   Zn398   1.916   .     S
O357   Zn397   1.916   .     S
O358   Zn400   1.915   .     S
O359   Zn399   1.915   .     S
O360   Zn394   1.916   .     S
O361   Zn408   1.916   .     S
O362   Zn395   1.916   .     S
O363   Zn406   1.935   .     S
O363   Zn394   1.935   .     S
O363   Zn402   1.935   .     S
O364   Zn396   1.916   .     S
O365   Zn408   1.915   .     S
O366   Zn394   1.915   .     S
O367   Zn399   1.916   .     S
O368   Zn400   1.916   .     S
O369   Zn397   1.915   .     S
O370   Zn398   1.915   .     S
O371   Zn199   1.915   1_655 S
O372   Zn402   1.915   .     S
O373   Zn813   1.916   .     S
O374   Zn403   1.935   .     S
O374   Zn407   1.935   .     S
O374   Zn397   1.935   .     S
O375   Zn404   1.916   .     S
O376   Zn407   1.915   .     S
O377   Zn202   1.915   1_655 S
O378   Zn401   1.916   .     S
O379   Zn801   1.916   .     S
O380   Zn198   1.916   1_655 S
O381   Zn403   1.916   .     S
O382   Zn393   1.915   .     S
O383   Zn809   1.915   .     S
O384   Zn406   1.916   .     S
O385   Zn400   1.949   .     S
O385   C629    1.270   .     S
O386   Zn203   1.916   1_655 S
O387   Zn812   1.915   .     S
O388   Zn405   1.915   .     S
O389   Zn399   1.949   .     S
O390   Zn394   1.949   .     S
O391   Zn408   1.949   .     S
O391   C55     1.270   1_655 A
O392   Zn396   1.949   .     S
Zn393  O787    1.916   1_545 S
Zn395  O760    1.935   .     S
Zn398  O159    1.935   1_655 S
Zn400  O749    1.935   .     S
Zn401  O791    1.915   1_545 S
Zn404  O795    1.915   1_545 S
Zn405  O781    1.916   1_545 S
Zn408  O170    1.935   1_655 S
Br409  C465    1.940   .     S
Br410  C475    1.940   .     S
Br411  C476    1.940   .     S
Br412  C477    1.940   .     S
Br413  C478    1.940   .     S
Br414  C479    1.940   .     S
Br415  C480    1.940   .     S
Br416  C481    1.940   .     S
Br417  C466    1.940   .     S
Br418  C467    1.940   .     S
Br419  C468    1.940   .     S
Br420  C469    1.940   .     S
Br421  C470    1.940   .     S
Br422  C471    1.940   .     S
Br423  C472    1.940   .     S
Br424  C473    1.940   .     S
C425   O596    1.270   .     A
C425   C484    1.459   .     S
C426   C460    1.422   .     S
C426   O587    1.276   .     A
C426   O559    1.276   .     A
C427   H532    1.080   .     S
C427   C503    1.403   .     A
C427   C430    1.387   1_554 S
C428   C504    1.403   .     A
C428   H533    1.080   .     S
C428   C527    1.387   1_556 S
C429   C505    1.403   .     A
C429   H534    1.080   .     S
C429   C526    1.387   1_554 S
C430   C506    1.403   .     A
C430   H535    1.080   .     S
C430   C427    1.387   1_556 S
C431   C508    1.403   .     A
C431   H536    1.080   .     S
C431   C528    1.387   1_554 S
C432   O560    1.276   .     A
C432   C459    1.423   .     S
C432   O584    1.276   .     A
C433   O585    1.276   .     A
C433   O561    1.276   .     A
C433   C458    1.423   .     S
C434   O591    1.276   .     A
C434   C457    1.422   .     S
C434   O562    1.276   .     A
C435   C456    1.422   .     S
C435   O563    1.276   .     A
C435   O592    1.276   .     A
C436   C464    1.423   .     S
C436   O588    1.276   .     A
C436   O564    1.276   .     A
C437   O565    1.276   .     A
C437   O590    1.276   .     A
C437   C462    1.423   .     S
C438   C453    1.423   .     S
C438   O577    1.276   .     A
C438   O566    1.276   .     A
C439   C451    1.423   .     S
C439   O568    1.276   .     A
C439   O579    1.276   .     A
C440   O569    1.276   .     A
C440   C450    1.422   .     S
C440   O575    1.276   .     A
C441   C486    1.459   .     S
C441   O593    1.270   .     S
C442   C449    1.422   .     S
C442   O576    1.276   .     A
C442   O570    1.276   .     A
C443   O571    1.276   .     A
C443   O582    1.276   .     A
C443   C448    1.423   .     S
C444   O572    1.276   .     A
C444   C447    1.423   .     S
C444   O583    1.276   .     A
C445   O580    1.276   .     A
C445   C455    1.422   .     S
C445   O573    1.276   .     A
C446   O574    1.276   .     A
C446   O581    1.276   .     A
C446   C454    1.422   .     S
C447   C464    1.199   .     T
C448   C462    1.199   .     T
C449   C461    1.198   .     T
C450   C460    1.198   .     T
C451   C459    1.199   .     T
C452   O751    1.270   1_455 A
C452   C482    1.459   .     S
C452   O594    1.270   .     S
C453   C458    1.199   .     T
C454   C457    1.198   .     T
C455   C456    1.198   .     T
C461   C518    1.422   .     S
C463   C483    1.459   .     S
C463   O799    1.270   1_455 A
C463   O548    1.270   .     S
C465   C495    1.407   .     A
C465   C686    1.407   .     S
C466   C497    1.407   .     A
C466   C483    1.407   .     S
C467   C498    1.407   .     A
C467   C484    1.407   .     A
C468   C78     1.407   1_565 A
C468   C499    1.407   .     A
C469   C491    1.407   .     A
C469   C482    1.407   .     A
C470   C687    1.407   .     A
C470   C492    1.407   .     A
C471   C493    1.407   .     A
C471   C76     1.407   1_565 S
C472   C494    1.407   .     A
C472   C486    1.407   .     S
C473   C487    1.407   .     A
C473   C504    1.407   .     A
C474   O549    1.270   .     A
C474   C489    1.459   .     S
C474   O553    1.270   .     S
C475   C505    1.407   .     A
C475   C80     1.407   1_565 A
C476   C506    1.407   .     A
C476   C693    1.407   .     S
C477   C508    1.407   .     A
C477   C490    1.407   .     S
C478   C500    1.407   .     A
C478   C79     1.407   1_565 S
C479   C501    1.407   .     A
C479   C488    1.407   .     S
C480   C489    1.407   .     A
C480   C502    1.407   .     A
C481   C694    1.407   .     A
C481   C503    1.407   .     A
C482   C669    1.407   1_455 S
C483   C674    1.407   1_455 A
C485   C490    1.459   .     S
C485   O554    1.270   .     A
C485   O550    1.270   .     S
C487   C496    1.459   .     S
C488   C507    1.459   .     S
C489   C680    1.407   1_455 S
C490   C685    1.407   1_455 A
C491   C517    1.403   .     A
C491   C509    1.416   .     A
C492   C714    1.416   .     A
C492   C519    1.403   .     A
C493   C520    1.403   .     A
C493   C103    1.416   1_565 A
C494   C512    1.416   .     A
C494   C521    1.403   .     A
C495   C522    1.403   .     A
C495   C713    1.416   .     S
C496   O551    1.270   .     A
C496   O555    1.270   .     A
C497   C523    1.403   .     A
C497   C510    1.416   .     S
C498   C524    1.403   .     A
C498   C511    1.416   .     S
C499   C525    1.403   .     A
C499   C104    1.416   1_565 S
C500   C526    1.403   .     A
C500   C105    1.416   1_565 S
C501   C527    1.403   .     A
C501   C514    1.416   .     S
C502   C528    1.403   .     A
C502   C515    1.416   .     A
C503   C720    1.416   .     A
C504   C513    1.416   .     A
C505   C106    1.416   1_565 A
C506   C719    1.416   .     S
C507   O552    1.270   .     S
C507   O557    1.270   .     S
C508   C516    1.416   .     S
C509   C699    1.416   1_455 S
C509   C510    1.417   .     S
C510   C696    1.416   1_455 A
C511   C512    1.417   .     S
C513   C514    1.417   1_556 S
C514   C513    1.417   1_554 S
C515   C710    1.416   1_455 S
C515   C516    1.417   1_556 S
C516   C707    1.416   1_455 A
C516   C515    1.417   1_554 S
C517   H529    1.080   .     S
C517   C523    1.387   .     A
C518   O586    1.276   .     A
C518   O558    1.276   .     A
C519   H537    1.080   .     S
C519   C522    1.387   .     A
C520   C525    1.387   .     A
C520   H538    1.080   .     S
C521   H539    1.080   .     S
C521   C524    1.387   .     A
C522   H540    1.080   .     S
C523   H541    1.080   .     S
C524   H542    1.080   .     S
C525   H543    1.080   .     S
C526   H544    1.080   .     S
C526   C429    1.387   1_556 S
C527   H530    1.080   .     S
C527   C428    1.387   1_554 S
C528   H531    1.080   .     S
C528   C431    1.387   1_556 S
O545   Zn600   1.935   .     S
O545   Zn608   1.935   .     S
O545   Zn597   1.935   .     S
O546   Zn599   1.949   .     S
O546   C33     1.270   1_565 A
O547   Zn602   1.949   .     S
O547   C656    1.270   .     A
O548   Zn601   1.949   .     S
O549   Zn611   1.949   .     S
O550   Zn610   1.949   .     S
O551   Zn605   1.949   .     S
O552   Zn597   1.949   .     S
O553   Zn607   1.949   .     S
O554   Zn606   1.949   .     S
O555   Zn609   1.949   .     S
O556   Zn605   1.935   .     S
O556   Zn609   1.935   .     S
O556   Zn603   1.935   .     S
O557   Zn608   1.949   .     S
O558   Zn600   1.915   .     S
O559   Zn599   1.915   .     S
O560   Zn602   1.916   .     S
O561   Zn601   1.916   .     S
O562   Zn604   1.915   .     S
O563   Zn603   1.915   .     S
O564   Zn598   1.916   .     S
O565   Zn612   1.916   .     S
O566   Zn599   1.916   .     S
O567   Zn806   1.935   1_455 S
O567   Zn610   1.935   .     S
O567   Zn598   1.935   .     S
O567   Zn606   1.935   .     S
O568   Zn600   1.916   .     S
O569   Zn612   1.915   .     S
O570   Zn598   1.915   .     S
O571   Zn603   1.916   .     S
O572   Zn604   1.916   .     S
O573   Zn601   1.915   .     S
O574   Zn602   1.915   .     S
O575   Zn811   1.915   .     S
O576   Zn606   1.915   .     S
O577   Zn201   1.916   1_565 S
O578   Zn816   1.935   1_455 S
O578   Zn607   1.935   .     S
O578   Zn611   1.935   .     S
O578   Zn601   1.935   .     S
O579   Zn608   1.916   .     S
O580   Zn611   1.915   .     S
O581   Zn814   1.915   .     S
O582   Zn605   1.916   .     S
O583   Zn189   1.916   1_565 S
O584   Zn810   1.916   .     S
O585   Zn607   1.916   .     S
O586   Zn597   1.915   .     S
O587   Zn197   1.915   1_565 S
O588   Zn610   1.916   .     S
O589   Zn604   1.949   .     S
O589   C17     1.270   1_565 S
O590   Zn815   1.916   .     S
O591   Zn200   1.915   1_565 S
O592   Zn609   1.915   .     S
O593   Zn603   1.949   .     S
O594   Zn598   1.949   .     S
O595   Zn612   1.949   .     S
O595   C667    1.270   .     A
O596   Zn600   1.949   .     S
Zn599  O148    1.935   1_565 S
Zn602  O771    1.935   .     S
Zn604  O137    1.935   1_565 S
Zn606  O788    1.916   1_455 S
Zn607  O779    1.915   1_455 S
Zn610  O785    1.915   1_455 S
Zn611  O794    1.916   1_455 S
Zn612  O782    1.935   .     S
Br613  C669    1.940   .     S
Br614  C679    1.940   .     S
Br615  C680    1.940   .     S
Br616  C681    1.940   .     S
Br617  C682    1.940   .     S
Br618  C683    1.940   .     S
Br619  C684    1.940   .     S
Br620  C685    1.940   .     S
Br621  C670    1.940   .     S
Br622  C671    1.940   .     S
Br623  C672    1.940   .     S
Br624  C673    1.940   .     S
Br625  C674    1.940   .     S
Br626  C675    1.940   .     S
Br627  C676    1.940   .     S
Br628  C677    1.940   .     S
C629   O800    1.270   .     A
C629   C688    1.459   .     S
C630   C664    1.422   .     S
C630   O791    1.276   .     A
C630   O763    1.276   .     A
C631   H736    1.080   .     S
C631   C707    1.403   .     A
C631   C634    1.387   1_554 S
C632   C708    1.403   .     A
C632   H737    1.080   .     S
C632   C731    1.387   1_556 S
C633   C709    1.403   .     A
C633   H738    1.080   .     S
C633   C730    1.387   1_554 S
C634   C710    1.403   .     A
C634   H739    1.080   .     S
C634   C631    1.387   1_556 S
C635   C712    1.403   .     A
C635   H740    1.080   .     S
C635   C732    1.387   1_554 S
C636   O764    1.276   .     A
C636   C663    1.423   .     S
C636   O788    1.276   .     A
C637   O789    1.276   .     A
C637   O765    1.276   .     A
C637   C662    1.423   .     S
C638   O795    1.276   .     A
C638   C661    1.422   .     S
C638   O766    1.276   .     A
C639   C660    1.422   .     S
C639   O767    1.276   .     A
C639   O796    1.276   .     A
C640   C668    1.423   .     S
C640   O792    1.276   .     A
C640   O768    1.276   .     A
C641   O769    1.276   .     A
C641   O794    1.276   .     A
C641   C666    1.423   .     S
C642   C657    1.423   .     S
C642   O781    1.276   .     A
C642   O770    1.276   .     A
C643   C655    1.423   .     S
C643   O772    1.276   .     A
C643   O783    1.276   .     A
C644   O773    1.276   .     A
C644   C654    1.422   .     S
C644   O779    1.276   .     A
C645   C690    1.459   .     S
C645   O797    1.270   .     S
C646   C653    1.422   .     S
C646   O780    1.276   .     A
C646   O774    1.276   .     A
C647   O775    1.276   .     A
C647   O786    1.276   .     A
C647   C652    1.423   .     S
C648   O776    1.276   .     A
C648   C651    1.423   .     S
C648   O787    1.276   .     A
C649   O784    1.276   .     A
C649   C659    1.422   .     S
C649   O777    1.276   .     A
C650   O778    1.276   .     A
C650   O785    1.276   .     A
C650   C658    1.422   .     S
C651   C668    1.199   .     T
C652   C666    1.199   .     T
C653   C665    1.198   .     T
C654   C664    1.198   .     T
C655   C663    1.199   .     T
C656   C686    1.459   .     S
C656   O798    1.270   .     S
C657   C662    1.199   .     T
C658   C661    1.198   .     T
C659   C660    1.198   .     T
C665   C722    1.422   .     S
C667   C687    1.459   .     S
C667   O752    1.270   .     S
C669   C699    1.407   .     A
C669   C482    1.407   1_655 S
C670   C701    1.407   .     A
C670   C687    1.407   .     S
C671   C702    1.407   .     A
C671   C688    1.407   .     A
C672   C282    1.407   1_565 A
C672   C703    1.407   .     A
C673   C695    1.407   .     A
C673   C686    1.407   .     A
C674   C483    1.407   1_655 A
C674   C696    1.407   .     A
C675   C697    1.407   .     A
C675   C280    1.407   1_565 S
C676   C698    1.407   .     A
C676   C690    1.407   .     S
C677   C691    1.407   .     A
C677   C708    1.407   .     A
C678   O753    1.270   .     A
C678   C693    1.459   .     S
C678   O757    1.270   .     S
C679   C709    1.407   .     A
C679   C284    1.407   1_565 A
C680   C710    1.407   .     A
C680   C489    1.407   1_655 S
C681   C712    1.407   .     A
C681   C694    1.407   .     S
C682   C704    1.407   .     A
C682   C283    1.407   1_565 S
C683   C705    1.407   .     A
C683   C692    1.407   .     S
C684   C693    1.407   .     A
C684   C706    1.407   .     A
C685   C490    1.407   1_655 A
C685   C707    1.407   .     A
C689   C694    1.459   .     S
C689   O758    1.270   .     A
C689   O754    1.270   .     S
C691   C700    1.459   .     S
C692   C711    1.459   .     S
C695   C721    1.403   .     A
C695   C713    1.416   .     A
C696   C510    1.416   1_655 A
C696   C723    1.403   .     A
C697   C724    1.403   .     A
C697   C307    1.416   1_565 A
C698   C716    1.416   .     A
C698   C725    1.403   .     A
C699   C726    1.403   .     A
C699   C509    1.416   1_655 S
C700   O755    1.270   .     A
C700   O759    1.270   .     A
C701   C727    1.403   .     A
C701   C714    1.416   .     S
C702   C728    1.403   .     A
C702   C715    1.416   .     S
C703   C729    1.403   .     A
C703   C308    1.416   1_565 S
C704   C730    1.403   .     A
C704   C309    1.416   1_565 S
C705   C731    1.403   .     A
C705   C718    1.416   .     S
C706   C732    1.403   .     A
C706   C719    1.416   .     A
C707   C516    1.416   1_655 A
C708   C717    1.416   .     A
C709   C310    1.416   1_565 A
C710   C515    1.416   1_655 S
C711   O756    1.270   .     S
C711   O761    1.270   .     S
C712   C720    1.416   .     S
C713   C714    1.417   .     S
C715   C716    1.417   .     S
C717   C718    1.417   1_556 S
C718   C717    1.417   1_554 S
C719   C720    1.417   1_556 S
C720   C719    1.417   1_554 S
C721   H733    1.080   .     S
C721   C727    1.387   .     A
C722   O790    1.276   .     A
C722   O762    1.276   .     A
C723   H741    1.080   .     S
C723   C726    1.387   .     A
C724   C729    1.387   .     A
C724   H742    1.080   .     S
C725   H743    1.080   .     S
C725   C728    1.387   .     A
C726   H744    1.080   .     S
C727   H745    1.080   .     S
C728   H746    1.080   .     S
C729   H747    1.080   .     S
C730   H748    1.080   .     S
C730   C633    1.387   1_556 S
C731   H734    1.080   .     S
C731   C632    1.387   1_554 S
C732   H735    1.080   .     S
C732   C635    1.387   1_556 S
O749   Zn804   1.935   .     S
O749   Zn812   1.935   .     S
O749   Zn801   1.935   .     S
O750   Zn803   1.949   .     S
O750   C237    1.270   1_565 A
O751   Zn806   1.949   .     S
O751   C452    1.270   1_655 A
O752   Zn805   1.949   .     S
O753   Zn815   1.949   .     S
O754   Zn814   1.949   .     S
O755   Zn809   1.949   .     S
O756   Zn801   1.949   .     S
O757   Zn811   1.949   .     S
O758   Zn810   1.949   .     S
O759   Zn813   1.949   .     S
O760   Zn809   1.935   .     S
O760   Zn813   1.935   .     S
O760   Zn807   1.935   .     S
O761   Zn812   1.949   .     S
O762   Zn804   1.915   .     S
O763   Zn803   1.915   .     S
O764   Zn806   1.916   .     S
O765   Zn805   1.916   .     S
O766   Zn808   1.915   .     S
O767   Zn807   1.915   .     S
O768   Zn802   1.916   .     S
O769   Zn816   1.916   .     S
O770   Zn803   1.916   .     S
O771   Zn814   1.935   .     S
O771   Zn802   1.935   .     S
O771   Zn810   1.935   .     S
O772   Zn804   1.916   .     S
O773   Zn816   1.915   .     S
O774   Zn802   1.915   .     S
O775   Zn807   1.916   .     S
O776   Zn808   1.916   .     S
O777   Zn805   1.915   .     S
O778   Zn806   1.915   .     S
O779   Zn607   1.915   1_655 S
O780   Zn810   1.915   .     S
O781   Zn405   1.916   1_565 S
O782   Zn811   1.935   .     S
O782   Zn815   1.935   .     S
O782   Zn805   1.935   .     S
O783   Zn812   1.916   .     S
O784   Zn815   1.915   .     S
O785   Zn610   1.915   1_655 S
O786   Zn809   1.916   .     S
O787   Zn393   1.916   1_565 S
O788   Zn606   1.916   1_655 S
O789   Zn811   1.916   .     S
O790   Zn801   1.915   .     S
O791   Zn401   1.915   1_565 S
O792   Zn814   1.916   .     S
O793   Zn808   1.949   .     S
O793   C221    1.270   1_565 S
O794   Zn611   1.916   1_655 S
O795   Zn404   1.915   1_565 S
O796   Zn813   1.915   .     S
O797   Zn807   1.949   .     S
O798   Zn802   1.949   .     S
O799   Zn816   1.949   .     S
O799   C463    1.270   1_655 A
O800   Zn804   1.949   .     S
Zn803  O352    1.935   1_565 S
Zn806  O567    1.935   1_655 S
Zn808  O341    1.935   1_565 S
Zn816  O578    1.935   1_655 S
