data_str_m3_o1_o16_pcu_sym.127
_audit_creation_date              2020-01-03
_audit_creation_method            'Materials Studio'
_symmetry_space_group_name_H-M    'P1'
_symmetry_Int_Tables_number       1
_symmetry_cell_setting            triclinic
loop_
_symmetry_equiv_pos_as_xyz
  x,y,z
_cell_length_a                    29.5915
_cell_length_b                    31.9901
_cell_length_c                    26.4533
_cell_angle_alpha                 90.4212
_cell_angle_beta                  72.2371
_cell_angle_gamma                 90.1369
loop_
_atom_site_label
_atom_site_type_symbol
_atom_site_fract_x
_atom_site_fract_y
_atom_site_fract_z
_atom_site_U_iso_or_equiv
_atom_site_adp_type
_atom_site_occupancy
C1     C     0.16666   0.24658   0.25026   0.00000  Uiso   1.00
C2     C     0.15048   0.19587   0.48705   0.00000  Uiso   1.00
C3     C     0.16424   0.19574   0.43139   0.00000  Uiso   1.00
C4     C     0.18513   0.18698   0.01241   0.00000  Uiso   1.00
C5     C     0.23392   0.18710   0.48282   0.00000  Uiso   1.00
C6     C     0.24744   0.19224   0.42795   0.00000  Uiso   1.00
C7     C     0.21302   0.20058   0.40364   0.00000  Uiso   1.00
C8     C     0.17248   0.17164   0.06445   0.00000  Uiso   1.00
C9     C     0.25518   0.17314   0.06219   0.00000  Uiso   1.00
C10    C     0.12879   0.18827   0.40605   0.00000  Uiso   1.00
C11    C     0.19070   0.31248   0.27882   0.00000  Uiso   1.00
C12    C     0.14157   0.17292   0.35073   0.00000  Uiso   1.00
C13    C     0.19073   0.02197   0.27758   0.00000  Uiso   1.00
C14    C     0.16795   0.04243   0.24563   0.00000  Uiso   1.00
C15    C     0.14594   0.02019   0.21325   0.00000  Uiso   1.00
C16    C     0.14469   0.31053   0.21652   0.00000  Uiso   1.00
C17    C     0.16708   0.29058   0.24891   0.00000  Uiso   1.00
C18    C     0.31328   0.13171   0.23551   0.00000  Uiso   1.00
C19    C     0.02770   0.13168   0.23584   0.00000  Uiso   1.00
C20    C     0.02012   0.20167   0.26429   0.00000  Uiso   1.00
C21    C     0.30562   0.20168   0.26420   0.00000  Uiso   1.00
C22    C     0.16714   0.08670   0.24803   0.00000  Uiso   1.00
C23    C     0.19232   0.16600   0.14831   0.00000  Uiso   1.00
C24    C     0.26847   0.17970   0.00795   0.00000  Uiso   1.00
C25    C     0.20709   0.16942   0.09078   0.00000  Uiso   1.00
C26    C     0.08091   0.19428   0.43509   0.00000  Uiso   1.00
C27    C     0.06833   0.20450   0.48888   0.00000  Uiso   1.00
C28    C     0.10252   0.20425   0.01513   0.00000  Uiso   1.00
H29    H     0.28249   0.17012   0.08143   0.00000  Uiso   1.00
H30    H     0.20780   0.03916   0.30220   0.00000  Uiso   1.00
H31    H     0.12773   0.29248   0.19246   0.00000  Uiso   1.00
H32    H     0.29843   0.10364   0.22394   0.00000  Uiso   1.00
H33    H     0.04854   0.10354   0.22512   0.00000  Uiso   1.00
H34    H     0.03495   0.22969   0.27599   0.00000  Uiso   1.00
H35    H     0.28463   0.22976   0.27566   0.00000  Uiso   1.00
H36    H     0.30574   0.17980   0.48578   0.00000  Uiso   1.00
H37    H     0.05337   0.19163   0.41613   0.00000  Uiso   1.00
H38    H     0.09120   0.21116   0.05721   0.00000  Uiso   1.00
H39    H     0.03182   0.21109   0.01098   0.00000  Uiso   1.00
H40    H     0.22587   0.20954   0.36258   0.00000  Uiso   1.00
H41    H     0.20803   0.29649   0.30383   0.00000  Uiso   1.00
N42    N     0.04760   0.16668   0.25001   0.00000  Uiso   1.00
N43    N     0.28573   0.16665   0.25000   0.00000  Uiso   1.00
O44    O     0.12846   0.22775   0.25000   0.00000  Uiso   1.00
O45    O     0.20490   0.22774   0.25000   0.00000  Uiso   1.00
O46    O     0.10947   0.16666   0.32681   0.00000  Uiso   1.00
O47    O     0.18591   0.16665   0.32681   0.00000  Uiso   1.00
O48    O     0.12843   0.10559   0.24999   0.00000  Uiso   1.00
O49    O     0.20488   0.10558   0.24999   0.00000  Uiso   1.00
O50    O     0.14742   0.16668   0.17319   0.00000  Uiso   1.00
O51    O     0.22387   0.16667   0.17319   0.00000  Uiso   1.00
Zn52   Zn    0.11562   0.16667   0.25000   0.00000  Uiso   1.00
Zn53   Zn    0.21771   0.16666   0.25000   0.00000  Uiso   1.00
C54    C     0.12547   0.04012   0.17358   0.00000  Uiso   1.00
H55    H     0.08621   0.03739   0.18765   0.00000  Uiso   1.00
H56    H     0.13566   0.07330   0.16616   0.00000  Uiso   1.00
H57    H     0.13896   0.02371   0.13472   0.00000  Uiso   1.00
O58    O     0.29248   0.18068   0.39704   0.00000  Uiso   1.00
C59    C     0.29125   0.13731   0.38532   0.00000  Uiso   1.00
H60    H     0.28108   0.13312   0.34855   0.00000  Uiso   1.00
H61    H     0.26564   0.11908   0.41751   0.00000  Uiso   1.00
C62    C     0.00631   0.11780   0.37733   0.00000  Uiso   1.00
H63    H     0.01711   0.12165   0.41376   0.00000  Uiso   1.00
H64    H     0.00498   0.08393   0.36841   0.00000  Uiso   1.00
H65    H     0.03270   0.13273   0.34358   0.00000  Uiso   1.00
O66    O     0.12752   0.15547   0.08824   0.00000  Uiso   1.00
C67    C     0.12456   0.11540   0.06640   0.00000  Uiso   1.00
H68    H     0.14864   0.09313   0.07751   0.00000  Uiso   1.00
H69    H     0.13412   0.11602   0.02230   0.00000  Uiso   1.00
C70    C     0.07384   0.09949   0.08729   0.00000  Uiso   1.00
H71    H     0.04945   0.12118   0.07581   0.00000  Uiso   1.00
H72    H     0.07122   0.06805   0.07035   0.00000  Uiso   1.00
H73    H     0.06299   0.09718   0.13108   0.00000  Uiso   1.00
C74    C     0.49999   0.24658   0.25026   0.00000  Uiso   1.00
C75    C     0.48381   0.19587   0.48705   0.00000  Uiso   1.00
C76    C     0.49757   0.19574   0.43139   0.00000  Uiso   1.00
C77    C     0.51846   0.18698   0.01241   0.00000  Uiso   1.00
C78    C     0.56726   0.18710   0.48282   0.00000  Uiso   1.00
C79    C     0.58078   0.19224   0.42795   0.00000  Uiso   1.00
C80    C     0.54636   0.20058   0.40364   0.00000  Uiso   1.00
C81    C     0.50581   0.17164   0.06445   0.00000  Uiso   1.00
C82    C     0.58851   0.17314   0.06219   0.00000  Uiso   1.00
C83    C     0.46213   0.18827   0.40605   0.00000  Uiso   1.00
C84    C     0.52403   0.31248   0.27882   0.00000  Uiso   1.00
C85    C     0.47491   0.17292   0.35073   0.00000  Uiso   1.00
C86    C     0.52406   0.02197   0.27758   0.00000  Uiso   1.00
C87    C     0.50128   0.04243   0.24563   0.00000  Uiso   1.00
C88    C     0.47928   0.02019   0.21325   0.00000  Uiso   1.00
C89    C     0.47803   0.31053   0.21652   0.00000  Uiso   1.00
C90    C     0.50042   0.29058   0.24891   0.00000  Uiso   1.00
C91    C     0.64661   0.13171   0.23551   0.00000  Uiso   1.00
C92    C     0.36104   0.13168   0.23584   0.00000  Uiso   1.00
C93    C     0.35346   0.20167   0.26429   0.00000  Uiso   1.00
C94    C     0.63895   0.20168   0.26420   0.00000  Uiso   1.00
C95    C     0.50048   0.08670   0.24803   0.00000  Uiso   1.00
C96    C     0.52565   0.16600   0.14831   0.00000  Uiso   1.00
C97    C     0.60180   0.17970   0.00795   0.00000  Uiso   1.00
C98    C     0.54043   0.16942   0.09078   0.00000  Uiso   1.00
C99    C     0.41424   0.19428   0.43509   0.00000  Uiso   1.00
C100   C     0.40166   0.20450   0.48888   0.00000  Uiso   1.00
C101   C     0.43586   0.20425   0.01513   0.00000  Uiso   1.00
H102   H     0.61582   0.17012   0.08143   0.00000  Uiso   1.00
H103   H     0.54113   0.03916   0.30220   0.00000  Uiso   1.00
H104   H     0.46106   0.29248   0.19246   0.00000  Uiso   1.00
H105   H     0.63177   0.10364   0.22394   0.00000  Uiso   1.00
H106   H     0.38187   0.10354   0.22512   0.00000  Uiso   1.00
H107   H     0.36829   0.22969   0.27599   0.00000  Uiso   1.00
H108   H     0.61796   0.22976   0.27566   0.00000  Uiso   1.00
H109   H     0.63908   0.17980   0.48578   0.00000  Uiso   1.00
H110   H     0.38671   0.19163   0.41613   0.00000  Uiso   1.00
H111   H     0.42453   0.21116   0.05721   0.00000  Uiso   1.00
H112   H     0.36516   0.21109   0.01098   0.00000  Uiso   1.00
H113   H     0.55920   0.20954   0.36258   0.00000  Uiso   1.00
H114   H     0.54137   0.29649   0.30383   0.00000  Uiso   1.00
N115   N     0.38093   0.16668   0.25001   0.00000  Uiso   1.00
N116   N     0.61906   0.16665   0.25000   0.00000  Uiso   1.00
O117   O     0.46179   0.22775   0.25000   0.00000  Uiso   1.00
O118   O     0.53823   0.22774   0.25000   0.00000  Uiso   1.00
O119   O     0.44280   0.16666   0.32681   0.00000  Uiso   1.00
O120   O     0.51924   0.16665   0.32681   0.00000  Uiso   1.00
O121   O     0.46177   0.10559   0.24999   0.00000  Uiso   1.00
O122   O     0.53821   0.10558   0.24999   0.00000  Uiso   1.00
O123   O     0.48076   0.16668   0.17319   0.00000  Uiso   1.00
O124   O     0.55720   0.16667   0.17319   0.00000  Uiso   1.00
Zn125  Zn    0.44896   0.16667   0.25000   0.00000  Uiso   1.00
Zn126  Zn    0.55104   0.16666   0.25000   0.00000  Uiso   1.00
C127   C     0.45880   0.04012   0.17358   0.00000  Uiso   1.00
H128   H     0.41955   0.03739   0.18765   0.00000  Uiso   1.00
H129   H     0.46899   0.07330   0.16616   0.00000  Uiso   1.00
H130   H     0.47229   0.02371   0.13472   0.00000  Uiso   1.00
O131   O     0.62581   0.18068   0.39704   0.00000  Uiso   1.00
C132   C     0.62459   0.13731   0.38532   0.00000  Uiso   1.00
H133   H     0.61441   0.13312   0.34855   0.00000  Uiso   1.00
H134   H     0.59897   0.11908   0.41751   0.00000  Uiso   1.00
C135   C     0.33965   0.11780   0.37733   0.00000  Uiso   1.00
H136   H     0.35045   0.12165   0.41376   0.00000  Uiso   1.00
H137   H     0.33832   0.08393   0.36841   0.00000  Uiso   1.00
H138   H     0.36603   0.13273   0.34358   0.00000  Uiso   1.00
O139   O     0.46085   0.15547   0.08824   0.00000  Uiso   1.00
C140   C     0.45789   0.11540   0.06640   0.00000  Uiso   1.00
H141   H     0.48197   0.09313   0.07751   0.00000  Uiso   1.00
H142   H     0.46746   0.11602   0.02230   0.00000  Uiso   1.00
C143   C     0.40718   0.09949   0.08729   0.00000  Uiso   1.00
H144   H     0.38278   0.12118   0.07581   0.00000  Uiso   1.00
H145   H     0.40456   0.06805   0.07035   0.00000  Uiso   1.00
H146   H     0.39633   0.09718   0.13108   0.00000  Uiso   1.00
C147   C     0.83333   0.24658   0.25026   0.00000  Uiso   1.00
C148   C     0.81714   0.19587   0.48705   0.00000  Uiso   1.00
C149   C     0.83091   0.19574   0.43139   0.00000  Uiso   1.00
C150   C     0.85180   0.18698   0.01241   0.00000  Uiso   1.00
C151   C     0.90059   0.18710   0.48282   0.00000  Uiso   1.00
C152   C     0.91411   0.19224   0.42795   0.00000  Uiso   1.00
C153   C     0.87969   0.20058   0.40364   0.00000  Uiso   1.00
C154   C     0.83914   0.17164   0.06445   0.00000  Uiso   1.00
C155   C     0.92185   0.17314   0.06219   0.00000  Uiso   1.00
C156   C     0.79546   0.18827   0.40605   0.00000  Uiso   1.00
C157   C     0.85737   0.31248   0.27882   0.00000  Uiso   1.00
C158   C     0.80824   0.17292   0.35073   0.00000  Uiso   1.00
C159   C     0.85739   0.02197   0.27758   0.00000  Uiso   1.00
C160   C     0.83462   0.04243   0.24563   0.00000  Uiso   1.00
C161   C     0.81261   0.02019   0.21325   0.00000  Uiso   1.00
C162   C     0.81136   0.31053   0.21652   0.00000  Uiso   1.00
C163   C     0.83375   0.29058   0.24891   0.00000  Uiso   1.00
C164   C     0.97994   0.13171   0.23551   0.00000  Uiso   1.00
C165   C     0.69437   0.13168   0.23584   0.00000  Uiso   1.00
C166   C     0.68679   0.20167   0.26429   0.00000  Uiso   1.00
C167   C     0.97229   0.20168   0.26420   0.00000  Uiso   1.00
C168   C     0.83381   0.08670   0.24803   0.00000  Uiso   1.00
C169   C     0.85899   0.16600   0.14831   0.00000  Uiso   1.00
C170   C     0.93514   0.17970   0.00795   0.00000  Uiso   1.00
C171   C     0.87376   0.16942   0.09078   0.00000  Uiso   1.00
C172   C     0.74757   0.19428   0.43509   0.00000  Uiso   1.00
C173   C     0.73499   0.20450   0.48888   0.00000  Uiso   1.00
C174   C     0.76919   0.20425   0.01513   0.00000  Uiso   1.00
H175   H     0.94916   0.17012   0.08143   0.00000  Uiso   1.00
H176   H     0.87446   0.03916   0.30220   0.00000  Uiso   1.00
H177   H     0.79439   0.29248   0.19246   0.00000  Uiso   1.00
H178   H     0.96510   0.10364   0.22394   0.00000  Uiso   1.00
H179   H     0.71521   0.10354   0.22512   0.00000  Uiso   1.00
H180   H     0.70162   0.22969   0.27599   0.00000  Uiso   1.00
H181   H     0.95129   0.22976   0.27566   0.00000  Uiso   1.00
H182   H     0.97241   0.17980   0.48578   0.00000  Uiso   1.00
H183   H     0.72004   0.19163   0.41613   0.00000  Uiso   1.00
H184   H     0.75787   0.21116   0.05721   0.00000  Uiso   1.00
H185   H     0.69849   0.21109   0.01098   0.00000  Uiso   1.00
H186   H     0.89254   0.20954   0.36258   0.00000  Uiso   1.00
H187   H     0.87470   0.29649   0.30383   0.00000  Uiso   1.00
N188   N     0.71426   0.16668   0.25001   0.00000  Uiso   1.00
N189   N     0.95239   0.16665   0.25000   0.00000  Uiso   1.00
O190   O     0.79512   0.22775   0.25000   0.00000  Uiso   1.00
O191   O     0.87157   0.22774   0.25000   0.00000  Uiso   1.00
O192   O     0.77613   0.16666   0.32681   0.00000  Uiso   1.00
O193   O     0.85258   0.16665   0.32681   0.00000  Uiso   1.00
O194   O     0.79510   0.10559   0.24999   0.00000  Uiso   1.00
O195   O     0.87154   0.10558   0.24999   0.00000  Uiso   1.00
O196   O     0.81409   0.16668   0.17319   0.00000  Uiso   1.00
O197   O     0.89053   0.16667   0.17319   0.00000  Uiso   1.00
Zn198  Zn    0.78229   0.16667   0.25000   0.00000  Uiso   1.00
Zn199  Zn    0.88438   0.16666   0.25000   0.00000  Uiso   1.00
C200   C     0.79213   0.04012   0.17358   0.00000  Uiso   1.00
H201   H     0.75288   0.03739   0.18765   0.00000  Uiso   1.00
H202   H     0.80232   0.07330   0.16616   0.00000  Uiso   1.00
H203   H     0.80563   0.02371   0.13472   0.00000  Uiso   1.00
O204   O     0.95915   0.18068   0.39704   0.00000  Uiso   1.00
C205   C     0.95792   0.13731   0.38532   0.00000  Uiso   1.00
H206   H     0.94774   0.13312   0.34855   0.00000  Uiso   1.00
H207   H     0.93230   0.11908   0.41751   0.00000  Uiso   1.00
C208   C     0.67298   0.11780   0.37733   0.00000  Uiso   1.00
H209   H     0.68378   0.12165   0.41376   0.00000  Uiso   1.00
H210   H     0.67165   0.08393   0.36841   0.00000  Uiso   1.00
H211   H     0.69936   0.13273   0.34358   0.00000  Uiso   1.00
O212   O     0.79418   0.15547   0.08824   0.00000  Uiso   1.00
C213   C     0.79122   0.11540   0.06640   0.00000  Uiso   1.00
H214   H     0.81531   0.09313   0.07751   0.00000  Uiso   1.00
H215   H     0.80079   0.11602   0.02230   0.00000  Uiso   1.00
C216   C     0.74051   0.09949   0.08729   0.00000  Uiso   1.00
H217   H     0.71611   0.12118   0.07581   0.00000  Uiso   1.00
H218   H     0.73789   0.06805   0.07035   0.00000  Uiso   1.00
H219   H     0.72966   0.09718   0.13108   0.00000  Uiso   1.00
C220   C     0.16666   0.57992   0.25026   0.00000  Uiso   1.00
C221   C     0.15048   0.52920   0.48705   0.00000  Uiso   1.00
C222   C     0.16424   0.52907   0.43139   0.00000  Uiso   1.00
C223   C     0.18513   0.52032   0.01241   0.00000  Uiso   1.00
C224   C     0.23392   0.52043   0.48282   0.00000  Uiso   1.00
C225   C     0.24744   0.52557   0.42795   0.00000  Uiso   1.00
C226   C     0.21302   0.53392   0.40364   0.00000  Uiso   1.00
C227   C     0.17248   0.50497   0.06445   0.00000  Uiso   1.00
C228   C     0.25518   0.50647   0.06219   0.00000  Uiso   1.00
C229   C     0.12879   0.52160   0.40605   0.00000  Uiso   1.00
C230   C     0.19070   0.64581   0.27882   0.00000  Uiso   1.00
C231   C     0.14157   0.50625   0.35073   0.00000  Uiso   1.00
C232   C     0.19073   0.35530   0.27758   0.00000  Uiso   1.00
C233   C     0.16795   0.37576   0.24563   0.00000  Uiso   1.00
C234   C     0.14594   0.35352   0.21325   0.00000  Uiso   1.00
C235   C     0.14469   0.64386   0.21652   0.00000  Uiso   1.00
C236   C     0.16708   0.62391   0.24891   0.00000  Uiso   1.00
C237   C     0.31328   0.46504   0.23551   0.00000  Uiso   1.00
C238   C     0.02770   0.46501   0.23584   0.00000  Uiso   1.00
C239   C     0.02012   0.53501   0.26429   0.00000  Uiso   1.00
C240   C     0.30562   0.53501   0.26420   0.00000  Uiso   1.00
C241   C     0.16714   0.42003   0.24803   0.00000  Uiso   1.00
C242   C     0.19232   0.49933   0.14831   0.00000  Uiso   1.00
C243   C     0.26847   0.51303   0.00795   0.00000  Uiso   1.00
C244   C     0.20709   0.50276   0.09078   0.00000  Uiso   1.00
C245   C     0.08091   0.52762   0.43509   0.00000  Uiso   1.00
C246   C     0.06833   0.53783   0.48888   0.00000  Uiso   1.00
C247   C     0.10252   0.53758   0.01513   0.00000  Uiso   1.00
H248   H     0.28249   0.50345   0.08143   0.00000  Uiso   1.00
H249   H     0.20780   0.37249   0.30220   0.00000  Uiso   1.00
H250   H     0.12773   0.62581   0.19246   0.00000  Uiso   1.00
H251   H     0.29843   0.43698   0.22394   0.00000  Uiso   1.00
H252   H     0.04854   0.43687   0.22512   0.00000  Uiso   1.00
H253   H     0.03495   0.56302   0.27599   0.00000  Uiso   1.00
H254   H     0.28463   0.56309   0.27566   0.00000  Uiso   1.00
H255   H     0.30574   0.51314   0.48578   0.00000  Uiso   1.00
H256   H     0.05337   0.52496   0.41613   0.00000  Uiso   1.00
H257   H     0.09120   0.54449   0.05721   0.00000  Uiso   1.00
H258   H     0.03182   0.54443   0.01098   0.00000  Uiso   1.00
H259   H     0.22587   0.54288   0.36258   0.00000  Uiso   1.00
H260   H     0.20803   0.62983   0.30383   0.00000  Uiso   1.00
N261   N     0.04760   0.50001   0.25001   0.00000  Uiso   1.00
N262   N     0.28573   0.49998   0.25000   0.00000  Uiso   1.00
O263   O     0.12846   0.56108   0.25000   0.00000  Uiso   1.00
O264   O     0.20490   0.56107   0.25000   0.00000  Uiso   1.00
O265   O     0.10947   0.50000   0.32681   0.00000  Uiso   1.00
O266   O     0.18591   0.49999   0.32681   0.00000  Uiso   1.00
O267   O     0.12843   0.43893   0.24999   0.00000  Uiso   1.00
O268   O     0.20488   0.43892   0.24999   0.00000  Uiso   1.00
O269   O     0.14742   0.50001   0.17319   0.00000  Uiso   1.00
O270   O     0.22387   0.50000   0.17319   0.00000  Uiso   1.00
Zn271  Zn    0.11562   0.50001   0.25000   0.00000  Uiso   1.00
Zn272  Zn    0.21771   0.49999   0.25000   0.00000  Uiso   1.00
C273   C     0.12547   0.37345   0.17358   0.00000  Uiso   1.00
H274   H     0.08621   0.37073   0.18765   0.00000  Uiso   1.00
H275   H     0.13566   0.40663   0.16616   0.00000  Uiso   1.00
H276   H     0.13896   0.35705   0.13472   0.00000  Uiso   1.00
O277   O     0.29248   0.51402   0.39704   0.00000  Uiso   1.00
C278   C     0.29125   0.47064   0.38532   0.00000  Uiso   1.00
H279   H     0.28108   0.46646   0.34855   0.00000  Uiso   1.00
H280   H     0.26564   0.45241   0.41751   0.00000  Uiso   1.00
C281   C     0.00631   0.45114   0.37733   0.00000  Uiso   1.00
H282   H     0.01711   0.45498   0.41376   0.00000  Uiso   1.00
H283   H     0.00498   0.41726   0.36841   0.00000  Uiso   1.00
H284   H     0.03270   0.46606   0.34358   0.00000  Uiso   1.00
O285   O     0.12752   0.48880   0.08824   0.00000  Uiso   1.00
C286   C     0.12456   0.44874   0.06640   0.00000  Uiso   1.00
H287   H     0.14864   0.42646   0.07751   0.00000  Uiso   1.00
H288   H     0.13412   0.44935   0.02230   0.00000  Uiso   1.00
C289   C     0.07384   0.43283   0.08729   0.00000  Uiso   1.00
H290   H     0.04945   0.45452   0.07581   0.00000  Uiso   1.00
H291   H     0.07122   0.40138   0.07035   0.00000  Uiso   1.00
H292   H     0.06299   0.43052   0.13108   0.00000  Uiso   1.00
C293   C     0.49999   0.57992   0.25026   0.00000  Uiso   1.00
C294   C     0.48381   0.52920   0.48705   0.00000  Uiso   1.00
C295   C     0.49757   0.52907   0.43139   0.00000  Uiso   1.00
C296   C     0.51846   0.52032   0.01241   0.00000  Uiso   1.00
C297   C     0.56726   0.52043   0.48282   0.00000  Uiso   1.00
C298   C     0.58078   0.52557   0.42795   0.00000  Uiso   1.00
C299   C     0.54636   0.53392   0.40364   0.00000  Uiso   1.00
C300   C     0.50581   0.50497   0.06445   0.00000  Uiso   1.00
C301   C     0.58851   0.50647   0.06219   0.00000  Uiso   1.00
C302   C     0.46213   0.52160   0.40605   0.00000  Uiso   1.00
C303   C     0.52403   0.64581   0.27882   0.00000  Uiso   1.00
C304   C     0.47491   0.50625   0.35073   0.00000  Uiso   1.00
C305   C     0.52406   0.35530   0.27758   0.00000  Uiso   1.00
C306   C     0.50128   0.37576   0.24563   0.00000  Uiso   1.00
C307   C     0.47928   0.35352   0.21325   0.00000  Uiso   1.00
C308   C     0.47803   0.64386   0.21652   0.00000  Uiso   1.00
C309   C     0.50042   0.62391   0.24891   0.00000  Uiso   1.00
C310   C     0.64661   0.46504   0.23551   0.00000  Uiso   1.00
C311   C     0.36104   0.46501   0.23584   0.00000  Uiso   1.00
C312   C     0.35346   0.53501   0.26429   0.00000  Uiso   1.00
C313   C     0.63895   0.53501   0.26420   0.00000  Uiso   1.00
C314   C     0.50048   0.42003   0.24803   0.00000  Uiso   1.00
C315   C     0.52565   0.49933   0.14831   0.00000  Uiso   1.00
C316   C     0.60180   0.51303   0.00795   0.00000  Uiso   1.00
C317   C     0.54043   0.50276   0.09078   0.00000  Uiso   1.00
C318   C     0.41424   0.52762   0.43509   0.00000  Uiso   1.00
C319   C     0.40166   0.53783   0.48888   0.00000  Uiso   1.00
C320   C     0.43586   0.53758   0.01513   0.00000  Uiso   1.00
H321   H     0.61582   0.50345   0.08143   0.00000  Uiso   1.00
H322   H     0.54113   0.37249   0.30220   0.00000  Uiso   1.00
H323   H     0.46106   0.62581   0.19246   0.00000  Uiso   1.00
H324   H     0.63177   0.43698   0.22394   0.00000  Uiso   1.00
H325   H     0.38187   0.43687   0.22512   0.00000  Uiso   1.00
H326   H     0.36829   0.56302   0.27599   0.00000  Uiso   1.00
H327   H     0.61796   0.56309   0.27566   0.00000  Uiso   1.00
H328   H     0.63908   0.51314   0.48578   0.00000  Uiso   1.00
H329   H     0.38671   0.52496   0.41613   0.00000  Uiso   1.00
H330   H     0.42453   0.54449   0.05721   0.00000  Uiso   1.00
H331   H     0.36516   0.54443   0.01098   0.00000  Uiso   1.00
H332   H     0.55920   0.54288   0.36258   0.00000  Uiso   1.00
H333   H     0.54137   0.62983   0.30383   0.00000  Uiso   1.00
N334   N     0.38093   0.50001   0.25001   0.00000  Uiso   1.00
N335   N     0.61906   0.49998   0.25000   0.00000  Uiso   1.00
O336   O     0.46179   0.56108   0.25000   0.00000  Uiso   1.00
O337   O     0.53823   0.56107   0.25000   0.00000  Uiso   1.00
O338   O     0.44280   0.50000   0.32681   0.00000  Uiso   1.00
O339   O     0.51924   0.49999   0.32681   0.00000  Uiso   1.00
O340   O     0.46177   0.43893   0.24999   0.00000  Uiso   1.00
O341   O     0.53821   0.43892   0.24999   0.00000  Uiso   1.00
O342   O     0.48076   0.50001   0.17319   0.00000  Uiso   1.00
O343   O     0.55720   0.50000   0.17319   0.00000  Uiso   1.00
Zn344  Zn    0.44896   0.50001   0.25000   0.00000  Uiso   1.00
Zn345  Zn    0.55104   0.49999   0.25000   0.00000  Uiso   1.00
C346   C     0.45880   0.37345   0.17358   0.00000  Uiso   1.00
H347   H     0.41955   0.37073   0.18765   0.00000  Uiso   1.00
H348   H     0.46899   0.40663   0.16616   0.00000  Uiso   1.00
H349   H     0.47229   0.35705   0.13472   0.00000  Uiso   1.00
O350   O     0.62581   0.51402   0.39704   0.00000  Uiso   1.00
C351   C     0.62459   0.47064   0.38532   0.00000  Uiso   1.00
H352   H     0.61441   0.46646   0.34855   0.00000  Uiso   1.00
H353   H     0.59897   0.45241   0.41751   0.00000  Uiso   1.00
C354   C     0.33965   0.45114   0.37733   0.00000  Uiso   1.00
H355   H     0.35045   0.45498   0.41376   0.00000  Uiso   1.00
H356   H     0.33832   0.41726   0.36841   0.00000  Uiso   1.00
H357   H     0.36603   0.46606   0.34358   0.00000  Uiso   1.00
O358   O     0.46085   0.48880   0.08824   0.00000  Uiso   1.00
C359   C     0.45789   0.44874   0.06640   0.00000  Uiso   1.00
H360   H     0.48197   0.42646   0.07751   0.00000  Uiso   1.00
H361   H     0.46746   0.44935   0.02230   0.00000  Uiso   1.00
C362   C     0.40718   0.43283   0.08729   0.00000  Uiso   1.00
H363   H     0.38278   0.45452   0.07581   0.00000  Uiso   1.00
H364   H     0.40456   0.40138   0.07035   0.00000  Uiso   1.00
H365   H     0.39633   0.43052   0.13108   0.00000  Uiso   1.00
C366   C     0.83333   0.57992   0.25026   0.00000  Uiso   1.00
C367   C     0.81714   0.52920   0.48705   0.00000  Uiso   1.00
C368   C     0.83091   0.52907   0.43139   0.00000  Uiso   1.00
C369   C     0.85180   0.52032   0.01241   0.00000  Uiso   1.00
C370   C     0.90059   0.52043   0.48282   0.00000  Uiso   1.00
C371   C     0.91411   0.52557   0.42795   0.00000  Uiso   1.00
C372   C     0.87969   0.53392   0.40364   0.00000  Uiso   1.00
C373   C     0.83914   0.50497   0.06445   0.00000  Uiso   1.00
C374   C     0.92185   0.50647   0.06219   0.00000  Uiso   1.00
C375   C     0.79546   0.52160   0.40605   0.00000  Uiso   1.00
C376   C     0.85737   0.64581   0.27882   0.00000  Uiso   1.00
C377   C     0.80824   0.50625   0.35073   0.00000  Uiso   1.00
C378   C     0.85739   0.35530   0.27758   0.00000  Uiso   1.00
C379   C     0.83462   0.37576   0.24563   0.00000  Uiso   1.00
C380   C     0.81261   0.35352   0.21325   0.00000  Uiso   1.00
C381   C     0.81136   0.64386   0.21652   0.00000  Uiso   1.00
C382   C     0.83375   0.62391   0.24891   0.00000  Uiso   1.00
C383   C     0.97994   0.46504   0.23551   0.00000  Uiso   1.00
C384   C     0.69437   0.46501   0.23584   0.00000  Uiso   1.00
C385   C     0.68679   0.53501   0.26429   0.00000  Uiso   1.00
C386   C     0.97229   0.53501   0.26420   0.00000  Uiso   1.00
C387   C     0.83381   0.42003   0.24803   0.00000  Uiso   1.00
C388   C     0.85899   0.49933   0.14831   0.00000  Uiso   1.00
C389   C     0.93514   0.51303   0.00795   0.00000  Uiso   1.00
C390   C     0.87376   0.50276   0.09078   0.00000  Uiso   1.00
C391   C     0.74757   0.52762   0.43509   0.00000  Uiso   1.00
C392   C     0.73499   0.53783   0.48888   0.00000  Uiso   1.00
C393   C     0.76919   0.53758   0.01513   0.00000  Uiso   1.00
H394   H     0.94916   0.50345   0.08143   0.00000  Uiso   1.00
H395   H     0.87446   0.37249   0.30220   0.00000  Uiso   1.00
H396   H     0.79439   0.62581   0.19246   0.00000  Uiso   1.00
H397   H     0.96510   0.43698   0.22394   0.00000  Uiso   1.00
H398   H     0.71521   0.43687   0.22512   0.00000  Uiso   1.00
H399   H     0.70162   0.56302   0.27599   0.00000  Uiso   1.00
H400   H     0.95129   0.56309   0.27566   0.00000  Uiso   1.00
H401   H     0.97241   0.51314   0.48578   0.00000  Uiso   1.00
H402   H     0.72004   0.52496   0.41613   0.00000  Uiso   1.00
H403   H     0.75787   0.54449   0.05721   0.00000  Uiso   1.00
H404   H     0.69849   0.54443   0.01098   0.00000  Uiso   1.00
H405   H     0.89254   0.54288   0.36258   0.00000  Uiso   1.00
H406   H     0.87470   0.62983   0.30383   0.00000  Uiso   1.00
N407   N     0.71426   0.50001   0.25001   0.00000  Uiso   1.00
N408   N     0.95239   0.49998   0.25000   0.00000  Uiso   1.00
O409   O     0.79512   0.56108   0.25000   0.00000  Uiso   1.00
O410   O     0.87157   0.56107   0.25000   0.00000  Uiso   1.00
O411   O     0.77613   0.50000   0.32681   0.00000  Uiso   1.00
O412   O     0.85258   0.49999   0.32681   0.00000  Uiso   1.00
O413   O     0.79510   0.43893   0.24999   0.00000  Uiso   1.00
O414   O     0.87154   0.43892   0.24999   0.00000  Uiso   1.00
O415   O     0.81409   0.50001   0.17319   0.00000  Uiso   1.00
O416   O     0.89053   0.50000   0.17319   0.00000  Uiso   1.00
Zn417  Zn    0.78229   0.50001   0.25000   0.00000  Uiso   1.00
Zn418  Zn    0.88438   0.49999   0.25000   0.00000  Uiso   1.00
C419   C     0.79213   0.37345   0.17358   0.00000  Uiso   1.00
H420   H     0.75288   0.37073   0.18765   0.00000  Uiso   1.00
H421   H     0.80232   0.40663   0.16616   0.00000  Uiso   1.00
H422   H     0.80563   0.35705   0.13472   0.00000  Uiso   1.00
O423   O     0.95915   0.51402   0.39704   0.00000  Uiso   1.00
C424   C     0.95792   0.47064   0.38532   0.00000  Uiso   1.00
H425   H     0.94774   0.46646   0.34855   0.00000  Uiso   1.00
H426   H     0.93230   0.45241   0.41751   0.00000  Uiso   1.00
C427   C     0.67298   0.45114   0.37733   0.00000  Uiso   1.00
H428   H     0.68378   0.45498   0.41376   0.00000  Uiso   1.00
H429   H     0.67165   0.41726   0.36841   0.00000  Uiso   1.00
H430   H     0.69936   0.46606   0.34358   0.00000  Uiso   1.00
O431   O     0.79418   0.48880   0.08824   0.00000  Uiso   1.00
C432   C     0.79122   0.44874   0.06640   0.00000  Uiso   1.00
H433   H     0.81531   0.42646   0.07751   0.00000  Uiso   1.00
H434   H     0.80079   0.44935   0.02230   0.00000  Uiso   1.00
C435   C     0.74051   0.43283   0.08729   0.00000  Uiso   1.00
H436   H     0.71611   0.45452   0.07581   0.00000  Uiso   1.00
H437   H     0.73789   0.40138   0.07035   0.00000  Uiso   1.00
H438   H     0.72966   0.43052   0.13108   0.00000  Uiso   1.00
C439   C     0.16666   0.91325   0.25026   0.00000  Uiso   1.00
C440   C     0.15048   0.86253   0.48705   0.00000  Uiso   1.00
C441   C     0.16424   0.86241   0.43139   0.00000  Uiso   1.00
C442   C     0.18513   0.85365   0.01241   0.00000  Uiso   1.00
C443   C     0.23392   0.85376   0.48282   0.00000  Uiso   1.00
C444   C     0.24744   0.85890   0.42795   0.00000  Uiso   1.00
C445   C     0.21302   0.86725   0.40364   0.00000  Uiso   1.00
C446   C     0.17248   0.83830   0.06445   0.00000  Uiso   1.00
C447   C     0.25518   0.83981   0.06219   0.00000  Uiso   1.00
C448   C     0.12879   0.85494   0.40605   0.00000  Uiso   1.00
C449   C     0.19070   0.97915   0.27882   0.00000  Uiso   1.00
C450   C     0.14157   0.83958   0.35073   0.00000  Uiso   1.00
C451   C     0.19073   0.68863   0.27758   0.00000  Uiso   1.00
C452   C     0.16795   0.70909   0.24563   0.00000  Uiso   1.00
C453   C     0.14594   0.68686   0.21325   0.00000  Uiso   1.00
C454   C     0.14469   0.97719   0.21652   0.00000  Uiso   1.00
C455   C     0.16708   0.95725   0.24891   0.00000  Uiso   1.00
C456   C     0.31328   0.79838   0.23551   0.00000  Uiso   1.00
C457   C     0.02770   0.79835   0.23584   0.00000  Uiso   1.00
C458   C     0.02012   0.86834   0.26429   0.00000  Uiso   1.00
C459   C     0.30562   0.86835   0.26420   0.00000  Uiso   1.00
C460   C     0.16714   0.75337   0.24803   0.00000  Uiso   1.00
C461   C     0.19232   0.83266   0.14831   0.00000  Uiso   1.00
C462   C     0.26847   0.84636   0.00795   0.00000  Uiso   1.00
C463   C     0.20709   0.83609   0.09078   0.00000  Uiso   1.00
C464   C     0.08091   0.86095   0.43509   0.00000  Uiso   1.00
C465   C     0.06833   0.87116   0.48888   0.00000  Uiso   1.00
C466   C     0.10252   0.87092   0.01513   0.00000  Uiso   1.00
H467   H     0.28249   0.83679   0.08143   0.00000  Uiso   1.00
H468   H     0.20780   0.70582   0.30220   0.00000  Uiso   1.00
H469   H     0.12773   0.95915   0.19246   0.00000  Uiso   1.00
H470   H     0.29843   0.77031   0.22394   0.00000  Uiso   1.00
H471   H     0.04854   0.77020   0.22512   0.00000  Uiso   1.00
H472   H     0.03495   0.89636   0.27599   0.00000  Uiso   1.00
H473   H     0.28463   0.89642   0.27566   0.00000  Uiso   1.00
H474   H     0.30574   0.84647   0.48578   0.00000  Uiso   1.00
H475   H     0.05337   0.85829   0.41613   0.00000  Uiso   1.00
H476   H     0.09120   0.87783   0.05721   0.00000  Uiso   1.00
H477   H     0.03182   0.87776   0.01098   0.00000  Uiso   1.00
H478   H     0.22587   0.87621   0.36258   0.00000  Uiso   1.00
H479   H     0.20803   0.96316   0.30383   0.00000  Uiso   1.00
N480   N     0.04760   0.83334   0.25001   0.00000  Uiso   1.00
N481   N     0.28573   0.83331   0.25000   0.00000  Uiso   1.00
O482   O     0.12846   0.89442   0.25000   0.00000  Uiso   1.00
O483   O     0.20490   0.89441   0.25000   0.00000  Uiso   1.00
O484   O     0.10947   0.83333   0.32681   0.00000  Uiso   1.00
O485   O     0.18591   0.83332   0.32681   0.00000  Uiso   1.00
O486   O     0.12843   0.77226   0.24999   0.00000  Uiso   1.00
O487   O     0.20488   0.77225   0.24999   0.00000  Uiso   1.00
O488   O     0.14742   0.83335   0.17319   0.00000  Uiso   1.00
O489   O     0.22387   0.83334   0.17319   0.00000  Uiso   1.00
Zn490  Zn    0.11562   0.83334   0.25000   0.00000  Uiso   1.00
Zn491  Zn    0.21771   0.83333   0.25000   0.00000  Uiso   1.00
C492   C     0.12547   0.70678   0.17358   0.00000  Uiso   1.00
H493   H     0.08621   0.70406   0.18765   0.00000  Uiso   1.00
H494   H     0.13566   0.73997   0.16616   0.00000  Uiso   1.00
H495   H     0.13896   0.69038   0.13472   0.00000  Uiso   1.00
O496   O     0.29248   0.84735   0.39704   0.00000  Uiso   1.00
C497   C     0.29125   0.80398   0.38532   0.00000  Uiso   1.00
H498   H     0.28108   0.79979   0.34855   0.00000  Uiso   1.00
H499   H     0.26564   0.78575   0.41751   0.00000  Uiso   1.00
C500   C     0.00631   0.78447   0.37733   0.00000  Uiso   1.00
H501   H     0.01711   0.78832   0.41376   0.00000  Uiso   1.00
H502   H     0.00498   0.75060   0.36841   0.00000  Uiso   1.00
H503   H     0.03270   0.79939   0.34358   0.00000  Uiso   1.00
O504   O     0.12752   0.82213   0.08824   0.00000  Uiso   1.00
C505   C     0.12456   0.78207   0.06640   0.00000  Uiso   1.00
H506   H     0.14864   0.75979   0.07751   0.00000  Uiso   1.00
H507   H     0.13412   0.78269   0.02230   0.00000  Uiso   1.00
C508   C     0.07384   0.76616   0.08729   0.00000  Uiso   1.00
H509   H     0.04945   0.78785   0.07581   0.00000  Uiso   1.00
H510   H     0.07122   0.73472   0.07035   0.00000  Uiso   1.00
H511   H     0.06299   0.76385   0.13108   0.00000  Uiso   1.00
C512   C     0.49999   0.91325   0.25026   0.00000  Uiso   1.00
C513   C     0.48381   0.86253   0.48705   0.00000  Uiso   1.00
C514   C     0.49757   0.86241   0.43139   0.00000  Uiso   1.00
C515   C     0.51846   0.85365   0.01241   0.00000  Uiso   1.00
C516   C     0.56726   0.85376   0.48282   0.00000  Uiso   1.00
C517   C     0.58078   0.85890   0.42795   0.00000  Uiso   1.00
C518   C     0.54636   0.86725   0.40364   0.00000  Uiso   1.00
C519   C     0.50581   0.83830   0.06445   0.00000  Uiso   1.00
C520   C     0.58851   0.83981   0.06219   0.00000  Uiso   1.00
C521   C     0.46213   0.85494   0.40605   0.00000  Uiso   1.00
C522   C     0.52403   0.97915   0.27882   0.00000  Uiso   1.00
C523   C     0.47491   0.83958   0.35073   0.00000  Uiso   1.00
C524   C     0.52406   0.68863   0.27758   0.00000  Uiso   1.00
C525   C     0.50128   0.70909   0.24563   0.00000  Uiso   1.00
C526   C     0.47928   0.68686   0.21325   0.00000  Uiso   1.00
C527   C     0.47803   0.97719   0.21652   0.00000  Uiso   1.00
C528   C     0.50042   0.95725   0.24891   0.00000  Uiso   1.00
C529   C     0.64661   0.79838   0.23551   0.00000  Uiso   1.00
C530   C     0.36104   0.79835   0.23584   0.00000  Uiso   1.00
C531   C     0.35346   0.86834   0.26429   0.00000  Uiso   1.00
C532   C     0.63895   0.86835   0.26420   0.00000  Uiso   1.00
C533   C     0.50048   0.75337   0.24803   0.00000  Uiso   1.00
C534   C     0.52565   0.83266   0.14831   0.00000  Uiso   1.00
C535   C     0.60180   0.84636   0.00795   0.00000  Uiso   1.00
C536   C     0.54043   0.83609   0.09078   0.00000  Uiso   1.00
C537   C     0.41424   0.86095   0.43509   0.00000  Uiso   1.00
C538   C     0.40166   0.87116   0.48888   0.00000  Uiso   1.00
C539   C     0.43586   0.87092   0.01513   0.00000  Uiso   1.00
H540   H     0.61582   0.83679   0.08143   0.00000  Uiso   1.00
H541   H     0.54113   0.70582   0.30220   0.00000  Uiso   1.00
H542   H     0.46106   0.95915   0.19246   0.00000  Uiso   1.00
H543   H     0.63177   0.77031   0.22394   0.00000  Uiso   1.00
H544   H     0.38187   0.77020   0.22512   0.00000  Uiso   1.00
H545   H     0.36829   0.89636   0.27599   0.00000  Uiso   1.00
H546   H     0.61796   0.89642   0.27566   0.00000  Uiso   1.00
H547   H     0.63908   0.84647   0.48578   0.00000  Uiso   1.00
H548   H     0.38671   0.85829   0.41613   0.00000  Uiso   1.00
H549   H     0.42453   0.87783   0.05721   0.00000  Uiso   1.00
H550   H     0.36516   0.87776   0.01098   0.00000  Uiso   1.00
H551   H     0.55920   0.87621   0.36258   0.00000  Uiso   1.00
H552   H     0.54137   0.96316   0.30383   0.00000  Uiso   1.00
N553   N     0.38093   0.83334   0.25001   0.00000  Uiso   1.00
N554   N     0.61906   0.83331   0.25000   0.00000  Uiso   1.00
O555   O     0.46179   0.89442   0.25000   0.00000  Uiso   1.00
O556   O     0.53823   0.89441   0.25000   0.00000  Uiso   1.00
O557   O     0.44280   0.83333   0.32681   0.00000  Uiso   1.00
O558   O     0.51924   0.83332   0.32681   0.00000  Uiso   1.00
O559   O     0.46177   0.77226   0.24999   0.00000  Uiso   1.00
O560   O     0.53821   0.77225   0.24999   0.00000  Uiso   1.00
O561   O     0.48076   0.83335   0.17319   0.00000  Uiso   1.00
O562   O     0.55720   0.83334   0.17319   0.00000  Uiso   1.00
Zn563  Zn    0.44896   0.83334   0.25000   0.00000  Uiso   1.00
Zn564  Zn    0.55104   0.83333   0.25000   0.00000  Uiso   1.00
C565   C     0.45880   0.70678   0.17358   0.00000  Uiso   1.00
H566   H     0.41955   0.70406   0.18765   0.00000  Uiso   1.00
H567   H     0.46899   0.73997   0.16616   0.00000  Uiso   1.00
H568   H     0.47229   0.69038   0.13472   0.00000  Uiso   1.00
O569   O     0.62581   0.84735   0.39704   0.00000  Uiso   1.00
C570   C     0.62459   0.80398   0.38532   0.00000  Uiso   1.00
H571   H     0.61441   0.79979   0.34855   0.00000  Uiso   1.00
H572   H     0.59897   0.78575   0.41751   0.00000  Uiso   1.00
C573   C     0.33965   0.78447   0.37733   0.00000  Uiso   1.00
H574   H     0.35045   0.78832   0.41376   0.00000  Uiso   1.00
H575   H     0.33832   0.75060   0.36841   0.00000  Uiso   1.00
H576   H     0.36603   0.79939   0.34358   0.00000  Uiso   1.00
O577   O     0.46085   0.82213   0.08824   0.00000  Uiso   1.00
C578   C     0.45789   0.78207   0.06640   0.00000  Uiso   1.00
H579   H     0.48197   0.75979   0.07751   0.00000  Uiso   1.00
H580   H     0.46746   0.78269   0.02230   0.00000  Uiso   1.00
C581   C     0.40718   0.76616   0.08729   0.00000  Uiso   1.00
H582   H     0.38278   0.78785   0.07581   0.00000  Uiso   1.00
H583   H     0.40456   0.73472   0.07035   0.00000  Uiso   1.00
H584   H     0.39633   0.76385   0.13108   0.00000  Uiso   1.00
C585   C     0.83333   0.91325   0.25026   0.00000  Uiso   1.00
C586   C     0.81714   0.86253   0.48705   0.00000  Uiso   1.00
C587   C     0.83091   0.86241   0.43139   0.00000  Uiso   1.00
C588   C     0.85180   0.85365   0.01241   0.00000  Uiso   1.00
C589   C     0.90059   0.85376   0.48282   0.00000  Uiso   1.00
C590   C     0.91411   0.85890   0.42795   0.00000  Uiso   1.00
C591   C     0.87969   0.86725   0.40364   0.00000  Uiso   1.00
C592   C     0.83914   0.83830   0.06445   0.00000  Uiso   1.00
C593   C     0.92185   0.83981   0.06219   0.00000  Uiso   1.00
C594   C     0.79546   0.85494   0.40605   0.00000  Uiso   1.00
C595   C     0.85737   0.97915   0.27882   0.00000  Uiso   1.00
C596   C     0.80824   0.83958   0.35073   0.00000  Uiso   1.00
C597   C     0.85739   0.68863   0.27758   0.00000  Uiso   1.00
C598   C     0.83462   0.70909   0.24563   0.00000  Uiso   1.00
C599   C     0.81261   0.68686   0.21325   0.00000  Uiso   1.00
C600   C     0.81136   0.97719   0.21652   0.00000  Uiso   1.00
C601   C     0.83375   0.95725   0.24891   0.00000  Uiso   1.00
C602   C     0.97994   0.79838   0.23551   0.00000  Uiso   1.00
C603   C     0.69437   0.79835   0.23584   0.00000  Uiso   1.00
C604   C     0.68679   0.86834   0.26429   0.00000  Uiso   1.00
C605   C     0.97229   0.86835   0.26420   0.00000  Uiso   1.00
C606   C     0.83381   0.75337   0.24803   0.00000  Uiso   1.00
C607   C     0.85899   0.83266   0.14831   0.00000  Uiso   1.00
C608   C     0.93514   0.84636   0.00795   0.00000  Uiso   1.00
C609   C     0.87376   0.83609   0.09078   0.00000  Uiso   1.00
C610   C     0.74757   0.86095   0.43509   0.00000  Uiso   1.00
C611   C     0.73499   0.87116   0.48888   0.00000  Uiso   1.00
C612   C     0.76919   0.87092   0.01513   0.00000  Uiso   1.00
H613   H     0.94916   0.83679   0.08143   0.00000  Uiso   1.00
H614   H     0.87446   0.70582   0.30220   0.00000  Uiso   1.00
H615   H     0.79439   0.95915   0.19246   0.00000  Uiso   1.00
H616   H     0.96510   0.77031   0.22394   0.00000  Uiso   1.00
H617   H     0.71521   0.77020   0.22512   0.00000  Uiso   1.00
H618   H     0.70162   0.89636   0.27599   0.00000  Uiso   1.00
H619   H     0.95129   0.89642   0.27566   0.00000  Uiso   1.00
H620   H     0.97241   0.84647   0.48578   0.00000  Uiso   1.00
H621   H     0.72004   0.85829   0.41613   0.00000  Uiso   1.00
H622   H     0.75787   0.87783   0.05721   0.00000  Uiso   1.00
H623   H     0.69849   0.87776   0.01098   0.00000  Uiso   1.00
H624   H     0.89254   0.87621   0.36258   0.00000  Uiso   1.00
H625   H     0.87470   0.96316   0.30383   0.00000  Uiso   1.00
N626   N     0.71426   0.83334   0.25001   0.00000  Uiso   1.00
N627   N     0.95239   0.83331   0.25000   0.00000  Uiso   1.00
O628   O     0.79512   0.89442   0.25000   0.00000  Uiso   1.00
O629   O     0.87157   0.89441   0.25000   0.00000  Uiso   1.00
O630   O     0.77613   0.83333   0.32681   0.00000  Uiso   1.00
O631   O     0.85258   0.83332   0.32681   0.00000  Uiso   1.00
O632   O     0.79510   0.77226   0.24999   0.00000  Uiso   1.00
O633   O     0.87154   0.77225   0.24999   0.00000  Uiso   1.00
O634   O     0.81409   0.83335   0.17319   0.00000  Uiso   1.00
O635   O     0.89053   0.83334   0.17319   0.00000  Uiso   1.00
Zn636  Zn    0.78229   0.83334   0.25000   0.00000  Uiso   1.00
Zn637  Zn    0.88438   0.83333   0.25000   0.00000  Uiso   1.00
C638   C     0.79213   0.70678   0.17358   0.00000  Uiso   1.00
H639   H     0.75288   0.70406   0.18765   0.00000  Uiso   1.00
H640   H     0.80232   0.73997   0.16616   0.00000  Uiso   1.00
H641   H     0.80563   0.69038   0.13472   0.00000  Uiso   1.00
O642   O     0.95915   0.84735   0.39704   0.00000  Uiso   1.00
C643   C     0.95792   0.80398   0.38532   0.00000  Uiso   1.00
H644   H     0.94774   0.79979   0.34855   0.00000  Uiso   1.00
H645   H     0.93230   0.78575   0.41751   0.00000  Uiso   1.00
C646   C     0.67298   0.78447   0.37733   0.00000  Uiso   1.00
H647   H     0.68378   0.78832   0.41376   0.00000  Uiso   1.00
H648   H     0.67165   0.75060   0.36841   0.00000  Uiso   1.00
H649   H     0.69936   0.79939   0.34358   0.00000  Uiso   1.00
O650   O     0.79418   0.82213   0.08824   0.00000  Uiso   1.00
C651   C     0.79122   0.78207   0.06640   0.00000  Uiso   1.00
H652   H     0.81531   0.75979   0.07751   0.00000  Uiso   1.00
H653   H     0.80079   0.78269   0.02230   0.00000  Uiso   1.00
C654   C     0.74051   0.76616   0.08729   0.00000  Uiso   1.00
H655   H     0.71611   0.78785   0.07581   0.00000  Uiso   1.00
H656   H     0.73789   0.73472   0.07035   0.00000  Uiso   1.00
H657   H     0.72966   0.76385   0.13108   0.00000  Uiso   1.00
C658   C     0.16666   0.24658   0.75026   0.00000  Uiso   1.00
C659   C     0.15048   0.19587   0.98705   0.00000  Uiso   1.00
C660   C     0.16424   0.19574   0.93139   0.00000  Uiso   1.00
C661   C     0.18513   0.18698   0.51241   0.00000  Uiso   1.00
C662   C     0.23392   0.18710   0.98282   0.00000  Uiso   1.00
C663   C     0.24744   0.19224   0.92795   0.00000  Uiso   1.00
C664   C     0.21302   0.20058   0.90364   0.00000  Uiso   1.00
C665   C     0.17248   0.17164   0.56445   0.00000  Uiso   1.00
C666   C     0.25518   0.17314   0.56219   0.00000  Uiso   1.00
C667   C     0.12879   0.18827   0.90605   0.00000  Uiso   1.00
C668   C     0.19070   0.31248   0.77882   0.00000  Uiso   1.00
C669   C     0.14157   0.17292   0.85073   0.00000  Uiso   1.00
C670   C     0.19073   0.02197   0.77758   0.00000  Uiso   1.00
C671   C     0.16795   0.04243   0.74563   0.00000  Uiso   1.00
C672   C     0.14594   0.02019   0.71325   0.00000  Uiso   1.00
C673   C     0.14469   0.31053   0.71652   0.00000  Uiso   1.00
C674   C     0.16708   0.29058   0.74891   0.00000  Uiso   1.00
C675   C     0.31328   0.13171   0.73551   0.00000  Uiso   1.00
C676   C     0.02770   0.13168   0.73584   0.00000  Uiso   1.00
C677   C     0.02012   0.20167   0.76429   0.00000  Uiso   1.00
C678   C     0.30562   0.20168   0.76420   0.00000  Uiso   1.00
C679   C     0.16714   0.08670   0.74803   0.00000  Uiso   1.00
C680   C     0.19232   0.16600   0.64831   0.00000  Uiso   1.00
C681   C     0.26847   0.17970   0.50795   0.00000  Uiso   1.00
C682   C     0.20709   0.16942   0.59078   0.00000  Uiso   1.00
C683   C     0.08091   0.19428   0.93509   0.00000  Uiso   1.00
C684   C     0.06833   0.20450   0.98888   0.00000  Uiso   1.00
C685   C     0.10252   0.20425   0.51513   0.00000  Uiso   1.00
H686   H     0.28249   0.17012   0.58143   0.00000  Uiso   1.00
H687   H     0.20780   0.03916   0.80220   0.00000  Uiso   1.00
H688   H     0.12773   0.29248   0.69246   0.00000  Uiso   1.00
H689   H     0.29843   0.10364   0.72394   0.00000  Uiso   1.00
H690   H     0.04854   0.10354   0.72512   0.00000  Uiso   1.00
H691   H     0.03495   0.22969   0.77599   0.00000  Uiso   1.00
H692   H     0.28463   0.22976   0.77566   0.00000  Uiso   1.00
H693   H     0.30574   0.17980   0.98578   0.00000  Uiso   1.00
H694   H     0.05337   0.19163   0.91613   0.00000  Uiso   1.00
H695   H     0.09120   0.21116   0.55721   0.00000  Uiso   1.00
H696   H     0.03182   0.21109   0.51098   0.00000  Uiso   1.00
H697   H     0.22587   0.20954   0.86258   0.00000  Uiso   1.00
H698   H     0.20803   0.29649   0.80383   0.00000  Uiso   1.00
N699   N     0.04760   0.16668   0.75001   0.00000  Uiso   1.00
N700   N     0.28573   0.16665   0.75000   0.00000  Uiso   1.00
O701   O     0.12846   0.22775   0.75000   0.00000  Uiso   1.00
O702   O     0.20490   0.22774   0.75000   0.00000  Uiso   1.00
O703   O     0.10947   0.16666   0.82681   0.00000  Uiso   1.00
O704   O     0.18591   0.16665   0.82681   0.00000  Uiso   1.00
O705   O     0.12843   0.10559   0.74999   0.00000  Uiso   1.00
O706   O     0.20488   0.10558   0.74999   0.00000  Uiso   1.00
O707   O     0.14742   0.16668   0.67319   0.00000  Uiso   1.00
O708   O     0.22387   0.16667   0.67319   0.00000  Uiso   1.00
Zn709  Zn    0.11562   0.16667   0.75000   0.00000  Uiso   1.00
Zn710  Zn    0.21771   0.16666   0.75000   0.00000  Uiso   1.00
C711   C     0.12547   0.04012   0.67358   0.00000  Uiso   1.00
H712   H     0.08621   0.03739   0.68765   0.00000  Uiso   1.00
H713   H     0.13566   0.07330   0.66616   0.00000  Uiso   1.00
H714   H     0.13896   0.02371   0.63472   0.00000  Uiso   1.00
O715   O     0.29248   0.18068   0.89704   0.00000  Uiso   1.00
C716   C     0.29125   0.13731   0.88532   0.00000  Uiso   1.00
H717   H     0.28108   0.13312   0.84855   0.00000  Uiso   1.00
H718   H     0.26564   0.11908   0.91751   0.00000  Uiso   1.00
C719   C     0.00631   0.11780   0.87733   0.00000  Uiso   1.00
H720   H     0.01711   0.12165   0.91376   0.00000  Uiso   1.00
H721   H     0.00498   0.08393   0.86841   0.00000  Uiso   1.00
H722   H     0.03270   0.13273   0.84358   0.00000  Uiso   1.00
O723   O     0.12752   0.15547   0.58824   0.00000  Uiso   1.00
C724   C     0.12456   0.11540   0.56640   0.00000  Uiso   1.00
H725   H     0.14864   0.09313   0.57751   0.00000  Uiso   1.00
H726   H     0.13412   0.11602   0.52230   0.00000  Uiso   1.00
C727   C     0.07384   0.09949   0.58729   0.00000  Uiso   1.00
H728   H     0.04945   0.12118   0.57581   0.00000  Uiso   1.00
H729   H     0.07122   0.06805   0.57035   0.00000  Uiso   1.00
H730   H     0.06299   0.09718   0.63108   0.00000  Uiso   1.00
C731   C     0.49999   0.24658   0.75026   0.00000  Uiso   1.00
C732   C     0.48381   0.19587   0.98705   0.00000  Uiso   1.00
C733   C     0.49757   0.19574   0.93139   0.00000  Uiso   1.00
C734   C     0.51846   0.18698   0.51241   0.00000  Uiso   1.00
C735   C     0.56726   0.18710   0.98282   0.00000  Uiso   1.00
C736   C     0.58078   0.19224   0.92795   0.00000  Uiso   1.00
C737   C     0.54636   0.20058   0.90364   0.00000  Uiso   1.00
C738   C     0.50581   0.17164   0.56445   0.00000  Uiso   1.00
C739   C     0.58851   0.17314   0.56219   0.00000  Uiso   1.00
C740   C     0.46213   0.18827   0.90605   0.00000  Uiso   1.00
C741   C     0.52403   0.31248   0.77882   0.00000  Uiso   1.00
C742   C     0.47491   0.17292   0.85073   0.00000  Uiso   1.00
C743   C     0.52406   0.02197   0.77758   0.00000  Uiso   1.00
C744   C     0.50128   0.04243   0.74563   0.00000  Uiso   1.00
C745   C     0.47928   0.02019   0.71325   0.00000  Uiso   1.00
C746   C     0.47803   0.31053   0.71652   0.00000  Uiso   1.00
C747   C     0.50042   0.29058   0.74891   0.00000  Uiso   1.00
C748   C     0.64661   0.13171   0.73551   0.00000  Uiso   1.00
C749   C     0.36104   0.13168   0.73584   0.00000  Uiso   1.00
C750   C     0.35346   0.20167   0.76429   0.00000  Uiso   1.00
C751   C     0.63895   0.20168   0.76420   0.00000  Uiso   1.00
C752   C     0.50048   0.08670   0.74803   0.00000  Uiso   1.00
C753   C     0.52565   0.16600   0.64831   0.00000  Uiso   1.00
C754   C     0.60180   0.17970   0.50795   0.00000  Uiso   1.00
C755   C     0.54043   0.16942   0.59078   0.00000  Uiso   1.00
C756   C     0.41424   0.19428   0.93509   0.00000  Uiso   1.00
C757   C     0.40166   0.20450   0.98888   0.00000  Uiso   1.00
C758   C     0.43586   0.20425   0.51513   0.00000  Uiso   1.00
H759   H     0.61582   0.17012   0.58143   0.00000  Uiso   1.00
H760   H     0.54113   0.03916   0.80220   0.00000  Uiso   1.00
H761   H     0.46106   0.29248   0.69246   0.00000  Uiso   1.00
H762   H     0.63177   0.10364   0.72394   0.00000  Uiso   1.00
H763   H     0.38187   0.10354   0.72512   0.00000  Uiso   1.00
H764   H     0.36829   0.22969   0.77599   0.00000  Uiso   1.00
H765   H     0.61796   0.22976   0.77566   0.00000  Uiso   1.00
H766   H     0.63908   0.17980   0.98578   0.00000  Uiso   1.00
H767   H     0.38671   0.19163   0.91613   0.00000  Uiso   1.00
H768   H     0.42453   0.21116   0.55721   0.00000  Uiso   1.00
H769   H     0.36516   0.21109   0.51098   0.00000  Uiso   1.00
H770   H     0.55920   0.20954   0.86258   0.00000  Uiso   1.00
H771   H     0.54137   0.29649   0.80383   0.00000  Uiso   1.00
N772   N     0.38093   0.16668   0.75001   0.00000  Uiso   1.00
N773   N     0.61906   0.16665   0.75000   0.00000  Uiso   1.00
O774   O     0.46179   0.22775   0.75000   0.00000  Uiso   1.00
O775   O     0.53823   0.22774   0.75000   0.00000  Uiso   1.00
O776   O     0.44280   0.16666   0.82681   0.00000  Uiso   1.00
O777   O     0.51924   0.16665   0.82681   0.00000  Uiso   1.00
O778   O     0.46177   0.10559   0.74999   0.00000  Uiso   1.00
O779   O     0.53821   0.10558   0.74999   0.00000  Uiso   1.00
O780   O     0.48076   0.16668   0.67319   0.00000  Uiso   1.00
O781   O     0.55720   0.16667   0.67319   0.00000  Uiso   1.00
Zn782  Zn    0.44896   0.16667   0.75000   0.00000  Uiso   1.00
Zn783  Zn    0.55104   0.16666   0.75000   0.00000  Uiso   1.00
C784   C     0.45880   0.04012   0.67358   0.00000  Uiso   1.00
H785   H     0.41955   0.03739   0.68765   0.00000  Uiso   1.00
H786   H     0.46899   0.07330   0.66616   0.00000  Uiso   1.00
H787   H     0.47229   0.02371   0.63472   0.00000  Uiso   1.00
O788   O     0.62581   0.18068   0.89704   0.00000  Uiso   1.00
C789   C     0.62459   0.13731   0.88532   0.00000  Uiso   1.00
H790   H     0.61441   0.13312   0.84855   0.00000  Uiso   1.00
H791   H     0.59897   0.11908   0.91751   0.00000  Uiso   1.00
C792   C     0.33965   0.11780   0.87733   0.00000  Uiso   1.00
H793   H     0.35045   0.12165   0.91376   0.00000  Uiso   1.00
H794   H     0.33832   0.08393   0.86841   0.00000  Uiso   1.00
H795   H     0.36603   0.13273   0.84358   0.00000  Uiso   1.00
O796   O     0.46085   0.15547   0.58824   0.00000  Uiso   1.00
C797   C     0.45789   0.11540   0.56640   0.00000  Uiso   1.00
H798   H     0.48197   0.09313   0.57751   0.00000  Uiso   1.00
H799   H     0.46746   0.11602   0.52230   0.00000  Uiso   1.00
C800   C     0.40718   0.09949   0.58729   0.00000  Uiso   1.00
H801   H     0.38278   0.12118   0.57581   0.00000  Uiso   1.00
H802   H     0.40456   0.06805   0.57035   0.00000  Uiso   1.00
H803   H     0.39633   0.09718   0.63108   0.00000  Uiso   1.00
C804   C     0.83333   0.24658   0.75026   0.00000  Uiso   1.00
C805   C     0.81714   0.19587   0.98705   0.00000  Uiso   1.00
C806   C     0.83091   0.19574   0.93139   0.00000  Uiso   1.00
C807   C     0.85180   0.18698   0.51241   0.00000  Uiso   1.00
C808   C     0.90059   0.18710   0.98282   0.00000  Uiso   1.00
C809   C     0.91411   0.19224   0.92795   0.00000  Uiso   1.00
C810   C     0.87969   0.20058   0.90364   0.00000  Uiso   1.00
C811   C     0.83914   0.17164   0.56445   0.00000  Uiso   1.00
C812   C     0.92185   0.17314   0.56219   0.00000  Uiso   1.00
C813   C     0.79546   0.18827   0.90605   0.00000  Uiso   1.00
C814   C     0.85737   0.31248   0.77882   0.00000  Uiso   1.00
C815   C     0.80824   0.17292   0.85073   0.00000  Uiso   1.00
C816   C     0.85739   0.02197   0.77758   0.00000  Uiso   1.00
C817   C     0.83462   0.04243   0.74563   0.00000  Uiso   1.00
C818   C     0.81261   0.02019   0.71325   0.00000  Uiso   1.00
C819   C     0.81136   0.31053   0.71652   0.00000  Uiso   1.00
C820   C     0.83375   0.29058   0.74891   0.00000  Uiso   1.00
C821   C     0.97994   0.13171   0.73551   0.00000  Uiso   1.00
C822   C     0.69437   0.13168   0.73584   0.00000  Uiso   1.00
C823   C     0.68679   0.20167   0.76429   0.00000  Uiso   1.00
C824   C     0.97229   0.20168   0.76420   0.00000  Uiso   1.00
C825   C     0.83381   0.08670   0.74803   0.00000  Uiso   1.00
C826   C     0.85899   0.16600   0.64831   0.00000  Uiso   1.00
C827   C     0.93514   0.17970   0.50795   0.00000  Uiso   1.00
C828   C     0.87376   0.16942   0.59078   0.00000  Uiso   1.00
C829   C     0.74757   0.19428   0.93509   0.00000  Uiso   1.00
C830   C     0.73499   0.20450   0.98888   0.00000  Uiso   1.00
C831   C     0.76919   0.20425   0.51513   0.00000  Uiso   1.00
H832   H     0.94916   0.17012   0.58143   0.00000  Uiso   1.00
H833   H     0.87446   0.03916   0.80220   0.00000  Uiso   1.00
H834   H     0.79439   0.29248   0.69246   0.00000  Uiso   1.00
H835   H     0.96510   0.10364   0.72394   0.00000  Uiso   1.00
H836   H     0.71521   0.10354   0.72512   0.00000  Uiso   1.00
H837   H     0.70162   0.22969   0.77599   0.00000  Uiso   1.00
H838   H     0.95129   0.22976   0.77566   0.00000  Uiso   1.00
H839   H     0.97241   0.17980   0.98578   0.00000  Uiso   1.00
H840   H     0.72004   0.19163   0.91613   0.00000  Uiso   1.00
H841   H     0.75787   0.21116   0.55721   0.00000  Uiso   1.00
H842   H     0.69849   0.21109   0.51098   0.00000  Uiso   1.00
H843   H     0.89254   0.20954   0.86258   0.00000  Uiso   1.00
H844   H     0.87470   0.29649   0.80383   0.00000  Uiso   1.00
N845   N     0.71426   0.16668   0.75001   0.00000  Uiso   1.00
N846   N     0.95239   0.16665   0.75000   0.00000  Uiso   1.00
O847   O     0.79512   0.22775   0.75000   0.00000  Uiso   1.00
O848   O     0.87157   0.22774   0.75000   0.00000  Uiso   1.00
O849   O     0.77613   0.16666   0.82681   0.00000  Uiso   1.00
O850   O     0.85258   0.16665   0.82681   0.00000  Uiso   1.00
O851   O     0.79510   0.10559   0.74999   0.00000  Uiso   1.00
O852   O     0.87154   0.10558   0.74999   0.00000  Uiso   1.00
O853   O     0.81409   0.16668   0.67319   0.00000  Uiso   1.00
O854   O     0.89053   0.16667   0.67319   0.00000  Uiso   1.00
Zn855  Zn    0.78229   0.16667   0.75000   0.00000  Uiso   1.00
Zn856  Zn    0.88438   0.16666   0.75000   0.00000  Uiso   1.00
C857   C     0.79213   0.04012   0.67358   0.00000  Uiso   1.00
H858   H     0.75288   0.03739   0.68765   0.00000  Uiso   1.00
H859   H     0.80232   0.07330   0.66616   0.00000  Uiso   1.00
H860   H     0.80563   0.02371   0.63472   0.00000  Uiso   1.00
O861   O     0.95915   0.18068   0.89704   0.00000  Uiso   1.00
C862   C     0.95792   0.13731   0.88532   0.00000  Uiso   1.00
H863   H     0.94774   0.13312   0.84855   0.00000  Uiso   1.00
H864   H     0.93230   0.11908   0.91751   0.00000  Uiso   1.00
C865   C     0.67298   0.11780   0.87733   0.00000  Uiso   1.00
H866   H     0.68378   0.12165   0.91376   0.00000  Uiso   1.00
H867   H     0.67165   0.08393   0.86841   0.00000  Uiso   1.00
H868   H     0.69936   0.13273   0.84358   0.00000  Uiso   1.00
O869   O     0.79418   0.15547   0.58824   0.00000  Uiso   1.00
C870   C     0.79122   0.11540   0.56640   0.00000  Uiso   1.00
H871   H     0.81531   0.09313   0.57751   0.00000  Uiso   1.00
H872   H     0.80079   0.11602   0.52230   0.00000  Uiso   1.00
C873   C     0.74051   0.09949   0.58729   0.00000  Uiso   1.00
H874   H     0.71611   0.12118   0.57581   0.00000  Uiso   1.00
H875   H     0.73789   0.06805   0.57035   0.00000  Uiso   1.00
H876   H     0.72966   0.09718   0.63108   0.00000  Uiso   1.00
C877   C     0.16666   0.57992   0.75026   0.00000  Uiso   1.00
C878   C     0.15048   0.52920   0.98705   0.00000  Uiso   1.00
C879   C     0.16424   0.52907   0.93139   0.00000  Uiso   1.00
C880   C     0.18513   0.52032   0.51241   0.00000  Uiso   1.00
C881   C     0.23392   0.52043   0.98282   0.00000  Uiso   1.00
C882   C     0.24744   0.52557   0.92795   0.00000  Uiso   1.00
C883   C     0.21302   0.53392   0.90364   0.00000  Uiso   1.00
C884   C     0.17248   0.50497   0.56445   0.00000  Uiso   1.00
C885   C     0.25518   0.50647   0.56219   0.00000  Uiso   1.00
C886   C     0.12879   0.52160   0.90605   0.00000  Uiso   1.00
C887   C     0.19070   0.64581   0.77882   0.00000  Uiso   1.00
C888   C     0.14157   0.50625   0.85073   0.00000  Uiso   1.00
C889   C     0.19073   0.35530   0.77758   0.00000  Uiso   1.00
C890   C     0.16795   0.37576   0.74563   0.00000  Uiso   1.00
C891   C     0.14594   0.35352   0.71325   0.00000  Uiso   1.00
C892   C     0.14469   0.64386   0.71652   0.00000  Uiso   1.00
C893   C     0.16708   0.62391   0.74891   0.00000  Uiso   1.00
C894   C     0.31328   0.46504   0.73551   0.00000  Uiso   1.00
C895   C     0.02770   0.46501   0.73584   0.00000  Uiso   1.00
C896   C     0.02012   0.53501   0.76429   0.00000  Uiso   1.00
C897   C     0.30562   0.53501   0.76420   0.00000  Uiso   1.00
C898   C     0.16714   0.42003   0.74803   0.00000  Uiso   1.00
C899   C     0.19232   0.49933   0.64831   0.00000  Uiso   1.00
C900   C     0.26847   0.51303   0.50795   0.00000  Uiso   1.00
C901   C     0.20709   0.50276   0.59078   0.00000  Uiso   1.00
C902   C     0.08091   0.52762   0.93509   0.00000  Uiso   1.00
C903   C     0.06833   0.53783   0.98888   0.00000  Uiso   1.00
C904   C     0.10252   0.53758   0.51513   0.00000  Uiso   1.00
H905   H     0.28249   0.50345   0.58143   0.00000  Uiso   1.00
H906   H     0.20780   0.37249   0.80220   0.00000  Uiso   1.00
H907   H     0.12773   0.62581   0.69246   0.00000  Uiso   1.00
H908   H     0.29843   0.43698   0.72394   0.00000  Uiso   1.00
H909   H     0.04854   0.43687   0.72512   0.00000  Uiso   1.00
H910   H     0.03495   0.56302   0.77599   0.00000  Uiso   1.00
H911   H     0.28463   0.56309   0.77566   0.00000  Uiso   1.00
H912   H     0.30574   0.51314   0.98578   0.00000  Uiso   1.00
H913   H     0.05337   0.52496   0.91613   0.00000  Uiso   1.00
H914   H     0.09120   0.54449   0.55721   0.00000  Uiso   1.00
H915   H     0.03182   0.54443   0.51098   0.00000  Uiso   1.00
H916   H     0.22587   0.54288   0.86258   0.00000  Uiso   1.00
H917   H     0.20803   0.62983   0.80383   0.00000  Uiso   1.00
N918   N     0.04760   0.50001   0.75001   0.00000  Uiso   1.00
N919   N     0.28573   0.49998   0.75000   0.00000  Uiso   1.00
O920   O     0.12846   0.56108   0.75000   0.00000  Uiso   1.00
O921   O     0.20490   0.56107   0.75000   0.00000  Uiso   1.00
O922   O     0.10947   0.50000   0.82681   0.00000  Uiso   1.00
O923   O     0.18591   0.49999   0.82681   0.00000  Uiso   1.00
O924   O     0.12843   0.43893   0.74999   0.00000  Uiso   1.00
O925   O     0.20488   0.43892   0.74999   0.00000  Uiso   1.00
O926   O     0.14742   0.50001   0.67319   0.00000  Uiso   1.00
O927   O     0.22387   0.50000   0.67319   0.00000  Uiso   1.00
Zn928  Zn    0.11562   0.50001   0.75000   0.00000  Uiso   1.00
Zn929  Zn    0.21771   0.49999   0.75000   0.00000  Uiso   1.00
C930   C     0.12547   0.37345   0.67358   0.00000  Uiso   1.00
H931   H     0.08621   0.37073   0.68765   0.00000  Uiso   1.00
H932   H     0.13566   0.40663   0.66616   0.00000  Uiso   1.00
H933   H     0.13896   0.35705   0.63472   0.00000  Uiso   1.00
O934   O     0.29248   0.51402   0.89704   0.00000  Uiso   1.00
C935   C     0.29125   0.47064   0.88532   0.00000  Uiso   1.00
H936   H     0.28108   0.46646   0.84855   0.00000  Uiso   1.00
H937   H     0.26564   0.45241   0.91751   0.00000  Uiso   1.00
C938   C     0.00631   0.45114   0.87733   0.00000  Uiso   1.00
H939   H     0.01711   0.45498   0.91376   0.00000  Uiso   1.00
H940   H     0.00498   0.41726   0.86841   0.00000  Uiso   1.00
H941   H     0.03270   0.46606   0.84358   0.00000  Uiso   1.00
O942   O     0.12752   0.48880   0.58824   0.00000  Uiso   1.00
C943   C     0.12456   0.44874   0.56640   0.00000  Uiso   1.00
H944   H     0.14864   0.42646   0.57751   0.00000  Uiso   1.00
H945   H     0.13412   0.44935   0.52230   0.00000  Uiso   1.00
C946   C     0.07384   0.43283   0.58729   0.00000  Uiso   1.00
H947   H     0.04945   0.45452   0.57581   0.00000  Uiso   1.00
H948   H     0.07122   0.40138   0.57035   0.00000  Uiso   1.00
H949   H     0.06299   0.43052   0.63108   0.00000  Uiso   1.00
C950   C     0.49999   0.57992   0.75026   0.00000  Uiso   1.00
C951   C     0.48381   0.52920   0.98705   0.00000  Uiso   1.00
C952   C     0.49757   0.52907   0.93139   0.00000  Uiso   1.00
C953   C     0.51846   0.52032   0.51241   0.00000  Uiso   1.00
C954   C     0.56726   0.52043   0.98282   0.00000  Uiso   1.00
C955   C     0.58078   0.52557   0.92795   0.00000  Uiso   1.00
C956   C     0.54636   0.53392   0.90364   0.00000  Uiso   1.00
C957   C     0.50581   0.50497   0.56445   0.00000  Uiso   1.00
C958   C     0.58851   0.50647   0.56219   0.00000  Uiso   1.00
C959   C     0.46213   0.52160   0.90605   0.00000  Uiso   1.00
C960   C     0.52403   0.64581   0.77882   0.00000  Uiso   1.00
C961   C     0.47491   0.50625   0.85073   0.00000  Uiso   1.00
C962   C     0.52406   0.35530   0.77758   0.00000  Uiso   1.00
C963   C     0.50128   0.37576   0.74563   0.00000  Uiso   1.00
C964   C     0.47928   0.35352   0.71325   0.00000  Uiso   1.00
C965   C     0.47803   0.64386   0.71652   0.00000  Uiso   1.00
C966   C     0.50042   0.62391   0.74891   0.00000  Uiso   1.00
C967   C     0.64661   0.46504   0.73551   0.00000  Uiso   1.00
C968   C     0.36104   0.46501   0.73584   0.00000  Uiso   1.00
C969   C     0.35346   0.53501   0.76429   0.00000  Uiso   1.00
C970   C     0.63895   0.53501   0.76420   0.00000  Uiso   1.00
C971   C     0.50048   0.42003   0.74803   0.00000  Uiso   1.00
C972   C     0.52565   0.49933   0.64831   0.00000  Uiso   1.00
C973   C     0.60180   0.51303   0.50795   0.00000  Uiso   1.00
C974   C     0.54043   0.50276   0.59078   0.00000  Uiso   1.00
C975   C     0.41424   0.52762   0.93509   0.00000  Uiso   1.00
C976   C     0.40166   0.53783   0.98888   0.00000  Uiso   1.00
C977   C     0.43586   0.53758   0.51513   0.00000  Uiso   1.00
H978   H     0.61582   0.50345   0.58143   0.00000  Uiso   1.00
H979   H     0.54113   0.37249   0.80220   0.00000  Uiso   1.00
H980   H     0.46106   0.62581   0.69246   0.00000  Uiso   1.00
H981   H     0.63177   0.43698   0.72394   0.00000  Uiso   1.00
H982   H     0.38187   0.43687   0.72512   0.00000  Uiso   1.00
H983   H     0.36829   0.56302   0.77599   0.00000  Uiso   1.00
H984   H     0.61796   0.56309   0.77566   0.00000  Uiso   1.00
H985   H     0.63908   0.51314   0.98578   0.00000  Uiso   1.00
H986   H     0.38671   0.52496   0.91613   0.00000  Uiso   1.00
H987   H     0.42453   0.54449   0.55721   0.00000  Uiso   1.00
H988   H     0.36516   0.54443   0.51098   0.00000  Uiso   1.00
H989   H     0.55920   0.54288   0.86258   0.00000  Uiso   1.00
H990   H     0.54137   0.62983   0.80383   0.00000  Uiso   1.00
N991   N     0.38093   0.50001   0.75001   0.00000  Uiso   1.00
N992   N     0.61906   0.49998   0.75000   0.00000  Uiso   1.00
O993   O     0.46179   0.56108   0.75000   0.00000  Uiso   1.00
O994   O     0.53823   0.56107   0.75000   0.00000  Uiso   1.00
O995   O     0.44280   0.50000   0.82681   0.00000  Uiso   1.00
O996   O     0.51924   0.49999   0.82681   0.00000  Uiso   1.00
O997   O     0.46177   0.43893   0.74999   0.00000  Uiso   1.00
O998   O     0.53821   0.43892   0.74999   0.00000  Uiso   1.00
O999   O     0.48076   0.50001   0.67319   0.00000  Uiso   1.00
O1000  O     0.55720   0.50000   0.67319   0.00000  Uiso   1.00
Zn1001 Zn    0.44896   0.50001   0.75000   0.00000  Uiso   1.00
Zn1002 Zn    0.55104   0.49999   0.75000   0.00000  Uiso   1.00
C1003  C     0.45880   0.37345   0.67358   0.00000  Uiso   1.00
H1004  H     0.41955   0.37073   0.68765   0.00000  Uiso   1.00
H1005  H     0.46899   0.40663   0.66616   0.00000  Uiso   1.00
H1006  H     0.47229   0.35705   0.63472   0.00000  Uiso   1.00
O1007  O     0.62581   0.51402   0.89704   0.00000  Uiso   1.00
C1008  C     0.62459   0.47064   0.88532   0.00000  Uiso   1.00
H1009  H     0.61441   0.46646   0.84855   0.00000  Uiso   1.00
H1010  H     0.59897   0.45241   0.91751   0.00000  Uiso   1.00
C1011  C     0.33965   0.45114   0.87733   0.00000  Uiso   1.00
H1012  H     0.35045   0.45498   0.91376   0.00000  Uiso   1.00
H1013  H     0.33832   0.41726   0.86841   0.00000  Uiso   1.00
H1014  H     0.36603   0.46606   0.84358   0.00000  Uiso   1.00
O1015  O     0.46085   0.48880   0.58824   0.00000  Uiso   1.00
C1016  C     0.45789   0.44874   0.56640   0.00000  Uiso   1.00
H1017  H     0.48197   0.42646   0.57751   0.00000  Uiso   1.00
H1018  H     0.46746   0.44935   0.52230   0.00000  Uiso   1.00
C1019  C     0.40718   0.43283   0.58729   0.00000  Uiso   1.00
H1020  H     0.38278   0.45452   0.57581   0.00000  Uiso   1.00
H1021  H     0.40456   0.40138   0.57035   0.00000  Uiso   1.00
H1022  H     0.39633   0.43052   0.63108   0.00000  Uiso   1.00
C1023  C     0.83333   0.57992   0.75026   0.00000  Uiso   1.00
C1024  C     0.81714   0.52920   0.98705   0.00000  Uiso   1.00
C1025  C     0.83091   0.52907   0.93139   0.00000  Uiso   1.00
C1026  C     0.85180   0.52032   0.51241   0.00000  Uiso   1.00
C1027  C     0.90059   0.52043   0.98282   0.00000  Uiso   1.00
C1028  C     0.91411   0.52557   0.92795   0.00000  Uiso   1.00
C1029  C     0.87969   0.53392   0.90364   0.00000  Uiso   1.00
C1030  C     0.83914   0.50497   0.56445   0.00000  Uiso   1.00
C1031  C     0.92185   0.50647   0.56219   0.00000  Uiso   1.00
C1032  C     0.79546   0.52160   0.90605   0.00000  Uiso   1.00
C1033  C     0.85737   0.64581   0.77882   0.00000  Uiso   1.00
C1034  C     0.80824   0.50625   0.85073   0.00000  Uiso   1.00
C1035  C     0.85739   0.35530   0.77758   0.00000  Uiso   1.00
C1036  C     0.83462   0.37576   0.74563   0.00000  Uiso   1.00
C1037  C     0.81261   0.35352   0.71325   0.00000  Uiso   1.00
C1038  C     0.81136   0.64386   0.71652   0.00000  Uiso   1.00
C1039  C     0.83375   0.62391   0.74891   0.00000  Uiso   1.00
C1040  C     0.97994   0.46504   0.73551   0.00000  Uiso   1.00
C1041  C     0.69437   0.46501   0.73584   0.00000  Uiso   1.00
C1042  C     0.68679   0.53501   0.76429   0.00000  Uiso   1.00
C1043  C     0.97229   0.53501   0.76420   0.00000  Uiso   1.00
C1044  C     0.83381   0.42003   0.74803   0.00000  Uiso   1.00
C1045  C     0.85899   0.49933   0.64831   0.00000  Uiso   1.00
C1046  C     0.93514   0.51303   0.50795   0.00000  Uiso   1.00
C1047  C     0.87376   0.50276   0.59078   0.00000  Uiso   1.00
C1048  C     0.74757   0.52762   0.93509   0.00000  Uiso   1.00
C1049  C     0.73499   0.53783   0.98888   0.00000  Uiso   1.00
C1050  C     0.76919   0.53758   0.51513   0.00000  Uiso   1.00
H1051  H     0.94916   0.50345   0.58143   0.00000  Uiso   1.00
H1052  H     0.87446   0.37249   0.80220   0.00000  Uiso   1.00
H1053  H     0.79439   0.62581   0.69246   0.00000  Uiso   1.00
H1054  H     0.96510   0.43698   0.72394   0.00000  Uiso   1.00
H1055  H     0.71521   0.43687   0.72512   0.00000  Uiso   1.00
H1056  H     0.70162   0.56302   0.77599   0.00000  Uiso   1.00
H1057  H     0.95129   0.56309   0.77566   0.00000  Uiso   1.00
H1058  H     0.97241   0.51314   0.98578   0.00000  Uiso   1.00
H1059  H     0.72004   0.52496   0.91613   0.00000  Uiso   1.00
H1060  H     0.75787   0.54449   0.55721   0.00000  Uiso   1.00
H1061  H     0.69849   0.54443   0.51098   0.00000  Uiso   1.00
H1062  H     0.89254   0.54288   0.86258   0.00000  Uiso   1.00
H1063  H     0.87470   0.62983   0.80383   0.00000  Uiso   1.00
N1064  N     0.71426   0.50001   0.75001   0.00000  Uiso   1.00
N1065  N     0.95239   0.49998   0.75000   0.00000  Uiso   1.00
O1066  O     0.79512   0.56108   0.75000   0.00000  Uiso   1.00
O1067  O     0.87157   0.56107   0.75000   0.00000  Uiso   1.00
O1068  O     0.77613   0.50000   0.82681   0.00000  Uiso   1.00
O1069  O     0.85258   0.49999   0.82681   0.00000  Uiso   1.00
O1070  O     0.79510   0.43893   0.74999   0.00000  Uiso   1.00
O1071  O     0.87154   0.43892   0.74999   0.00000  Uiso   1.00
O1072  O     0.81409   0.50001   0.67319   0.00000  Uiso   1.00
O1073  O     0.89053   0.50000   0.67319   0.00000  Uiso   1.00
Zn1074 Zn    0.78229   0.50001   0.75000   0.00000  Uiso   1.00
Zn1075 Zn    0.88438   0.49999   0.75000   0.00000  Uiso   1.00
C1076  C     0.79213   0.37345   0.67358   0.00000  Uiso   1.00
H1077  H     0.75288   0.37073   0.68765   0.00000  Uiso   1.00
H1078  H     0.80232   0.40663   0.66616   0.00000  Uiso   1.00
H1079  H     0.80563   0.35705   0.63472   0.00000  Uiso   1.00
O1080  O     0.95915   0.51402   0.89704   0.00000  Uiso   1.00
C1081  C     0.95792   0.47064   0.88532   0.00000  Uiso   1.00
H1082  H     0.94774   0.46646   0.84855   0.00000  Uiso   1.00
H1083  H     0.93230   0.45241   0.91751   0.00000  Uiso   1.00
C1084  C     0.67298   0.45114   0.87733   0.00000  Uiso   1.00
H1085  H     0.68378   0.45498   0.91376   0.00000  Uiso   1.00
H1086  H     0.67165   0.41726   0.86841   0.00000  Uiso   1.00
H1087  H     0.69936   0.46606   0.84358   0.00000  Uiso   1.00
O1088  O     0.79418   0.48880   0.58824   0.00000  Uiso   1.00
C1089  C     0.79122   0.44874   0.56640   0.00000  Uiso   1.00
H1090  H     0.81531   0.42646   0.57751   0.00000  Uiso   1.00
H1091  H     0.80079   0.44935   0.52230   0.00000  Uiso   1.00
C1092  C     0.74051   0.43283   0.58729   0.00000  Uiso   1.00
H1093  H     0.71611   0.45452   0.57581   0.00000  Uiso   1.00
H1094  H     0.73789   0.40138   0.57035   0.00000  Uiso   1.00
H1095  H     0.72966   0.43052   0.63108   0.00000  Uiso   1.00
C1096  C     0.16666   0.91325   0.75026   0.00000  Uiso   1.00
C1097  C     0.15048   0.86253   0.98705   0.00000  Uiso   1.00
C1098  C     0.16424   0.86241   0.93139   0.00000  Uiso   1.00
C1099  C     0.18513   0.85365   0.51241   0.00000  Uiso   1.00
C1100  C     0.23392   0.85376   0.98282   0.00000  Uiso   1.00
C1101  C     0.24744   0.85890   0.92795   0.00000  Uiso   1.00
C1102  C     0.21302   0.86725   0.90364   0.00000  Uiso   1.00
C1103  C     0.17248   0.83830   0.56445   0.00000  Uiso   1.00
C1104  C     0.25518   0.83981   0.56219   0.00000  Uiso   1.00
C1105  C     0.12879   0.85494   0.90605   0.00000  Uiso   1.00
C1106  C     0.19070   0.97915   0.77882   0.00000  Uiso   1.00
C1107  C     0.14157   0.83958   0.85073   0.00000  Uiso   1.00
C1108  C     0.19073   0.68863   0.77758   0.00000  Uiso   1.00
C1109  C     0.16795   0.70909   0.74563   0.00000  Uiso   1.00
C1110  C     0.14594   0.68686   0.71325   0.00000  Uiso   1.00
C1111  C     0.14469   0.97719   0.71652   0.00000  Uiso   1.00
C1112  C     0.16708   0.95725   0.74891   0.00000  Uiso   1.00
C1113  C     0.31328   0.79838   0.73551   0.00000  Uiso   1.00
C1114  C     0.02770   0.79835   0.73584   0.00000  Uiso   1.00
C1115  C     0.02012   0.86834   0.76429   0.00000  Uiso   1.00
C1116  C     0.30562   0.86835   0.76420   0.00000  Uiso   1.00
C1117  C     0.16714   0.75337   0.74803   0.00000  Uiso   1.00
C1118  C     0.19232   0.83266   0.64831   0.00000  Uiso   1.00
C1119  C     0.26847   0.84636   0.50795   0.00000  Uiso   1.00
C1120  C     0.20709   0.83609   0.59078   0.00000  Uiso   1.00
C1121  C     0.08091   0.86095   0.93509   0.00000  Uiso   1.00
C1122  C     0.06833   0.87116   0.98888   0.00000  Uiso   1.00
C1123  C     0.10252   0.87092   0.51513   0.00000  Uiso   1.00
H1124  H     0.28249   0.83679   0.58143   0.00000  Uiso   1.00
H1125  H     0.20780   0.70582   0.80220   0.00000  Uiso   1.00
H1126  H     0.12773   0.95915   0.69246   0.00000  Uiso   1.00
H1127  H     0.29843   0.77031   0.72394   0.00000  Uiso   1.00
H1128  H     0.04854   0.77020   0.72512   0.00000  Uiso   1.00
H1129  H     0.03495   0.89636   0.77599   0.00000  Uiso   1.00
H1130  H     0.28463   0.89642   0.77566   0.00000  Uiso   1.00
H1131  H     0.30574   0.84647   0.98578   0.00000  Uiso   1.00
H1132  H     0.05337   0.85829   0.91613   0.00000  Uiso   1.00
H1133  H     0.09120   0.87783   0.55721   0.00000  Uiso   1.00
H1134  H     0.03182   0.87776   0.51098   0.00000  Uiso   1.00
H1135  H     0.22587   0.87621   0.86258   0.00000  Uiso   1.00
H1136  H     0.20803   0.96316   0.80383   0.00000  Uiso   1.00
N1137  N     0.04760   0.83334   0.75001   0.00000  Uiso   1.00
N1138  N     0.28573   0.83331   0.75000   0.00000  Uiso   1.00
O1139  O     0.12846   0.89442   0.75000   0.00000  Uiso   1.00
O1140  O     0.20490   0.89441   0.75000   0.00000  Uiso   1.00
O1141  O     0.10947   0.83333   0.82681   0.00000  Uiso   1.00
O1142  O     0.18591   0.83332   0.82681   0.00000  Uiso   1.00
O1143  O     0.12843   0.77226   0.74999   0.00000  Uiso   1.00
O1144  O     0.20488   0.77225   0.74999   0.00000  Uiso   1.00
O1145  O     0.14742   0.83335   0.67319   0.00000  Uiso   1.00
O1146  O     0.22387   0.83334   0.67319   0.00000  Uiso   1.00
Zn1147 Zn    0.11562   0.83334   0.75000   0.00000  Uiso   1.00
Zn1148 Zn    0.21771   0.83333   0.75000   0.00000  Uiso   1.00
C1149  C     0.12547   0.70678   0.67358   0.00000  Uiso   1.00
H1150  H     0.08621   0.70406   0.68765   0.00000  Uiso   1.00
H1151  H     0.13566   0.73997   0.66616   0.00000  Uiso   1.00
H1152  H     0.13896   0.69038   0.63472   0.00000  Uiso   1.00
O1153  O     0.29248   0.84735   0.89704   0.00000  Uiso   1.00
C1154  C     0.29125   0.80398   0.88532   0.00000  Uiso   1.00
H1155  H     0.28108   0.79979   0.84855   0.00000  Uiso   1.00
H1156  H     0.26564   0.78575   0.91751   0.00000  Uiso   1.00
C1157  C     0.00631   0.78447   0.87733   0.00000  Uiso   1.00
H1158  H     0.01711   0.78832   0.91376   0.00000  Uiso   1.00
H1159  H     0.00498   0.75060   0.86841   0.00000  Uiso   1.00
H1160  H     0.03270   0.79939   0.84358   0.00000  Uiso   1.00
O1161  O     0.12752   0.82213   0.58824   0.00000  Uiso   1.00
C1162  C     0.12456   0.78207   0.56640   0.00000  Uiso   1.00
H1163  H     0.14864   0.75979   0.57751   0.00000  Uiso   1.00
H1164  H     0.13412   0.78269   0.52230   0.00000  Uiso   1.00
C1165  C     0.07384   0.76616   0.58729   0.00000  Uiso   1.00
H1166  H     0.04945   0.78785   0.57581   0.00000  Uiso   1.00
H1167  H     0.07122   0.73472   0.57035   0.00000  Uiso   1.00
H1168  H     0.06299   0.76385   0.63108   0.00000  Uiso   1.00
C1169  C     0.49999   0.91325   0.75026   0.00000  Uiso   1.00
C1170  C     0.48381   0.86253   0.98705   0.00000  Uiso   1.00
C1171  C     0.49757   0.86241   0.93139   0.00000  Uiso   1.00
C1172  C     0.51846   0.85365   0.51241   0.00000  Uiso   1.00
C1173  C     0.56726   0.85376   0.98282   0.00000  Uiso   1.00
C1174  C     0.58078   0.85890   0.92795   0.00000  Uiso   1.00
C1175  C     0.54636   0.86725   0.90364   0.00000  Uiso   1.00
C1176  C     0.50581   0.83830   0.56445   0.00000  Uiso   1.00
C1177  C     0.58851   0.83981   0.56219   0.00000  Uiso   1.00
C1178  C     0.46213   0.85494   0.90605   0.00000  Uiso   1.00
C1179  C     0.52403   0.97915   0.77882   0.00000  Uiso   1.00
C1180  C     0.47491   0.83958   0.85073   0.00000  Uiso   1.00
C1181  C     0.52406   0.68863   0.77758   0.00000  Uiso   1.00
C1182  C     0.50128   0.70909   0.74563   0.00000  Uiso   1.00
C1183  C     0.47928   0.68686   0.71325   0.00000  Uiso   1.00
C1184  C     0.47803   0.97719   0.71652   0.00000  Uiso   1.00
C1185  C     0.50042   0.95725   0.74891   0.00000  Uiso   1.00
C1186  C     0.64661   0.79838   0.73551   0.00000  Uiso   1.00
C1187  C     0.36104   0.79835   0.73584   0.00000  Uiso   1.00
C1188  C     0.35346   0.86834   0.76429   0.00000  Uiso   1.00
C1189  C     0.63895   0.86835   0.76420   0.00000  Uiso   1.00
C1190  C     0.50048   0.75337   0.74803   0.00000  Uiso   1.00
C1191  C     0.52565   0.83266   0.64831   0.00000  Uiso   1.00
C1192  C     0.60180   0.84636   0.50795   0.00000  Uiso   1.00
C1193  C     0.54043   0.83609   0.59078   0.00000  Uiso   1.00
C1194  C     0.41424   0.86095   0.93509   0.00000  Uiso   1.00
C1195  C     0.40166   0.87116   0.98888   0.00000  Uiso   1.00
C1196  C     0.43586   0.87092   0.51513   0.00000  Uiso   1.00
H1197  H     0.61582   0.83679   0.58143   0.00000  Uiso   1.00
H1198  H     0.54113   0.70582   0.80220   0.00000  Uiso   1.00
H1199  H     0.46106   0.95915   0.69246   0.00000  Uiso   1.00
H1200  H     0.63177   0.77031   0.72394   0.00000  Uiso   1.00
H1201  H     0.38187   0.77020   0.72512   0.00000  Uiso   1.00
H1202  H     0.36829   0.89636   0.77599   0.00000  Uiso   1.00
H1203  H     0.61796   0.89642   0.77566   0.00000  Uiso   1.00
H1204  H     0.63908   0.84647   0.98578   0.00000  Uiso   1.00
H1205  H     0.38671   0.85829   0.91613   0.00000  Uiso   1.00
H1206  H     0.42453   0.87783   0.55721   0.00000  Uiso   1.00
H1207  H     0.36516   0.87776   0.51098   0.00000  Uiso   1.00
H1208  H     0.55920   0.87621   0.86258   0.00000  Uiso   1.00
H1209  H     0.54137   0.96316   0.80383   0.00000  Uiso   1.00
N1210  N     0.38093   0.83334   0.75001   0.00000  Uiso   1.00
N1211  N     0.61906   0.83331   0.75000   0.00000  Uiso   1.00
O1212  O     0.46179   0.89442   0.75000   0.00000  Uiso   1.00
O1213  O     0.53823   0.89441   0.75000   0.00000  Uiso   1.00
O1214  O     0.44280   0.83333   0.82681   0.00000  Uiso   1.00
O1215  O     0.51924   0.83332   0.82681   0.00000  Uiso   1.00
O1216  O     0.46177   0.77226   0.74999   0.00000  Uiso   1.00
O1217  O     0.53821   0.77225   0.74999   0.00000  Uiso   1.00
O1218  O     0.48076   0.83335   0.67319   0.00000  Uiso   1.00
O1219  O     0.55720   0.83334   0.67319   0.00000  Uiso   1.00
Zn1220 Zn    0.44896   0.83334   0.75000   0.00000  Uiso   1.00
Zn1221 Zn    0.55104   0.83333   0.75000   0.00000  Uiso   1.00
C1222  C     0.45880   0.70678   0.67358   0.00000  Uiso   1.00
H1223  H     0.41955   0.70406   0.68765   0.00000  Uiso   1.00
H1224  H     0.46899   0.73997   0.66616   0.00000  Uiso   1.00
H1225  H     0.47229   0.69038   0.63472   0.00000  Uiso   1.00
O1226  O     0.62581   0.84735   0.89704   0.00000  Uiso   1.00
C1227  C     0.62459   0.80398   0.88532   0.00000  Uiso   1.00
H1228  H     0.61441   0.79979   0.84855   0.00000  Uiso   1.00
H1229  H     0.59897   0.78575   0.91751   0.00000  Uiso   1.00
C1230  C     0.33965   0.78447   0.87733   0.00000  Uiso   1.00
H1231  H     0.35045   0.78832   0.91376   0.00000  Uiso   1.00
H1232  H     0.33832   0.75060   0.86841   0.00000  Uiso   1.00
H1233  H     0.36603   0.79939   0.84358   0.00000  Uiso   1.00
O1234  O     0.46085   0.82213   0.58824   0.00000  Uiso   1.00
C1235  C     0.45789   0.78207   0.56640   0.00000  Uiso   1.00
H1236  H     0.48197   0.75979   0.57751   0.00000  Uiso   1.00
H1237  H     0.46746   0.78269   0.52230   0.00000  Uiso   1.00
C1238  C     0.40718   0.76616   0.58729   0.00000  Uiso   1.00
H1239  H     0.38278   0.78785   0.57581   0.00000  Uiso   1.00
H1240  H     0.40456   0.73472   0.57035   0.00000  Uiso   1.00
H1241  H     0.39633   0.76385   0.63108   0.00000  Uiso   1.00
C1242  C     0.83333   0.91325   0.75026   0.00000  Uiso   1.00
C1243  C     0.81714   0.86253   0.98705   0.00000  Uiso   1.00
C1244  C     0.83091   0.86241   0.93139   0.00000  Uiso   1.00
C1245  C     0.85180   0.85365   0.51241   0.00000  Uiso   1.00
C1246  C     0.90059   0.85376   0.98282   0.00000  Uiso   1.00
C1247  C     0.91411   0.85890   0.92795   0.00000  Uiso   1.00
C1248  C     0.87969   0.86725   0.90364   0.00000  Uiso   1.00
C1249  C     0.83914   0.83830   0.56445   0.00000  Uiso   1.00
C1250  C     0.92185   0.83981   0.56219   0.00000  Uiso   1.00
C1251  C     0.79546   0.85494   0.90605   0.00000  Uiso   1.00
C1252  C     0.85737   0.97915   0.77882   0.00000  Uiso   1.00
C1253  C     0.80824   0.83958   0.85073   0.00000  Uiso   1.00
C1254  C     0.85739   0.68863   0.77758   0.00000  Uiso   1.00
C1255  C     0.83462   0.70909   0.74563   0.00000  Uiso   1.00
C1256  C     0.81261   0.68686   0.71325   0.00000  Uiso   1.00
C1257  C     0.81136   0.97719   0.71652   0.00000  Uiso   1.00
C1258  C     0.83375   0.95725   0.74891   0.00000  Uiso   1.00
C1259  C     0.97994   0.79838   0.73551   0.00000  Uiso   1.00
C1260  C     0.69437   0.79835   0.73584   0.00000  Uiso   1.00
C1261  C     0.68679   0.86834   0.76429   0.00000  Uiso   1.00
C1262  C     0.97229   0.86835   0.76420   0.00000  Uiso   1.00
C1263  C     0.83381   0.75337   0.74803   0.00000  Uiso   1.00
C1264  C     0.85899   0.83266   0.64831   0.00000  Uiso   1.00
C1265  C     0.93514   0.84636   0.50795   0.00000  Uiso   1.00
C1266  C     0.87376   0.83609   0.59078   0.00000  Uiso   1.00
C1267  C     0.74757   0.86095   0.93509   0.00000  Uiso   1.00
C1268  C     0.73499   0.87116   0.98888   0.00000  Uiso   1.00
C1269  C     0.76919   0.87092   0.51513   0.00000  Uiso   1.00
H1270  H     0.94916   0.83679   0.58143   0.00000  Uiso   1.00
H1271  H     0.87446   0.70582   0.80220   0.00000  Uiso   1.00
H1272  H     0.79439   0.95915   0.69246   0.00000  Uiso   1.00
H1273  H     0.96510   0.77031   0.72394   0.00000  Uiso   1.00
H1274  H     0.71521   0.77020   0.72512   0.00000  Uiso   1.00
H1275  H     0.70162   0.89636   0.77599   0.00000  Uiso   1.00
H1276  H     0.95129   0.89642   0.77566   0.00000  Uiso   1.00
H1277  H     0.97241   0.84647   0.98578   0.00000  Uiso   1.00
H1278  H     0.72004   0.85829   0.91613   0.00000  Uiso   1.00
H1279  H     0.75787   0.87783   0.55721   0.00000  Uiso   1.00
H1280  H     0.69849   0.87776   0.51098   0.00000  Uiso   1.00
H1281  H     0.89254   0.87621   0.86258   0.00000  Uiso   1.00
H1282  H     0.87470   0.96316   0.80383   0.00000  Uiso   1.00
N1283  N     0.71426   0.83334   0.75001   0.00000  Uiso   1.00
N1284  N     0.95239   0.83331   0.75000   0.00000  Uiso   1.00
O1285  O     0.79512   0.89442   0.75000   0.00000  Uiso   1.00
O1286  O     0.87157   0.89441   0.75000   0.00000  Uiso   1.00
O1287  O     0.77613   0.83333   0.82681   0.00000  Uiso   1.00
O1288  O     0.85258   0.83332   0.82681   0.00000  Uiso   1.00
O1289  O     0.79510   0.77226   0.74999   0.00000  Uiso   1.00
O1290  O     0.87154   0.77225   0.74999   0.00000  Uiso   1.00
O1291  O     0.81409   0.83335   0.67319   0.00000  Uiso   1.00
O1292  O     0.89053   0.83334   0.67319   0.00000  Uiso   1.00
Zn1293 Zn    0.78229   0.83334   0.75000   0.00000  Uiso   1.00
Zn1294 Zn    0.88438   0.83333   0.75000   0.00000  Uiso   1.00
C1295  C     0.79213   0.70678   0.67358   0.00000  Uiso   1.00
H1296  H     0.75288   0.70406   0.68765   0.00000  Uiso   1.00
H1297  H     0.80232   0.73997   0.66616   0.00000  Uiso   1.00
H1298  H     0.80563   0.69038   0.63472   0.00000  Uiso   1.00
O1299  O     0.95915   0.84735   0.89704   0.00000  Uiso   1.00
C1300  C     0.95792   0.80398   0.88532   0.00000  Uiso   1.00
H1301  H     0.94774   0.79979   0.84855   0.00000  Uiso   1.00
H1302  H     0.93230   0.78575   0.91751   0.00000  Uiso   1.00
C1303  C     0.67298   0.78447   0.87733   0.00000  Uiso   1.00
H1304  H     0.68378   0.78832   0.91376   0.00000  Uiso   1.00
H1305  H     0.67165   0.75060   0.86841   0.00000  Uiso   1.00
H1306  H     0.69936   0.79939   0.84358   0.00000  Uiso   1.00
O1307  O     0.79418   0.82213   0.58824   0.00000  Uiso   1.00
C1308  C     0.79122   0.78207   0.56640   0.00000  Uiso   1.00
H1309  H     0.81531   0.75979   0.57751   0.00000  Uiso   1.00
H1310  H     0.80079   0.78269   0.52230   0.00000  Uiso   1.00
C1311  C     0.74051   0.76616   0.58729   0.00000  Uiso   1.00
H1312  H     0.71611   0.78785   0.57581   0.00000  Uiso   1.00
H1313  H     0.73789   0.73472   0.57035   0.00000  Uiso   1.00
H1314  H     0.72966   0.76385   0.63108   0.00000  Uiso   1.00
loop_
_geom_bond_atom_site_label_1
_geom_bond_atom_site_label_2
_geom_bond_distance
_geom_bond_site_symmetry_2
_ccdc_geom_bond_type
C1     O44     1.282   .     A
C1     O45     1.282   .     A
C1     C17     1.408   .     S
C2     C3      1.403   .     A
C2     C661    1.416   .     S
C2     C685    1.412   .     S
C3     C10     1.426   .     A
C3     C7      1.415   .     A
C4     C8      1.404   .     A
C4     C659    1.416   1_554 S
C4     C662    1.417   1_554 S
C5     C6      1.394   .     A
C5     C661    1.417   .     S
C5     C681    1.400   .     S
C6     O58     1.384   .     S
C6     C7      1.388   .     A
C7     H40     1.076   .     S
C8     O66     1.387   .     S
C8     C25     1.406   .     A
C9     H29     1.083   .     S
C9     C25     1.398   .     A
C9     C24     1.384   .     A
C10    C12     1.476   .     S
C10    C26     1.404   .     A
C11    H41     1.084   .     S
C11    C17     1.390   .     A
C11    C232    1.370   .     S
C12    O47     1.286   .     A
C12    O46     1.306   .     A
C13    C14     1.398   .     A
C13    H30     1.084   .     S
C13    C449    1.370   1_545 S
C14    C15     1.412   .     A
C14    C22     1.417   .     S
C15    C54     1.508   .     S
C15    C454    1.379   1_545 S
C16    H31     1.086   .     S
C16    C17     1.392   .     A
C16    C234    1.379   .     S
C18    N43     1.367   .     A
C18    H32     1.081   .     S
C18    C92     1.416   .     S
C19    N42     1.366   .     A
C19    H33     1.079   .     S
C19    C164    1.416   1_455 S
C20    N42     1.367   .     A
C20    H34     1.081   .     S
C20    C167    1.416   1_455 S
C21    H35     1.081   .     S
C21    N43     1.367   .     A
C21    C93     1.416   .     S
C22    O48     1.283   .     A
C22    O49     1.283   .     A
C23    C25     1.454   .     S
C23    O50     1.290   .     A
C23    O51     1.296   .     A
C24    C662    1.400   1_554 S
C24    H693    1.080   1_554 S
C26    H37     1.082   .     S
C26    C27     1.393   .     A
C27    C685    1.391   .     S
C27    H696    1.080   .     S
C28    H38     1.081   .     S
C28    C659    1.412   1_554 S
C28    C684    1.391   1_554 S
H36    C681    1.080   .     S
H39    C684    1.080   1_554 S
N42    Zn52    2.013   .     S
N43    Zn53    2.013   .     S
O44    Zn52    1.990   .     S
O45    Zn53    1.991   .     S
O46    Zn52    1.984   .     S
O47    Zn53    1.961   .     S
O48    Zn52    1.991   .     S
O49    Zn53    1.990   .     S
O50    Zn52    1.961   .     S
O51    Zn53    1.984   .     S
C54    H56     1.105   .     S
C54    H55     1.110   .     S
C54    H57     1.111   .     S
O58    C59     1.422   .     S
C59    H60     1.110   .     S
C59    H61     1.119   .     S
C59    C135    1.517   .     S
C62    H63     1.110   .     S
C62    H64     1.110   .     S
C62    H65     1.102   .     S
C62    C205    1.517   1_455 S
O66    C67     1.416   .     S
C67    C70     1.520   .     S
C67    H68     1.112   .     S
C67    H69     1.114   .     S
C70    H73     1.107   .     S
C70    H71     1.111   .     S
C70    H72     1.110   .     S
C74    O117    1.282   .     A
C74    O118    1.282   .     A
C74    C90     1.408   .     S
C75    C76     1.403   .     A
C75    C734    1.416   .     S
C75    C758    1.412   .     S
C76    C83     1.426   .     A
C76    C80     1.415   .     A
C77    C81     1.404   .     A
C77    C732    1.416   1_554 S
C77    C735    1.417   1_554 S
C78    C79     1.394   .     A
C78    C734    1.417   .     S
C78    C754    1.400   .     S
C79    O131    1.384   .     S
C79    C80     1.388   .     A
C80    H113    1.076   .     S
C81    O139    1.387   .     S
C81    C98     1.406   .     A
C82    H102    1.083   .     S
C82    C98     1.398   .     A
C82    C97     1.384   .     A
C83    C85     1.476   .     S
C83    C99     1.404   .     A
C84    H114    1.084   .     S
C84    C90     1.390   .     A
C84    C305    1.370   .     S
C85    O120    1.286   .     A
C85    O119    1.306   .     A
C86    C87     1.398   .     A
C86    H103    1.084   .     S
C86    C522    1.370   1_545 S
C87    C88     1.412   .     A
C87    C95     1.417   .     S
C88    C127    1.508   .     S
C88    C527    1.379   1_545 S
C89    H104    1.086   .     S
C89    C90     1.392   .     A
C89    C307    1.379   .     S
C91    N116    1.367   .     A
C91    H105    1.081   .     S
C91    C165    1.416   .     S
C92    N115    1.366   .     A
C92    H106    1.079   .     S
C93    N115    1.367   .     A
C93    H107    1.081   .     S
C94    H108    1.081   .     S
C94    N116    1.367   .     A
C94    C166    1.416   .     S
C95    O121    1.283   .     A
C95    O122    1.283   .     A
C96    C98     1.454   .     S
C96    O123    1.290   .     A
C96    O124    1.296   .     A
C97    C735    1.400   1_554 S
C97    H766    1.080   1_554 S
C99    H110    1.082   .     S
C99    C100    1.393   .     A
C100   C758    1.391   .     S
C100   H769    1.080   .     S
C101   H111    1.081   .     S
C101   C732    1.412   1_554 S
C101   C757    1.391   1_554 S
H109   C754    1.080   .     S
H112   C757    1.080   1_554 S
N115   Zn125   2.013   .     S
N116   Zn126   2.013   .     S
O117   Zn125   1.990   .     S
O118   Zn126   1.991   .     S
O119   Zn125   1.984   .     S
O120   Zn126   1.961   .     S
O121   Zn125   1.991   .     S
O122   Zn126   1.990   .     S
O123   Zn125   1.961   .     S
O124   Zn126   1.984   .     S
C127   H129    1.105   .     S
C127   H128    1.110   .     S
C127   H130    1.111   .     S
O131   C132    1.422   .     S
C132   H133    1.110   .     S
C132   H134    1.119   .     S
C132   C208    1.517   .     S
C135   H136    1.110   .     S
C135   H137    1.110   .     S
C135   H138    1.102   .     S
O139   C140    1.416   .     S
C140   C143    1.520   .     S
C140   H141    1.112   .     S
C140   H142    1.114   .     S
C143   H146    1.107   .     S
C143   H144    1.111   .     S
C143   H145    1.110   .     S
C147   O190    1.282   .     A
C147   O191    1.282   .     A
C147   C163    1.408   .     S
C148   C149    1.403   .     A
C148   C807    1.416   .     S
C148   C831    1.412   .     S
C149   C156    1.426   .     A
C149   C153    1.415   .     A
C150   C154    1.404   .     A
C150   C805    1.416   1_554 S
C150   C808    1.417   1_554 S
C151   C152    1.394   .     A
C151   C807    1.417   .     S
C151   C827    1.400   .     S
C152   O204    1.384   .     S
C152   C153    1.388   .     A
C153   H186    1.076   .     S
C154   O212    1.387   .     S
C154   C171    1.406   .     A
C155   H175    1.083   .     S
C155   C171    1.398   .     A
C155   C170    1.384   .     A
C156   C158    1.476   .     S
C156   C172    1.404   .     A
C157   H187    1.084   .     S
C157   C163    1.390   .     A
C157   C378    1.370   .     S
C158   O193    1.286   .     A
C158   O192    1.306   .     A
C159   C160    1.398   .     A
C159   H176    1.084   .     S
C159   C595    1.370   1_545 S
C160   C161    1.412   .     A
C160   C168    1.417   .     S
C161   C200    1.508   .     S
C161   C600    1.379   1_545 S
C162   H177    1.086   .     S
C162   C163    1.392   .     A
C162   C380    1.379   .     S
C164   N189    1.367   .     A
C164   H178    1.081   .     S
C164   C19     1.416   1_655 S
C165   N188    1.366   .     A
C165   H179    1.079   .     S
C166   N188    1.367   .     A
C166   H180    1.081   .     S
C167   H181    1.081   .     S
C167   N189    1.367   .     A
C167   C20     1.416   1_655 S
C168   O194    1.283   .     A
C168   O195    1.283   .     A
C169   C171    1.454   .     S
C169   O196    1.290   .     A
C169   O197    1.296   .     A
C170   C808    1.400   1_554 S
C170   H839    1.080   1_554 S
C172   H183    1.082   .     S
C172   C173    1.393   .     A
C173   C831    1.391   .     S
C173   H842    1.080   .     S
C174   H184    1.081   .     S
C174   C805    1.412   1_554 S
C174   C830    1.391   1_554 S
H182   C827    1.080   .     S
H185   C830    1.080   1_554 S
N188   Zn198   2.013   .     S
N189   Zn199   2.013   .     S
O190   Zn198   1.990   .     S
O191   Zn199   1.991   .     S
O192   Zn198   1.984   .     S
O193   Zn199   1.961   .     S
O194   Zn198   1.991   .     S
O195   Zn199   1.990   .     S
O196   Zn198   1.961   .     S
O197   Zn199   1.984   .     S
C200   H202    1.105   .     S
C200   H201    1.110   .     S
C200   H203    1.111   .     S
O204   C205    1.422   .     S
C205   H206    1.110   .     S
C205   H207    1.119   .     S
C205   C62     1.517   1_655 S
C208   H209    1.110   .     S
C208   H210    1.110   .     S
C208   H211    1.102   .     S
O212   C213    1.416   .     S
C213   C216    1.520   .     S
C213   H214    1.112   .     S
C213   H215    1.114   .     S
C216   H219    1.107   .     S
C216   H217    1.111   .     S
C216   H218    1.110   .     S
C220   O263    1.282   .     A
C220   O264    1.282   .     A
C220   C236    1.408   .     S
C221   C222    1.403   .     A
C221   C880    1.416   .     S
C221   C904    1.412   .     S
C222   C229    1.426   .     A
C222   C226    1.415   .     A
C223   C227    1.404   .     A
C223   C878    1.416   1_554 S
C223   C881    1.417   1_554 S
C224   C225    1.394   .     A
C224   C880    1.417   .     S
C224   C900    1.400   .     S
C225   O277    1.384   .     S
C225   C226    1.388   .     A
C226   H259    1.076   .     S
C227   O285    1.387   .     S
C227   C244    1.406   .     A
C228   H248    1.083   .     S
C228   C244    1.398   .     A
C228   C243    1.384   .     A
C229   C231    1.476   .     S
C229   C245    1.404   .     A
C230   H260    1.084   .     S
C230   C236    1.390   .     A
C230   C451    1.370   .     S
C231   O266    1.286   .     A
C231   O265    1.306   .     A
C232   C233    1.398   .     A
C232   H249    1.084   .     S
C233   C234    1.412   .     A
C233   C241    1.417   .     S
C234   C273    1.508   .     S
C235   H250    1.086   .     S
C235   C236    1.392   .     A
C235   C453    1.379   .     S
C237   N262    1.367   .     A
C237   H251    1.081   .     S
C237   C311    1.416   .     S
C238   N261    1.366   .     A
C238   H252    1.079   .     S
C238   C383    1.416   1_455 S
C239   N261    1.367   .     A
C239   H253    1.081   .     S
C239   C386    1.416   1_455 S
C240   H254    1.081   .     S
C240   N262    1.367   .     A
C240   C312    1.416   .     S
C241   O267    1.283   .     A
C241   O268    1.283   .     A
C242   C244    1.454   .     S
C242   O269    1.290   .     A
C242   O270    1.296   .     A
C243   C881    1.400   1_554 S
C243   H912    1.080   1_554 S
C245   H256    1.082   .     S
C245   C246    1.393   .     A
C246   C904    1.391   .     S
C246   H915    1.080   .     S
C247   H257    1.081   .     S
C247   C878    1.412   1_554 S
C247   C903    1.391   1_554 S
H255   C900    1.080   .     S
H258   C903    1.080   1_554 S
N261   Zn271   2.013   .     S
N262   Zn272   2.013   .     S
O263   Zn271   1.990   .     S
O264   Zn272   1.991   .     S
O265   Zn271   1.984   .     S
O266   Zn272   1.961   .     S
O267   Zn271   1.991   .     S
O268   Zn272   1.990   .     S
O269   Zn271   1.961   .     S
O270   Zn272   1.984   .     S
C273   H275    1.105   .     S
C273   H274    1.110   .     S
C273   H276    1.111   .     S
O277   C278    1.422   .     S
C278   H279    1.110   .     S
C278   H280    1.119   .     S
C278   C354    1.517   .     S
C281   H282    1.110   .     S
C281   H283    1.110   .     S
C281   H284    1.102   .     S
C281   C424    1.517   1_455 S
O285   C286    1.416   .     S
C286   C289    1.520   .     S
C286   H287    1.112   .     S
C286   H288    1.114   .     S
C289   H292    1.107   .     S
C289   H290    1.111   .     S
C289   H291    1.110   .     S
C293   O336    1.282   .     A
C293   O337    1.282   .     A
C293   C309    1.408   .     S
C294   C295    1.403   .     A
C294   C953    1.416   .     S
C294   C977    1.412   .     S
C295   C302    1.426   .     A
C295   C299    1.415   .     A
C296   C300    1.404   .     A
C296   C951    1.416   1_554 S
C296   C954    1.417   1_554 S
C297   C298    1.394   .     A
C297   C953    1.417   .     S
C297   C973    1.400   .     S
C298   O350    1.384   .     S
C298   C299    1.388   .     A
C299   H332    1.076   .     S
C300   O358    1.387   .     S
C300   C317    1.406   .     A
C301   H321    1.083   .     S
C301   C317    1.398   .     A
C301   C316    1.384   .     A
C302   C304    1.476   .     S
C302   C318    1.404   .     A
C303   H333    1.084   .     S
C303   C309    1.390   .     A
C303   C524    1.370   .     S
C304   O339    1.286   .     A
C304   O338    1.306   .     A
C305   C306    1.398   .     A
C305   H322    1.084   .     S
C306   C307    1.412   .     A
C306   C314    1.417   .     S
C307   C346    1.508   .     S
C308   H323    1.086   .     S
C308   C309    1.392   .     A
C308   C526    1.379   .     S
C310   N335    1.367   .     A
C310   H324    1.081   .     S
C310   C384    1.416   .     S
C311   N334    1.366   .     A
C311   H325    1.079   .     S
C312   N334    1.367   .     A
C312   H326    1.081   .     S
C313   H327    1.081   .     S
C313   N335    1.367   .     A
C313   C385    1.416   .     S
C314   O340    1.283   .     A
C314   O341    1.283   .     A
C315   C317    1.454   .     S
C315   O342    1.290   .     A
C315   O343    1.296   .     A
C316   C954    1.400   1_554 S
C316   H985    1.080   1_554 S
C318   H329    1.082   .     S
C318   C319    1.393   .     A
C319   C977    1.391   .     S
C319   H988    1.080   .     S
C320   H330    1.081   .     S
C320   C951    1.412   1_554 S
C320   C976    1.391   1_554 S
H328   C973    1.080   .     S
H331   C976    1.080   1_554 S
N334   Zn344   2.013   .     S
N335   Zn345   2.013   .     S
O336   Zn344   1.990   .     S
O337   Zn345   1.991   .     S
O338   Zn344   1.984   .     S
O339   Zn345   1.961   .     S
O340   Zn344   1.991   .     S
O341   Zn345   1.990   .     S
O342   Zn344   1.961   .     S
O343   Zn345   1.984   .     S
C346   H348    1.105   .     S
C346   H347    1.110   .     S
C346   H349    1.111   .     S
O350   C351    1.422   .     S
C351   H352    1.110   .     S
C351   H353    1.119   .     S
C351   C427    1.517   .     S
C354   H355    1.110   .     S
C354   H356    1.110   .     S
C354   H357    1.102   .     S
O358   C359    1.416   .     S
C359   C362    1.520   .     S
C359   H360    1.112   .     S
C359   H361    1.114   .     S
C362   H365    1.107   .     S
C362   H363    1.111   .     S
C362   H364    1.110   .     S
C366   O409    1.282   .     A
C366   O410    1.282   .     A
C366   C382    1.408   .     S
C367   C368    1.403   .     A
C367   C1026   1.416   .     S
C367   C1050   1.412   .     S
C368   C375    1.426   .     A
C368   C372    1.415   .     A
C369   C373    1.404   .     A
C369   C1024   1.416   1_554 S
C369   C1027   1.417   1_554 S
C370   C371    1.394   .     A
C370   C1026   1.417   .     S
C370   C1046   1.400   .     S
C371   O423    1.384   .     S
C371   C372    1.388   .     A
C372   H405    1.076   .     S
C373   O431    1.387   .     S
C373   C390    1.406   .     A
C374   H394    1.083   .     S
C374   C390    1.398   .     A
C374   C389    1.384   .     A
C375   C377    1.476   .     S
C375   C391    1.404   .     A
C376   H406    1.084   .     S
C376   C382    1.390   .     A
C376   C597    1.370   .     S
C377   O412    1.286   .     A
C377   O411    1.306   .     A
C378   C379    1.398   .     A
C378   H395    1.084   .     S
C379   C380    1.412   .     A
C379   C387    1.417   .     S
C380   C419    1.508   .     S
C381   H396    1.086   .     S
C381   C382    1.392   .     A
C381   C599    1.379   .     S
C383   N408    1.367   .     A
C383   H397    1.081   .     S
C383   C238    1.416   1_655 S
C384   N407    1.366   .     A
C384   H398    1.079   .     S
C385   N407    1.367   .     A
C385   H399    1.081   .     S
C386   H400    1.081   .     S
C386   N408    1.367   .     A
C386   C239    1.416   1_655 S
C387   O413    1.283   .     A
C387   O414    1.283   .     A
C388   C390    1.454   .     S
C388   O415    1.290   .     A
C388   O416    1.296   .     A
C389   C1027   1.400   1_554 S
C389   H1058   1.080   1_554 S
C391   H402    1.082   .     S
C391   C392    1.393   .     A
C392   C1050   1.391   .     S
C392   H1061   1.080   .     S
C393   H403    1.081   .     S
C393   C1024   1.412   1_554 S
C393   C1049   1.391   1_554 S
H401   C1046   1.080   .     S
H404   C1049   1.080   1_554 S
N407   Zn417   2.013   .     S
N408   Zn418   2.013   .     S
O409   Zn417   1.990   .     S
O410   Zn418   1.991   .     S
O411   Zn417   1.984   .     S
O412   Zn418   1.961   .     S
O413   Zn417   1.991   .     S
O414   Zn418   1.990   .     S
O415   Zn417   1.961   .     S
O416   Zn418   1.984   .     S
C419   H421    1.105   .     S
C419   H420    1.110   .     S
C419   H422    1.111   .     S
O423   C424    1.422   .     S
C424   H425    1.110   .     S
C424   H426    1.119   .     S
C424   C281    1.517   1_655 S
C427   H428    1.110   .     S
C427   H429    1.110   .     S
C427   H430    1.102   .     S
O431   C432    1.416   .     S
C432   C435    1.520   .     S
C432   H433    1.112   .     S
C432   H434    1.114   .     S
C435   H438    1.107   .     S
C435   H436    1.111   .     S
C435   H437    1.110   .     S
C439   O482    1.282   .     A
C439   O483    1.282   .     A
C439   C455    1.408   .     S
C440   C441    1.403   .     A
C440   C1099   1.416   .     S
C440   C1123   1.412   .     S
C441   C448    1.426   .     A
C441   C445    1.415   .     A
C442   C446    1.404   .     A
C442   C1097   1.416   1_554 S
C442   C1100   1.417   1_554 S
C443   C444    1.394   .     A
C443   C1099   1.417   .     S
C443   C1119   1.400   .     S
C444   O496    1.384   .     S
C444   C445    1.388   .     A
C445   H478    1.076   .     S
C446   O504    1.387   .     S
C446   C463    1.406   .     A
C447   H467    1.083   .     S
C447   C463    1.398   .     A
C447   C462    1.384   .     A
C448   C450    1.476   .     S
C448   C464    1.404   .     A
C449   H479    1.084   .     S
C449   C455    1.390   .     A
C449   C13     1.370   1_565 S
C450   O485    1.286   .     A
C450   O484    1.306   .     A
C451   C452    1.398   .     A
C451   H468    1.084   .     S
C452   C453    1.412   .     A
C452   C460    1.417   .     S
C453   C492    1.508   .     S
C454   H469    1.086   .     S
C454   C455    1.392   .     A
C454   C15     1.379   1_565 S
C456   N481    1.367   .     A
C456   H470    1.081   .     S
C456   C530    1.416   .     S
C457   N480    1.366   .     A
C457   H471    1.079   .     S
C457   C602    1.416   1_455 S
C458   N480    1.367   .     A
C458   H472    1.081   .     S
C458   C605    1.416   1_455 S
C459   H473    1.081   .     S
C459   N481    1.367   .     A
C459   C531    1.416   .     S
C460   O486    1.283   .     A
C460   O487    1.283   .     A
C461   C463    1.454   .     S
C461   O488    1.290   .     A
C461   O489    1.296   .     A
C462   C1100   1.400   1_554 S
C462   H1131   1.080   1_554 S
C464   H475    1.082   .     S
C464   C465    1.393   .     A
C465   C1123   1.391   .     S
C465   H1134   1.080   .     S
C466   H476    1.081   .     S
C466   C1097   1.412   1_554 S
C466   C1122   1.391   1_554 S
H474   C1119   1.080   .     S
H477   C1122   1.080   1_554 S
N480   Zn490   2.013   .     S
N481   Zn491   2.013   .     S
O482   Zn490   1.990   .     S
O483   Zn491   1.991   .     S
O484   Zn490   1.984   .     S
O485   Zn491   1.961   .     S
O486   Zn490   1.991   .     S
O487   Zn491   1.990   .     S
O488   Zn490   1.961   .     S
O489   Zn491   1.984   .     S
C492   H494    1.105   .     S
C492   H493    1.110   .     S
C492   H495    1.111   .     S
O496   C497    1.422   .     S
C497   H498    1.110   .     S
C497   H499    1.119   .     S
C497   C573    1.517   .     S
C500   H501    1.110   .     S
C500   H502    1.110   .     S
C500   H503    1.102   .     S
C500   C643    1.517   1_455 S
O504   C505    1.416   .     S
C505   C508    1.520   .     S
C505   H506    1.112   .     S
C505   H507    1.114   .     S
C508   H511    1.107   .     S
C508   H509    1.111   .     S
C508   H510    1.110   .     S
C512   O555    1.282   .     A
C512   O556    1.282   .     A
C512   C528    1.408   .     S
C513   C514    1.403   .     A
C513   C1172   1.416   .     S
C513   C1196   1.412   .     S
C514   C521    1.426   .     A
C514   C518    1.415   .     A
C515   C519    1.404   .     A
C515   C1170   1.416   1_554 S
C515   C1173   1.417   1_554 S
C516   C517    1.394   .     A
C516   C1172   1.417   .     S
C516   C1192   1.400   .     S
C517   O569    1.384   .     S
C517   C518    1.388   .     A
C518   H551    1.076   .     S
C519   O577    1.387   .     S
C519   C536    1.406   .     A
C520   H540    1.083   .     S
C520   C536    1.398   .     A
C520   C535    1.384   .     A
C521   C523    1.476   .     S
C521   C537    1.404   .     A
C522   H552    1.084   .     S
C522   C528    1.390   .     A
C522   C86     1.370   1_565 S
C523   O558    1.286   .     A
C523   O557    1.306   .     A
C524   C525    1.398   .     A
C524   H541    1.084   .     S
C525   C526    1.412   .     A
C525   C533    1.417   .     S
C526   C565    1.508   .     S
C527   H542    1.086   .     S
C527   C528    1.392   .     A
C527   C88     1.379   1_565 S
C529   N554    1.367   .     A
C529   H543    1.081   .     S
C529   C603    1.416   .     S
C530   N553    1.366   .     A
C530   H544    1.079   .     S
C531   N553    1.367   .     A
C531   H545    1.081   .     S
C532   H546    1.081   .     S
C532   N554    1.367   .     A
C532   C604    1.416   .     S
C533   O559    1.283   .     A
C533   O560    1.283   .     A
C534   C536    1.454   .     S
C534   O561    1.290   .     A
C534   O562    1.296   .     A
C535   C1173   1.400   1_554 S
C535   H1204   1.080   1_554 S
C537   H548    1.082   .     S
C537   C538    1.393   .     A
C538   C1196   1.391   .     S
C538   H1207   1.080   .     S
C539   H549    1.081   .     S
C539   C1170   1.412   1_554 S
C539   C1195   1.391   1_554 S
H547   C1192   1.080   .     S
H550   C1195   1.080   1_554 S
N553   Zn563   2.013   .     S
N554   Zn564   2.013   .     S
O555   Zn563   1.990   .     S
O556   Zn564   1.991   .     S
O557   Zn563   1.984   .     S
O558   Zn564   1.961   .     S
O559   Zn563   1.991   .     S
O560   Zn564   1.990   .     S
O561   Zn563   1.961   .     S
O562   Zn564   1.984   .     S
C565   H567    1.105   .     S
C565   H566    1.110   .     S
C565   H568    1.111   .     S
O569   C570    1.422   .     S
C570   H571    1.110   .     S
C570   H572    1.119   .     S
C570   C646    1.517   .     S
C573   H574    1.110   .     S
C573   H575    1.110   .     S
C573   H576    1.102   .     S
O577   C578    1.416   .     S
C578   C581    1.520   .     S
C578   H579    1.112   .     S
C578   H580    1.114   .     S
C581   H584    1.107   .     S
C581   H582    1.111   .     S
C581   H583    1.110   .     S
C585   O628    1.282   .     A
C585   O629    1.282   .     A
C585   C601    1.408   .     S
C586   C587    1.403   .     A
C586   C1245   1.416   .     S
C586   C1269   1.412   .     S
C587   C594    1.426   .     A
C587   C591    1.415   .     A
C588   C592    1.404   .     A
C588   C1243   1.416   1_554 S
C588   C1246   1.417   1_554 S
C589   C590    1.394   .     A
C589   C1245   1.417   .     S
C589   C1265   1.400   .     S
C590   O642    1.384   .     S
C590   C591    1.388   .     A
C591   H624    1.076   .     S
C592   O650    1.387   .     S
C592   C609    1.406   .     A
C593   H613    1.083   .     S
C593   C609    1.398   .     A
C593   C608    1.384   .     A
C594   C596    1.476   .     S
C594   C610    1.404   .     A
C595   H625    1.084   .     S
C595   C601    1.390   .     A
C595   C159    1.370   1_565 S
C596   O631    1.286   .     A
C596   O630    1.306   .     A
C597   C598    1.398   .     A
C597   H614    1.084   .     S
C598   C599    1.412   .     A
C598   C606    1.417   .     S
C599   C638    1.508   .     S
C600   H615    1.086   .     S
C600   C601    1.392   .     A
C600   C161    1.379   1_565 S
C602   N627    1.367   .     A
C602   H616    1.081   .     S
C602   C457    1.416   1_655 S
C603   N626    1.366   .     A
C603   H617    1.079   .     S
C604   N626    1.367   .     A
C604   H618    1.081   .     S
C605   H619    1.081   .     S
C605   N627    1.367   .     A
C605   C458    1.416   1_655 S
C606   O632    1.283   .     A
C606   O633    1.283   .     A
C607   C609    1.454   .     S
C607   O634    1.290   .     A
C607   O635    1.296   .     A
C608   C1246   1.400   1_554 S
C608   H1277   1.080   1_554 S
C610   H621    1.082   .     S
C610   C611    1.393   .     A
C611   C1269   1.391   .     S
C611   H1280   1.080   .     S
C612   H622    1.081   .     S
C612   C1243   1.412   1_554 S
C612   C1268   1.391   1_554 S
H620   C1265   1.080   .     S
H623   C1268   1.080   1_554 S
N626   Zn636   2.013   .     S
N627   Zn637   2.013   .     S
O628   Zn636   1.990   .     S
O629   Zn637   1.991   .     S
O630   Zn636   1.984   .     S
O631   Zn637   1.961   .     S
O632   Zn636   1.991   .     S
O633   Zn637   1.990   .     S
O634   Zn636   1.961   .     S
O635   Zn637   1.984   .     S
C638   H640    1.105   .     S
C638   H639    1.110   .     S
C638   H641    1.111   .     S
O642   C643    1.422   .     S
C643   H644    1.110   .     S
C643   H645    1.119   .     S
C643   C500    1.517   1_655 S
C646   H647    1.110   .     S
C646   H648    1.110   .     S
C646   H649    1.102   .     S
O650   C651    1.416   .     S
C651   C654    1.520   .     S
C651   H652    1.112   .     S
C651   H653    1.114   .     S
C654   H657    1.107   .     S
C654   H655    1.111   .     S
C654   H656    1.110   .     S
C658   O701    1.282   .     A
C658   O702    1.282   .     A
C658   C674    1.408   .     S
C659   C660    1.403   .     A
C659   C4      1.416   1_556 S
C659   C28     1.412   1_556 S
C660   C667    1.426   .     A
C660   C664    1.415   .     A
C661   C665    1.404   .     A
C662   C663    1.394   .     A
C662   C4      1.417   1_556 S
C662   C24     1.400   1_556 S
C663   O715    1.384   .     S
C663   C664    1.388   .     A
C664   H697    1.076   .     S
C665   O723    1.387   .     S
C665   C682    1.406   .     A
C666   H686    1.083   .     S
C666   C682    1.398   .     A
C666   C681    1.384   .     A
C667   C669    1.476   .     S
C667   C683    1.404   .     A
C668   H698    1.084   .     S
C668   C674    1.390   .     A
C668   C889    1.370   .     S
C669   O704    1.286   .     A
C669   O703    1.306   .     A
C670   C671    1.398   .     A
C670   H687    1.084   .     S
C670   C1106   1.370   1_545 S
C671   C672    1.412   .     A
C671   C679    1.417   .     S
C672   C711    1.508   .     S
C672   C1111   1.379   1_545 S
C673   H688    1.086   .     S
C673   C674    1.392   .     A
C673   C891    1.379   .     S
C675   N700    1.367   .     A
C675   H689    1.081   .     S
C675   C749    1.416   .     S
C676   N699    1.366   .     A
C676   H690    1.079   .     S
C676   C821    1.416   1_455 S
C677   N699    1.367   .     A
C677   H691    1.081   .     S
C677   C824    1.416   1_455 S
C678   H692    1.081   .     S
C678   N700    1.367   .     A
C678   C750    1.416   .     S
C679   O705    1.283   .     A
C679   O706    1.283   .     A
C680   C682    1.454   .     S
C680   O707    1.290   .     A
C680   O708    1.296   .     A
C683   H694    1.082   .     S
C683   C684    1.393   .     A
C684   C28     1.391   1_556 S
C684   H39     1.080   1_556 S
C685   H695    1.081   .     S
H693   C24     1.080   1_556 S
N699   Zn709   2.013   .     S
N700   Zn710   2.013   .     S
O701   Zn709   1.990   .     S
O702   Zn710   1.991   .     S
O703   Zn709   1.984   .     S
O704   Zn710   1.961   .     S
O705   Zn709   1.991   .     S
O706   Zn710   1.990   .     S
O707   Zn709   1.961   .     S
O708   Zn710   1.984   .     S
C711   H713    1.105   .     S
C711   H712    1.110   .     S
C711   H714    1.111   .     S
O715   C716    1.422   .     S
C716   H717    1.110   .     S
C716   H718    1.119   .     S
C716   C792    1.517   .     S
C719   H720    1.110   .     S
C719   H721    1.110   .     S
C719   H722    1.102   .     S
C719   C862    1.517   1_455 S
O723   C724    1.416   .     S
C724   C727    1.520   .     S
C724   H725    1.112   .     S
C724   H726    1.114   .     S
C727   H730    1.107   .     S
C727   H728    1.111   .     S
C727   H729    1.110   .     S
C731   O774    1.282   .     A
C731   O775    1.282   .     A
C731   C747    1.408   .     S
C732   C733    1.403   .     A
C732   C77     1.416   1_556 S
C732   C101    1.412   1_556 S
C733   C740    1.426   .     A
C733   C737    1.415   .     A
C734   C738    1.404   .     A
C735   C736    1.394   .     A
C735   C77     1.417   1_556 S
C735   C97     1.400   1_556 S
C736   O788    1.384   .     S
C736   C737    1.388   .     A
C737   H770    1.076   .     S
C738   O796    1.387   .     S
C738   C755    1.406   .     A
C739   H759    1.083   .     S
C739   C755    1.398   .     A
C739   C754    1.384   .     A
C740   C742    1.476   .     S
C740   C756    1.404   .     A
C741   H771    1.084   .     S
C741   C747    1.390   .     A
C741   C962    1.370   .     S
C742   O777    1.286   .     A
C742   O776    1.306   .     A
C743   C744    1.398   .     A
C743   H760    1.084   .     S
C743   C1179   1.370   1_545 S
C744   C745    1.412   .     A
C744   C752    1.417   .     S
C745   C784    1.508   .     S
C745   C1184   1.379   1_545 S
C746   H761    1.086   .     S
C746   C747    1.392   .     A
C746   C964    1.379   .     S
C748   N773    1.367   .     A
C748   H762    1.081   .     S
C748   C822    1.416   .     S
C749   N772    1.366   .     A
C749   H763    1.079   .     S
C750   N772    1.367   .     A
C750   H764    1.081   .     S
C751   H765    1.081   .     S
C751   N773    1.367   .     A
C751   C823    1.416   .     S
C752   O778    1.283   .     A
C752   O779    1.283   .     A
C753   C755    1.454   .     S
C753   O780    1.290   .     A
C753   O781    1.296   .     A
C756   H767    1.082   .     S
C756   C757    1.393   .     A
C757   C101    1.391   1_556 S
C757   H112    1.080   1_556 S
C758   H768    1.081   .     S
H766   C97     1.080   1_556 S
N772   Zn782   2.013   .     S
N773   Zn783   2.013   .     S
O774   Zn782   1.990   .     S
O775   Zn783   1.991   .     S
O776   Zn782   1.984   .     S
O777   Zn783   1.961   .     S
O778   Zn782   1.991   .     S
O779   Zn783   1.990   .     S
O780   Zn782   1.961   .     S
O781   Zn783   1.984   .     S
C784   H786    1.105   .     S
C784   H785    1.110   .     S
C784   H787    1.111   .     S
O788   C789    1.422   .     S
C789   H790    1.110   .     S
C789   H791    1.119   .     S
C789   C865    1.517   .     S
C792   H793    1.110   .     S
C792   H794    1.110   .     S
C792   H795    1.102   .     S
O796   C797    1.416   .     S
C797   C800    1.520   .     S
C797   H798    1.112   .     S
C797   H799    1.114   .     S
C800   H803    1.107   .     S
C800   H801    1.111   .     S
C800   H802    1.110   .     S
C804   O847    1.282   .     A
C804   O848    1.282   .     A
C804   C820    1.408   .     S
C805   C806    1.403   .     A
C805   C150    1.416   1_556 S
C805   C174    1.412   1_556 S
C806   C813    1.426   .     A
C806   C810    1.415   .     A
C807   C811    1.404   .     A
C808   C809    1.394   .     A
C808   C150    1.417   1_556 S
C808   C170    1.400   1_556 S
C809   O861    1.384   .     S
C809   C810    1.388   .     A
C810   H843    1.076   .     S
C811   O869    1.387   .     S
C811   C828    1.406   .     A
C812   H832    1.083   .     S
C812   C828    1.398   .     A
C812   C827    1.384   .     A
C813   C815    1.476   .     S
C813   C829    1.404   .     A
C814   H844    1.084   .     S
C814   C820    1.390   .     A
C814   C1035   1.370   .     S
C815   O850    1.286   .     A
C815   O849    1.306   .     A
C816   C817    1.398   .     A
C816   H833    1.084   .     S
C816   C1252   1.370   1_545 S
C817   C818    1.412   .     A
C817   C825    1.417   .     S
C818   C857    1.508   .     S
C818   C1257   1.379   1_545 S
C819   H834    1.086   .     S
C819   C820    1.392   .     A
C819   C1037   1.379   .     S
C821   N846    1.367   .     A
C821   H835    1.081   .     S
C821   C676    1.416   1_655 S
C822   N845    1.366   .     A
C822   H836    1.079   .     S
C823   N845    1.367   .     A
C823   H837    1.081   .     S
C824   H838    1.081   .     S
C824   N846    1.367   .     A
C824   C677    1.416   1_655 S
C825   O851    1.283   .     A
C825   O852    1.283   .     A
C826   C828    1.454   .     S
C826   O853    1.290   .     A
C826   O854    1.296   .     A
C829   H840    1.082   .     S
C829   C830    1.393   .     A
C830   C174    1.391   1_556 S
C830   H185    1.080   1_556 S
C831   H841    1.081   .     S
H839   C170    1.080   1_556 S
N845   Zn855   2.013   .     S
N846   Zn856   2.013   .     S
O847   Zn855   1.990   .     S
O848   Zn856   1.991   .     S
O849   Zn855   1.984   .     S
O850   Zn856   1.961   .     S
O851   Zn855   1.991   .     S
O852   Zn856   1.990   .     S
O853   Zn855   1.961   .     S
O854   Zn856   1.984   .     S
C857   H859    1.105   .     S
C857   H858    1.110   .     S
C857   H860    1.111   .     S
O861   C862    1.422   .     S
C862   H863    1.110   .     S
C862   H864    1.119   .     S
C862   C719    1.517   1_655 S
C865   H866    1.110   .     S
C865   H867    1.110   .     S
C865   H868    1.102   .     S
O869   C870    1.416   .     S
C870   C873    1.520   .     S
C870   H871    1.112   .     S
C870   H872    1.114   .     S
C873   H876    1.107   .     S
C873   H874    1.111   .     S
C873   H875    1.110   .     S
C877   O920    1.282   .     A
C877   O921    1.282   .     A
C877   C893    1.408   .     S
C878   C879    1.403   .     A
C878   C223    1.416   1_556 S
C878   C247    1.412   1_556 S
C879   C886    1.426   .     A
C879   C883    1.415   .     A
C880   C884    1.404   .     A
C881   C882    1.394   .     A
C881   C223    1.417   1_556 S
C881   C243    1.400   1_556 S
C882   O934    1.384   .     S
C882   C883    1.388   .     A
C883   H916    1.076   .     S
C884   O942    1.387   .     S
C884   C901    1.406   .     A
C885   H905    1.083   .     S
C885   C901    1.398   .     A
C885   C900    1.384   .     A
C886   C888    1.476   .     S
C886   C902    1.404   .     A
C887   H917    1.084   .     S
C887   C893    1.390   .     A
C887   C1108   1.370   .     S
C888   O923    1.286   .     A
C888   O922    1.306   .     A
C889   C890    1.398   .     A
C889   H906    1.084   .     S
C890   C891    1.412   .     A
C890   C898    1.417   .     S
C891   C930    1.508   .     S
C892   H907    1.086   .     S
C892   C893    1.392   .     A
C892   C1110   1.379   .     S
C894   N919    1.367   .     A
C894   H908    1.081   .     S
C894   C968    1.416   .     S
C895   N918    1.366   .     A
C895   H909    1.079   .     S
C895   C1040   1.416   1_455 S
C896   N918    1.367   .     A
C896   H910    1.081   .     S
C896   C1043   1.416   1_455 S
C897   H911    1.081   .     S
C897   N919    1.367   .     A
C897   C969    1.416   .     S
C898   O924    1.283   .     A
C898   O925    1.283   .     A
C899   C901    1.454   .     S
C899   O926    1.290   .     A
C899   O927    1.296   .     A
C902   H913    1.082   .     S
C902   C903    1.393   .     A
C903   C247    1.391   1_556 S
C903   H258    1.080   1_556 S
C904   H914    1.081   .     S
H912   C243    1.080   1_556 S
N918   Zn928   2.013   .     S
N919   Zn929   2.013   .     S
O920   Zn928   1.990   .     S
O921   Zn929   1.991   .     S
O922   Zn928   1.984   .     S
O923   Zn929   1.961   .     S
O924   Zn928   1.991   .     S
O925   Zn929   1.990   .     S
O926   Zn928   1.961   .     S
O927   Zn929   1.984   .     S
C930   H932    1.105   .     S
C930   H931    1.110   .     S
C930   H933    1.111   .     S
O934   C935    1.422   .     S
C935   H936    1.110   .     S
C935   H937    1.119   .     S
C935   C1011   1.517   .     S
C938   H939    1.110   .     S
C938   H940    1.110   .     S
C938   H941    1.102   .     S
C938   C1081   1.517   1_455 S
O942   C943    1.416   .     S
C943   C946    1.520   .     S
C943   H944    1.112   .     S
C943   H945    1.114   .     S
C946   H949    1.107   .     S
C946   H947    1.111   .     S
C946   H948    1.110   .     S
C950   O993    1.282   .     A
C950   O994    1.282   .     A
C950   C966    1.408   .     S
C951   C952    1.403   .     A
C951   C296    1.416   1_556 S
C951   C320    1.412   1_556 S
C952   C959    1.426   .     A
C952   C956    1.415   .     A
C953   C957    1.404   .     A
C954   C955    1.394   .     A
C954   C296    1.417   1_556 S
C954   C316    1.400   1_556 S
C955   O1007   1.384   .     S
C955   C956    1.388   .     A
C956   H989    1.076   .     S
C957   O1015   1.387   .     S
C957   C974    1.406   .     A
C958   H978    1.083   .     S
C958   C974    1.398   .     A
C958   C973    1.384   .     A
C959   C961    1.476   .     S
C959   C975    1.404   .     A
C960   H990    1.084   .     S
C960   C966    1.390   .     A
C960   C1181   1.370   .     S
C961   O996    1.286   .     A
C961   O995    1.306   .     A
C962   C963    1.398   .     A
C962   H979    1.084   .     S
C963   C964    1.412   .     A
C963   C971    1.417   .     S
C964   C1003   1.508   .     S
C965   H980    1.086   .     S
C965   C966    1.392   .     A
C965   C1183   1.379   .     S
C967   N992    1.367   .     A
C967   H981    1.081   .     S
C967   C1041   1.416   .     S
C968   N991    1.366   .     A
C968   H982    1.079   .     S
C969   N991    1.367   .     A
C969   H983    1.081   .     S
C970   H984    1.081   .     S
C970   N992    1.367   .     A
C970   C1042   1.416   .     S
C971   O997    1.283   .     A
C971   O998    1.283   .     A
C972   C974    1.454   .     S
C972   O999    1.290   .     A
C972   O1000   1.296   .     A
C975   H986    1.082   .     S
C975   C976    1.393   .     A
C976   C320    1.391   1_556 S
C976   H331    1.080   1_556 S
C977   H987    1.081   .     S
H985   C316    1.080   1_556 S
N991   Zn1001  2.013   .     S
N992   Zn1002  2.013   .     S
O993   Zn1001  1.990   .     S
O994   Zn1002  1.991   .     S
O995   Zn1001  1.984   .     S
O996   Zn1002  1.961   .     S
O997   Zn1001  1.991   .     S
O998   Zn1002  1.990   .     S
O999   Zn1001  1.961   .     S
O1000  Zn1002  1.984   .     S
C1003  H1005   1.105   .     S
C1003  H1004   1.110   .     S
C1003  H1006   1.111   .     S
O1007  C1008   1.422   .     S
C1008  H1009   1.110   .     S
C1008  H1010   1.119   .     S
C1008  C1084   1.517   .     S
C1011  H1012   1.110   .     S
C1011  H1013   1.110   .     S
C1011  H1014   1.102   .     S
O1015  C1016   1.416   .     S
C1016  C1019   1.520   .     S
C1016  H1017   1.112   .     S
C1016  H1018   1.114   .     S
C1019  H1022   1.107   .     S
C1019  H1020   1.111   .     S
C1019  H1021   1.110   .     S
C1023  O1066   1.282   .     A
C1023  O1067   1.282   .     A
C1023  C1039   1.408   .     S
C1024  C1025   1.403   .     A
C1024  C369    1.416   1_556 S
C1024  C393    1.412   1_556 S
C1025  C1032   1.426   .     A
C1025  C1029   1.415   .     A
C1026  C1030   1.404   .     A
C1027  C1028   1.394   .     A
C1027  C369    1.417   1_556 S
C1027  C389    1.400   1_556 S
C1028  O1080   1.384   .     S
C1028  C1029   1.388   .     A
C1029  H1062   1.076   .     S
C1030  O1088   1.387   .     S
C1030  C1047   1.406   .     A
C1031  H1051   1.083   .     S
C1031  C1047   1.398   .     A
C1031  C1046   1.384   .     A
C1032  C1034   1.476   .     S
C1032  C1048   1.404   .     A
C1033  H1063   1.084   .     S
C1033  C1039   1.390   .     A
C1033  C1254   1.370   .     S
C1034  O1069   1.286   .     A
C1034  O1068   1.306   .     A
C1035  C1036   1.398   .     A
C1035  H1052   1.084   .     S
C1036  C1037   1.412   .     A
C1036  C1044   1.417   .     S
C1037  C1076   1.508   .     S
C1038  H1053   1.086   .     S
C1038  C1039   1.392   .     A
C1038  C1256   1.379   .     S
C1040  N1065   1.367   .     A
C1040  H1054   1.081   .     S
C1040  C895    1.416   1_655 S
C1041  N1064   1.366   .     A
C1041  H1055   1.079   .     S
C1042  N1064   1.367   .     A
C1042  H1056   1.081   .     S
C1043  H1057   1.081   .     S
C1043  N1065   1.367   .     A
C1043  C896    1.416   1_655 S
C1044  O1070   1.283   .     A
C1044  O1071   1.283   .     A
C1045  C1047   1.454   .     S
C1045  O1072   1.290   .     A
C1045  O1073   1.296   .     A
C1048  H1059   1.082   .     S
C1048  C1049   1.393   .     A
C1049  C393    1.391   1_556 S
C1049  H404    1.080   1_556 S
C1050  H1060   1.081   .     S
H1058  C389    1.080   1_556 S
N1064  Zn1074  2.013   .     S
N1065  Zn1075  2.013   .     S
O1066  Zn1074  1.990   .     S
O1067  Zn1075  1.991   .     S
O1068  Zn1074  1.984   .     S
O1069  Zn1075  1.961   .     S
O1070  Zn1074  1.991   .     S
O1071  Zn1075  1.990   .     S
O1072  Zn1074  1.961   .     S
O1073  Zn1075  1.984   .     S
C1076  H1078   1.105   .     S
C1076  H1077   1.110   .     S
C1076  H1079   1.111   .     S
O1080  C1081   1.422   .     S
C1081  H1082   1.110   .     S
C1081  H1083   1.119   .     S
C1081  C938    1.517   1_655 S
C1084  H1085   1.110   .     S
C1084  H1086   1.110   .     S
C1084  H1087   1.102   .     S
O1088  C1089   1.416   .     S
C1089  C1092   1.520   .     S
C1089  H1090   1.112   .     S
C1089  H1091   1.114   .     S
C1092  H1095   1.107   .     S
C1092  H1093   1.111   .     S
C1092  H1094   1.110   .     S
C1096  O1139   1.282   .     A
C1096  O1140   1.282   .     A
C1096  C1112   1.408   .     S
C1097  C1098   1.403   .     A
C1097  C442    1.416   1_556 S
C1097  C466    1.412   1_556 S
C1098  C1105   1.426   .     A
C1098  C1102   1.415   .     A
C1099  C1103   1.404   .     A
C1100  C1101   1.394   .     A
C1100  C442    1.417   1_556 S
C1100  C462    1.400   1_556 S
C1101  O1153   1.384   .     S
C1101  C1102   1.388   .     A
C1102  H1135   1.076   .     S
C1103  O1161   1.387   .     S
C1103  C1120   1.406   .     A
C1104  H1124   1.083   .     S
C1104  C1120   1.398   .     A
C1104  C1119   1.384   .     A
C1105  C1107   1.476   .     S
C1105  C1121   1.404   .     A
C1106  H1136   1.084   .     S
C1106  C1112   1.390   .     A
C1106  C670    1.370   1_565 S
C1107  O1142   1.286   .     A
C1107  O1141   1.306   .     A
C1108  C1109   1.398   .     A
C1108  H1125   1.084   .     S
C1109  C1110   1.412   .     A
C1109  C1117   1.417   .     S
C1110  C1149   1.508   .     S
C1111  H1126   1.086   .     S
C1111  C1112   1.392   .     A
C1111  C672    1.379   1_565 S
C1113  N1138   1.367   .     A
C1113  H1127   1.081   .     S
C1113  C1187   1.416   .     S
C1114  N1137   1.366   .     A
C1114  H1128   1.079   .     S
C1114  C1259   1.416   1_455 S
C1115  N1137   1.367   .     A
C1115  H1129   1.081   .     S
C1115  C1262   1.416   1_455 S
C1116  H1130   1.081   .     S
C1116  N1138   1.367   .     A
C1116  C1188   1.416   .     S
C1117  O1143   1.283   .     A
C1117  O1144   1.283   .     A
C1118  C1120   1.454   .     S
C1118  O1145   1.290   .     A
C1118  O1146   1.296   .     A
C1121  H1132   1.082   .     S
C1121  C1122   1.393   .     A
C1122  C466    1.391   1_556 S
C1122  H477    1.080   1_556 S
C1123  H1133   1.081   .     S
H1131  C462    1.080   1_556 S
N1137  Zn1147  2.013   .     S
N1138  Zn1148  2.013   .     S
O1139  Zn1147  1.990   .     S
O1140  Zn1148  1.991   .     S
O1141  Zn1147  1.984   .     S
O1142  Zn1148  1.961   .     S
O1143  Zn1147  1.991   .     S
O1144  Zn1148  1.990   .     S
O1145  Zn1147  1.961   .     S
O1146  Zn1148  1.984   .     S
C1149  H1151   1.105   .     S
C1149  H1150   1.110   .     S
C1149  H1152   1.111   .     S
O1153  C1154   1.422   .     S
C1154  H1155   1.110   .     S
C1154  H1156   1.119   .     S
C1154  C1230   1.517   .     S
C1157  H1158   1.110   .     S
C1157  H1159   1.110   .     S
C1157  H1160   1.102   .     S
C1157  C1300   1.517   1_455 S
O1161  C1162   1.416   .     S
C1162  C1165   1.520   .     S
C1162  H1163   1.112   .     S
C1162  H1164   1.114   .     S
C1165  H1168   1.107   .     S
C1165  H1166   1.111   .     S
C1165  H1167   1.110   .     S
C1169  O1212   1.282   .     A
C1169  O1213   1.282   .     A
C1169  C1185   1.408   .     S
C1170  C1171   1.403   .     A
C1170  C515    1.416   1_556 S
C1170  C539    1.412   1_556 S
C1171  C1178   1.426   .     A
C1171  C1175   1.415   .     A
C1172  C1176   1.404   .     A
C1173  C1174   1.394   .     A
C1173  C515    1.417   1_556 S
C1173  C535    1.400   1_556 S
C1174  O1226   1.384   .     S
C1174  C1175   1.388   .     A
C1175  H1208   1.076   .     S
C1176  O1234   1.387   .     S
C1176  C1193   1.406   .     A
C1177  H1197   1.083   .     S
C1177  C1193   1.398   .     A
C1177  C1192   1.384   .     A
C1178  C1180   1.476   .     S
C1178  C1194   1.404   .     A
C1179  H1209   1.084   .     S
C1179  C1185   1.390   .     A
C1179  C743    1.370   1_565 S
C1180  O1215   1.286   .     A
C1180  O1214   1.306   .     A
C1181  C1182   1.398   .     A
C1181  H1198   1.084   .     S
C1182  C1183   1.412   .     A
C1182  C1190   1.417   .     S
C1183  C1222   1.508   .     S
C1184  H1199   1.086   .     S
C1184  C1185   1.392   .     A
C1184  C745    1.379   1_565 S
C1186  N1211   1.367   .     A
C1186  H1200   1.081   .     S
C1186  C1260   1.416   .     S
C1187  N1210   1.366   .     A
C1187  H1201   1.079   .     S
C1188  N1210   1.367   .     A
C1188  H1202   1.081   .     S
C1189  H1203   1.081   .     S
C1189  N1211   1.367   .     A
C1189  C1261   1.416   .     S
C1190  O1216   1.283   .     A
C1190  O1217   1.283   .     A
C1191  C1193   1.454   .     S
C1191  O1218   1.290   .     A
C1191  O1219   1.296   .     A
C1194  H1205   1.082   .     S
C1194  C1195   1.393   .     A
C1195  C539    1.391   1_556 S
C1195  H550    1.080   1_556 S
C1196  H1206   1.081   .     S
H1204  C535    1.080   1_556 S
N1210  Zn1220  2.013   .     S
N1211  Zn1221  2.013   .     S
O1212  Zn1220  1.990   .     S
O1213  Zn1221  1.991   .     S
O1214  Zn1220  1.984   .     S
O1215  Zn1221  1.961   .     S
O1216  Zn1220  1.991   .     S
O1217  Zn1221  1.990   .     S
O1218  Zn1220  1.961   .     S
O1219  Zn1221  1.984   .     S
C1222  H1224   1.105   .     S
C1222  H1223   1.110   .     S
C1222  H1225   1.111   .     S
O1226  C1227   1.422   .     S
C1227  H1228   1.110   .     S
C1227  H1229   1.119   .     S
C1227  C1303   1.517   .     S
C1230  H1231   1.110   .     S
C1230  H1232   1.110   .     S
C1230  H1233   1.102   .     S
O1234  C1235   1.416   .     S
C1235  C1238   1.520   .     S
C1235  H1236   1.112   .     S
C1235  H1237   1.114   .     S
C1238  H1241   1.107   .     S
C1238  H1239   1.111   .     S
C1238  H1240   1.110   .     S
C1242  O1285   1.282   .     A
C1242  O1286   1.282   .     A
C1242  C1258   1.408   .     S
C1243  C1244   1.403   .     A
C1243  C588    1.416   1_556 S
C1243  C612    1.412   1_556 S
C1244  C1251   1.426   .     A
C1244  C1248   1.415   .     A
C1245  C1249   1.404   .     A
C1246  C1247   1.394   .     A
C1246  C588    1.417   1_556 S
C1246  C608    1.400   1_556 S
C1247  O1299   1.384   .     S
C1247  C1248   1.388   .     A
C1248  H1281   1.076   .     S
C1249  O1307   1.387   .     S
C1249  C1266   1.406   .     A
C1250  H1270   1.083   .     S
C1250  C1266   1.398   .     A
C1250  C1265   1.384   .     A
C1251  C1253   1.476   .     S
C1251  C1267   1.404   .     A
C1252  H1282   1.084   .     S
C1252  C1258   1.390   .     A
C1252  C816    1.370   1_565 S
C1253  O1288   1.286   .     A
C1253  O1287   1.306   .     A
C1254  C1255   1.398   .     A
C1254  H1271   1.084   .     S
C1255  C1256   1.412   .     A
C1255  C1263   1.417   .     S
C1256  C1295   1.508   .     S
C1257  H1272   1.086   .     S
C1257  C1258   1.392   .     A
C1257  C818    1.379   1_565 S
C1259  N1284   1.367   .     A
C1259  H1273   1.081   .     S
C1259  C1114   1.416   1_655 S
C1260  N1283   1.366   .     A
C1260  H1274   1.079   .     S
C1261  N1283   1.367   .     A
C1261  H1275   1.081   .     S
C1262  H1276   1.081   .     S
C1262  N1284   1.367   .     A
C1262  C1115   1.416   1_655 S
C1263  O1289   1.283   .     A
C1263  O1290   1.283   .     A
C1264  C1266   1.454   .     S
C1264  O1291   1.290   .     A
C1264  O1292   1.296   .     A
C1267  H1278   1.082   .     S
C1267  C1268   1.393   .     A
C1268  C612    1.391   1_556 S
C1268  H623    1.080   1_556 S
C1269  H1279   1.081   .     S
H1277  C608    1.080   1_556 S
N1283  Zn1293  2.013   .     S
N1284  Zn1294  2.013   .     S
O1285  Zn1293  1.990   .     S
O1286  Zn1294  1.991   .     S
O1287  Zn1293  1.984   .     S
O1288  Zn1294  1.961   .     S
O1289  Zn1293  1.991   .     S
O1290  Zn1294  1.990   .     S
O1291  Zn1293  1.961   .     S
O1292  Zn1294  1.984   .     S
C1295  H1297   1.105   .     S
C1295  H1296   1.110   .     S
C1295  H1298   1.111   .     S
O1299  C1300   1.422   .     S
C1300  H1301   1.110   .     S
C1300  H1302   1.119   .     S
C1300  C1157   1.517   1_655 S
C1303  H1304   1.110   .     S
C1303  H1305   1.110   .     S
C1303  H1306   1.102   .     S
O1307  C1308   1.416   .     S
C1308  C1311   1.520   .     S
C1308  H1309   1.112   .     S
C1308  H1310   1.114   .     S
C1311  H1314   1.107   .     S
C1311  H1312   1.111   .     S
C1311  H1313   1.110   .     S
