data_str_m2_o1_o17_pcu_sym.170
_audit_creation_date              2020-01-03
_audit_creation_method            'Materials Studio'
_symmetry_space_group_name_H-M    'P1'
_symmetry_Int_Tables_number       1
_symmetry_cell_setting            triclinic
loop_
_symmetry_equiv_pos_as_xyz
  x,y,z
_cell_length_a                    32.5900
_cell_length_b                    28.9178
_cell_length_c                    30.0389
_cell_angle_alpha                 89.5596
_cell_angle_beta                  92.1613
_cell_angle_gamma                 89.6719
loop_
_atom_site_label
_atom_site_type_symbol
_atom_site_fract_x
_atom_site_fract_y
_atom_site_fract_z
_atom_site_U_iso_or_equiv
_atom_site_adp_type
_atom_site_occupancy
C1     C     0.08749   0.16675   0.25002   0.00000  Uiso   1.00
C2     C     0.24585   0.16658   0.24999   0.00000  Uiso   1.00
C3     C     0.09087   0.16609   0.01917   0.00000  Uiso   1.00
C4     C     0.24246   0.16722   0.48080   0.00000  Uiso   1.00
C5     C     0.02172   0.12527   0.25733   0.00000  Uiso   1.00
C6     C     0.31161   0.20807   0.24270   0.00000  Uiso   1.00
C7     C     0.31264   0.12514   0.25708   0.00000  Uiso   1.00
C8     C     0.02070   0.20820   0.24295   0.00000  Uiso   1.00
C9     C     0.29052   0.16655   0.24988   0.00000  Uiso   1.00
C10    C     0.04282   0.16679   0.25015   0.00000  Uiso   1.00
C11    C     0.14464   0.02481   0.21808   0.00000  Uiso   1.00
C12    C     0.18945   0.30766   0.28114   0.00000  Uiso   1.00
C13    C     0.18873   0.02362   0.28206   0.00000  Uiso   1.00
C14    C     0.14458   0.30932   0.21816   0.00000  Uiso   1.00
C15    C     0.16624   0.16682   0.16474   0.00000  Uiso   1.00
C16    C     0.16707   0.16651   0.33525   0.00000  Uiso   1.00
C17    C     0.20511   0.16686   0.40767   0.00000  Uiso   1.00
C18    C     0.12821   0.16696   0.09229   0.00000  Uiso   1.00
C19    C     0.16768   0.16618   0.38338   0.00000  Uiso   1.00
C20    C     0.16564   0.16716   0.11660   0.00000  Uiso   1.00
C21    C     0.13042   0.16558   0.40415   0.00000  Uiso   1.00
C22    C     0.20291   0.16736   0.09584   0.00000  Uiso   1.00
C23    C     0.12923   0.16588   0.45087   0.00000  Uiso   1.00
C24    C     0.20410   0.16722   0.04911   0.00000  Uiso   1.00
C25    C     0.16696   0.16650   0.47643   0.00000  Uiso   1.00
C26    C     0.16637   0.16678   0.02354   0.00000  Uiso   1.00
C27    C     0.20526   0.16684   0.45480   0.00000  Uiso   1.00
C28    C     0.12808   0.16663   0.04516   0.00000  Uiso   1.00
C29    C     0.09142   0.16566   0.47266   0.00000  Uiso   1.00
C30    C     0.24192   0.16741   0.02732   0.00000  Uiso   1.00
Cu31   Cu    0.16667   0.21355   0.25000   0.00000  Uiso   1.00
Cu32   Cu    0.16667   0.11978   0.25000   0.00000  Uiso   1.00
N33    N     0.16667   0.28402   0.25000   0.00000  Uiso   1.00
N34    N     0.16667   0.04931   0.25000   0.00000  Uiso   1.00
O35    O     0.10655   0.20625   0.25000   0.00000  Uiso   1.00
O36    O     0.22679   0.12709   0.25001   0.00000  Uiso   1.00
O37    O     0.22679   0.20625   0.25001   0.00000  Uiso   1.00
O38    O     0.10655   0.12709   0.25000   0.00000  Uiso   1.00
O39    O     0.16666   0.20627   0.18513   0.00000  Uiso   1.00
O40    O     0.16668   0.12707   0.31487   0.00000  Uiso   1.00
O41    O     0.16668   0.20627   0.31487   0.00000  Uiso   1.00
O42    O     0.16666   0.12707   0.18513   0.00000  Uiso   1.00
N43    N     0.24272   0.16764   0.38412   0.00000  Uiso   1.00
H44    H     0.24289   0.19710   0.36374   0.00000  Uiso   1.00
H45    H     0.24406   0.13832   0.36406   0.00000  Uiso   1.00
N46    N     0.09058   0.16711   0.11580   0.00000  Uiso   1.00
H47    H     0.08968   0.19658   0.13567   0.00000  Uiso   1.00
H48    H     0.08992   0.13780   0.13633   0.00000  Uiso   1.00
F49    F     0.09574   0.16491   0.37757   0.00000  Uiso   1.00
F50    F     0.23760   0.16761   0.12242   0.00000  Uiso   1.00
N51    N     0.05243   0.16507   0.44870   0.00000  Uiso   1.00
H52    H     0.05008   0.13503   0.42968   0.00000  Uiso   1.00
H53    H     0.04927   0.19473   0.42874   0.00000  Uiso   1.00
N54    N     0.28091   0.16781   0.05127   0.00000  Uiso   1.00
H55    H     0.28403   0.13804   0.07109   0.00000  Uiso   1.00
H56    H     0.28330   0.19774   0.07046   0.00000  Uiso   1.00
N57    N     0.05178   0.16591   0.03975   0.00000  Uiso   1.00
H58    H     0.03500   0.19507   0.02886   0.00000  Uiso   1.00
H59    H     0.03574   0.13628   0.02980   0.00000  Uiso   1.00
N60    N     0.28155   0.16729   0.46021   0.00000  Uiso   1.00
H61    H     0.29770   0.19681   0.47026   0.00000  Uiso   1.00
H62    H     0.29822   0.13802   0.47100   0.00000  Uiso   1.00
F63    F     0.04185   0.08458   0.26520   0.00000  Uiso   1.00
F64    F     0.29148   0.24876   0.23483   0.00000  Uiso   1.00
F65    F     0.29358   0.08428   0.26427   0.00000  Uiso   1.00
F66    F     0.03975   0.24906   0.23576   0.00000  Uiso   1.00
N67    N     0.12211   0.04711   0.18205   0.00000  Uiso   1.00
H68    H     0.10410   0.07415   0.19294   0.00000  Uiso   1.00
H69    H     0.14217   0.05721   0.15757   0.00000  Uiso   1.00
N70    N     0.21450   0.28228   0.31307   0.00000  Uiso   1.00
H71    H     0.24495   0.29272   0.31022   0.00000  Uiso   1.00
H72    H     0.20518   0.29056   0.34499   0.00000  Uiso   1.00
N73    N     0.21061   0.04498   0.31852   0.00000  Uiso   1.00
H74    H     0.18980   0.05482   0.34230   0.00000  Uiso   1.00
H75    H     0.22766   0.07285   0.30783   0.00000  Uiso   1.00
N76    N     0.12282   0.28773   0.18169   0.00000  Uiso   1.00
H77    H     0.14358   0.27829   0.15771   0.00000  Uiso   1.00
H78    H     0.10577   0.25982   0.19223   0.00000  Uiso   1.00
C79    C     0.42082   0.16675   0.25002   0.00000  Uiso   1.00
C80    C     0.57918   0.16658   0.24999   0.00000  Uiso   1.00
C81    C     0.42421   0.16609   0.01917   0.00000  Uiso   1.00
C82    C     0.57579   0.16722   0.48080   0.00000  Uiso   1.00
C83    C     0.35505   0.12527   0.25733   0.00000  Uiso   1.00
C84    C     0.64495   0.20807   0.24270   0.00000  Uiso   1.00
C85    C     0.64597   0.12514   0.25708   0.00000  Uiso   1.00
C86    C     0.35403   0.20820   0.24295   0.00000  Uiso   1.00
C87    C     0.62385   0.16655   0.24988   0.00000  Uiso   1.00
C88    C     0.37615   0.16679   0.25015   0.00000  Uiso   1.00
C89    C     0.47797   0.02481   0.21808   0.00000  Uiso   1.00
C90    C     0.52278   0.30766   0.28114   0.00000  Uiso   1.00
C91    C     0.52206   0.02362   0.28206   0.00000  Uiso   1.00
C92    C     0.47792   0.30932   0.21816   0.00000  Uiso   1.00
C93    C     0.49958   0.16682   0.16474   0.00000  Uiso   1.00
C94    C     0.50041   0.16651   0.33525   0.00000  Uiso   1.00
C95    C     0.53845   0.16686   0.40767   0.00000  Uiso   1.00
C96    C     0.46154   0.16696   0.09229   0.00000  Uiso   1.00
C97    C     0.50102   0.16618   0.38338   0.00000  Uiso   1.00
C98    C     0.49897   0.16716   0.11660   0.00000  Uiso   1.00
C99    C     0.46376   0.16558   0.40415   0.00000  Uiso   1.00
C100   C     0.53624   0.16736   0.09584   0.00000  Uiso   1.00
C101   C     0.46257   0.16588   0.45087   0.00000  Uiso   1.00
C102   C     0.53743   0.16722   0.04911   0.00000  Uiso   1.00
C103   C     0.50029   0.16650   0.47643   0.00000  Uiso   1.00
C104   C     0.49971   0.16678   0.02354   0.00000  Uiso   1.00
C105   C     0.53859   0.16684   0.45480   0.00000  Uiso   1.00
C106   C     0.46141   0.16663   0.04516   0.00000  Uiso   1.00
C107   C     0.42476   0.16566   0.47266   0.00000  Uiso   1.00
C108   C     0.57525   0.16741   0.02732   0.00000  Uiso   1.00
Cu109  Cu    0.50000   0.21355   0.25000   0.00000  Uiso   1.00
Cu110  Cu    0.50000   0.11978   0.25000   0.00000  Uiso   1.00
N111   N     0.50000   0.28402   0.25000   0.00000  Uiso   1.00
N112   N     0.50000   0.04931   0.25000   0.00000  Uiso   1.00
O113   O     0.43988   0.20625   0.25000   0.00000  Uiso   1.00
O114   O     0.56012   0.12709   0.25001   0.00000  Uiso   1.00
O115   O     0.56012   0.20625   0.25001   0.00000  Uiso   1.00
O116   O     0.43988   0.12709   0.25000   0.00000  Uiso   1.00
O117   O     0.49999   0.20627   0.18513   0.00000  Uiso   1.00
O118   O     0.50001   0.12707   0.31487   0.00000  Uiso   1.00
O119   O     0.50001   0.20627   0.31487   0.00000  Uiso   1.00
O120   O     0.49999   0.12707   0.18513   0.00000  Uiso   1.00
N121   N     0.57605   0.16764   0.38412   0.00000  Uiso   1.00
H122   H     0.57622   0.19710   0.36374   0.00000  Uiso   1.00
H123   H     0.57739   0.13832   0.36406   0.00000  Uiso   1.00
N124   N     0.42391   0.16711   0.11580   0.00000  Uiso   1.00
H125   H     0.42301   0.19658   0.13567   0.00000  Uiso   1.00
H126   H     0.42325   0.13780   0.13633   0.00000  Uiso   1.00
F127   F     0.42908   0.16491   0.37757   0.00000  Uiso   1.00
F128   F     0.57093   0.16761   0.12242   0.00000  Uiso   1.00
N129   N     0.38576   0.16507   0.44870   0.00000  Uiso   1.00
H130   H     0.38341   0.13503   0.42968   0.00000  Uiso   1.00
H131   H     0.38260   0.19473   0.42874   0.00000  Uiso   1.00
N132   N     0.61424   0.16781   0.05127   0.00000  Uiso   1.00
H133   H     0.61736   0.13804   0.07109   0.00000  Uiso   1.00
H134   H     0.61664   0.19774   0.07046   0.00000  Uiso   1.00
N135   N     0.38511   0.16591   0.03975   0.00000  Uiso   1.00
H136   H     0.36833   0.19507   0.02886   0.00000  Uiso   1.00
H137   H     0.36908   0.13628   0.02980   0.00000  Uiso   1.00
N138   N     0.61489   0.16729   0.46021   0.00000  Uiso   1.00
H139   H     0.63103   0.19681   0.47026   0.00000  Uiso   1.00
H140   H     0.63156   0.13802   0.47100   0.00000  Uiso   1.00
F141   F     0.37518   0.08458   0.26520   0.00000  Uiso   1.00
F142   F     0.62482   0.24876   0.23483   0.00000  Uiso   1.00
F143   F     0.62691   0.08428   0.26427   0.00000  Uiso   1.00
F144   F     0.37308   0.24906   0.23576   0.00000  Uiso   1.00
N145   N     0.45545   0.04711   0.18205   0.00000  Uiso   1.00
H146   H     0.43743   0.07415   0.19294   0.00000  Uiso   1.00
H147   H     0.47550   0.05721   0.15757   0.00000  Uiso   1.00
N148   N     0.54783   0.28228   0.31307   0.00000  Uiso   1.00
H149   H     0.57828   0.29272   0.31022   0.00000  Uiso   1.00
H150   H     0.53851   0.29056   0.34499   0.00000  Uiso   1.00
N151   N     0.54395   0.04498   0.31852   0.00000  Uiso   1.00
H152   H     0.52313   0.05482   0.34230   0.00000  Uiso   1.00
H153   H     0.56100   0.07285   0.30783   0.00000  Uiso   1.00
N154   N     0.45615   0.28773   0.18169   0.00000  Uiso   1.00
H155   H     0.47691   0.27829   0.15771   0.00000  Uiso   1.00
H156   H     0.43910   0.25982   0.19223   0.00000  Uiso   1.00
C157   C     0.75415   0.16675   0.25002   0.00000  Uiso   1.00
C158   C     0.91251   0.16658   0.24999   0.00000  Uiso   1.00
C159   C     0.75754   0.16609   0.01917   0.00000  Uiso   1.00
C160   C     0.90913   0.16722   0.48080   0.00000  Uiso   1.00
C161   C     0.68839   0.12527   0.25733   0.00000  Uiso   1.00
C162   C     0.97828   0.20807   0.24270   0.00000  Uiso   1.00
C163   C     0.97930   0.12514   0.25708   0.00000  Uiso   1.00
C164   C     0.68736   0.20820   0.24295   0.00000  Uiso   1.00
C165   C     0.95719   0.16655   0.24988   0.00000  Uiso   1.00
C166   C     0.70948   0.16679   0.25015   0.00000  Uiso   1.00
C167   C     0.81131   0.02481   0.21808   0.00000  Uiso   1.00
C168   C     0.85611   0.30766   0.28114   0.00000  Uiso   1.00
C169   C     0.85540   0.02362   0.28206   0.00000  Uiso   1.00
C170   C     0.81125   0.30932   0.21816   0.00000  Uiso   1.00
C171   C     0.83291   0.16682   0.16474   0.00000  Uiso   1.00
C172   C     0.83374   0.16651   0.33525   0.00000  Uiso   1.00
C173   C     0.87178   0.16686   0.40767   0.00000  Uiso   1.00
C174   C     0.79488   0.16696   0.09229   0.00000  Uiso   1.00
C175   C     0.83435   0.16618   0.38338   0.00000  Uiso   1.00
C176   C     0.83231   0.16716   0.11660   0.00000  Uiso   1.00
C177   C     0.79709   0.16558   0.40415   0.00000  Uiso   1.00
C178   C     0.86958   0.16736   0.09584   0.00000  Uiso   1.00
C179   C     0.79590   0.16588   0.45087   0.00000  Uiso   1.00
C180   C     0.87077   0.16722   0.04911   0.00000  Uiso   1.00
C181   C     0.83363   0.16650   0.47643   0.00000  Uiso   1.00
C182   C     0.83304   0.16678   0.02354   0.00000  Uiso   1.00
C183   C     0.87192   0.16684   0.45480   0.00000  Uiso   1.00
C184   C     0.79474   0.16663   0.04516   0.00000  Uiso   1.00
C185   C     0.75809   0.16566   0.47266   0.00000  Uiso   1.00
C186   C     0.90858   0.16741   0.02732   0.00000  Uiso   1.00
Cu187  Cu    0.83333   0.21355   0.25000   0.00000  Uiso   1.00
Cu188  Cu    0.83333   0.11978   0.25000   0.00000  Uiso   1.00
N189   N     0.83333   0.28402   0.25000   0.00000  Uiso   1.00
N190   N     0.83333   0.04931   0.25000   0.00000  Uiso   1.00
O191   O     0.77321   0.20625   0.25000   0.00000  Uiso   1.00
O192   O     0.89345   0.12709   0.25001   0.00000  Uiso   1.00
O193   O     0.89345   0.20625   0.25001   0.00000  Uiso   1.00
O194   O     0.77321   0.12709   0.25000   0.00000  Uiso   1.00
O195   O     0.83332   0.20627   0.18513   0.00000  Uiso   1.00
O196   O     0.83334   0.12707   0.31487   0.00000  Uiso   1.00
O197   O     0.83334   0.20627   0.31487   0.00000  Uiso   1.00
O198   O     0.83332   0.12707   0.18513   0.00000  Uiso   1.00
N199   N     0.90939   0.16764   0.38412   0.00000  Uiso   1.00
H200   H     0.90956   0.19710   0.36374   0.00000  Uiso   1.00
H201   H     0.91073   0.13832   0.36406   0.00000  Uiso   1.00
N202   N     0.75725   0.16711   0.11580   0.00000  Uiso   1.00
H203   H     0.75634   0.19658   0.13567   0.00000  Uiso   1.00
H204   H     0.75658   0.13780   0.13633   0.00000  Uiso   1.00
F205   F     0.76241   0.16491   0.37757   0.00000  Uiso   1.00
F206   F     0.90426   0.16761   0.12242   0.00000  Uiso   1.00
N207   N     0.71910   0.16507   0.44870   0.00000  Uiso   1.00
H208   H     0.71675   0.13503   0.42968   0.00000  Uiso   1.00
H209   H     0.71593   0.19473   0.42874   0.00000  Uiso   1.00
N210   N     0.94757   0.16781   0.05127   0.00000  Uiso   1.00
H211   H     0.95069   0.13804   0.07109   0.00000  Uiso   1.00
H212   H     0.94997   0.19774   0.07046   0.00000  Uiso   1.00
N213   N     0.71844   0.16591   0.03975   0.00000  Uiso   1.00
H214   H     0.70167   0.19507   0.02886   0.00000  Uiso   1.00
H215   H     0.70241   0.13628   0.02980   0.00000  Uiso   1.00
N216   N     0.94822   0.16729   0.46021   0.00000  Uiso   1.00
H217   H     0.96436   0.19681   0.47026   0.00000  Uiso   1.00
H218   H     0.96489   0.13802   0.47100   0.00000  Uiso   1.00
F219   F     0.70852   0.08458   0.26520   0.00000  Uiso   1.00
F220   F     0.95815   0.24876   0.23483   0.00000  Uiso   1.00
F221   F     0.96025   0.08428   0.26427   0.00000  Uiso   1.00
F222   F     0.70642   0.24906   0.23576   0.00000  Uiso   1.00
N223   N     0.78878   0.04711   0.18205   0.00000  Uiso   1.00
H224   H     0.77077   0.07415   0.19294   0.00000  Uiso   1.00
H225   H     0.80884   0.05721   0.15757   0.00000  Uiso   1.00
N226   N     0.88116   0.28228   0.31307   0.00000  Uiso   1.00
H227   H     0.91161   0.29272   0.31022   0.00000  Uiso   1.00
H228   H     0.87185   0.29056   0.34499   0.00000  Uiso   1.00
N229   N     0.87728   0.04498   0.31852   0.00000  Uiso   1.00
H230   H     0.85646   0.05482   0.34230   0.00000  Uiso   1.00
H231   H     0.89433   0.07285   0.30783   0.00000  Uiso   1.00
N232   N     0.78948   0.28773   0.18169   0.00000  Uiso   1.00
H233   H     0.81025   0.27829   0.15771   0.00000  Uiso   1.00
H234   H     0.77244   0.25982   0.19223   0.00000  Uiso   1.00
C235   C     0.08749   0.50009   0.25002   0.00000  Uiso   1.00
C236   C     0.24585   0.49992   0.24999   0.00000  Uiso   1.00
C237   C     0.09087   0.49942   0.01917   0.00000  Uiso   1.00
C238   C     0.24246   0.50055   0.48080   0.00000  Uiso   1.00
C239   C     0.02172   0.45861   0.25733   0.00000  Uiso   1.00
C240   C     0.31161   0.54140   0.24270   0.00000  Uiso   1.00
C241   C     0.31264   0.45847   0.25708   0.00000  Uiso   1.00
C242   C     0.02070   0.54153   0.24295   0.00000  Uiso   1.00
C243   C     0.29052   0.49988   0.24988   0.00000  Uiso   1.00
C244   C     0.04282   0.50013   0.25015   0.00000  Uiso   1.00
C245   C     0.14464   0.35814   0.21808   0.00000  Uiso   1.00
C246   C     0.18945   0.64100   0.28114   0.00000  Uiso   1.00
C247   C     0.18873   0.35695   0.28206   0.00000  Uiso   1.00
C248   C     0.14458   0.64265   0.21816   0.00000  Uiso   1.00
C249   C     0.16624   0.50016   0.16474   0.00000  Uiso   1.00
C250   C     0.16707   0.49985   0.33525   0.00000  Uiso   1.00
C251   C     0.20511   0.50019   0.40767   0.00000  Uiso   1.00
C252   C     0.12821   0.50029   0.09229   0.00000  Uiso   1.00
C253   C     0.16768   0.49952   0.38338   0.00000  Uiso   1.00
C254   C     0.16564   0.50050   0.11660   0.00000  Uiso   1.00
C255   C     0.13042   0.49892   0.40415   0.00000  Uiso   1.00
C256   C     0.20291   0.50070   0.09584   0.00000  Uiso   1.00
C257   C     0.12923   0.49922   0.45087   0.00000  Uiso   1.00
C258   C     0.20410   0.50055   0.04911   0.00000  Uiso   1.00
C259   C     0.16696   0.49983   0.47643   0.00000  Uiso   1.00
C260   C     0.16637   0.50011   0.02354   0.00000  Uiso   1.00
C261   C     0.20526   0.50018   0.45480   0.00000  Uiso   1.00
C262   C     0.12808   0.49996   0.04516   0.00000  Uiso   1.00
C263   C     0.09142   0.49900   0.47266   0.00000  Uiso   1.00
C264   C     0.24192   0.50074   0.02732   0.00000  Uiso   1.00
Cu265  Cu    0.16667   0.54689   0.25000   0.00000  Uiso   1.00
Cu266  Cu    0.16667   0.45311   0.25000   0.00000  Uiso   1.00
N267   N     0.16667   0.61736   0.25000   0.00000  Uiso   1.00
N268   N     0.16667   0.38264   0.25000   0.00000  Uiso   1.00
O269   O     0.10655   0.53958   0.25000   0.00000  Uiso   1.00
O270   O     0.22679   0.46042   0.25001   0.00000  Uiso   1.00
O271   O     0.22679   0.53958   0.25001   0.00000  Uiso   1.00
O272   O     0.10655   0.46042   0.25000   0.00000  Uiso   1.00
O273   O     0.16666   0.53960   0.18513   0.00000  Uiso   1.00
O274   O     0.16668   0.46040   0.31487   0.00000  Uiso   1.00
O275   O     0.16668   0.53960   0.31487   0.00000  Uiso   1.00
O276   O     0.16666   0.46040   0.18513   0.00000  Uiso   1.00
N277   N     0.24272   0.50097   0.38412   0.00000  Uiso   1.00
H278   H     0.24289   0.53044   0.36374   0.00000  Uiso   1.00
H279   H     0.24406   0.47165   0.36406   0.00000  Uiso   1.00
N280   N     0.09058   0.50044   0.11580   0.00000  Uiso   1.00
H281   H     0.08968   0.52992   0.13567   0.00000  Uiso   1.00
H282   H     0.08992   0.47114   0.13633   0.00000  Uiso   1.00
F283   F     0.09574   0.49824   0.37757   0.00000  Uiso   1.00
F284   F     0.23760   0.50094   0.12242   0.00000  Uiso   1.00
N285   N     0.05243   0.49840   0.44870   0.00000  Uiso   1.00
H286   H     0.05008   0.46836   0.42968   0.00000  Uiso   1.00
H287   H     0.04927   0.52806   0.42874   0.00000  Uiso   1.00
N288   N     0.28091   0.50114   0.05127   0.00000  Uiso   1.00
H289   H     0.28403   0.47137   0.07109   0.00000  Uiso   1.00
H290   H     0.28330   0.53108   0.07046   0.00000  Uiso   1.00
N291   N     0.05178   0.49924   0.03975   0.00000  Uiso   1.00
H292   H     0.03500   0.52840   0.02886   0.00000  Uiso   1.00
H293   H     0.03574   0.46961   0.02980   0.00000  Uiso   1.00
N294   N     0.28155   0.50062   0.46021   0.00000  Uiso   1.00
H295   H     0.29770   0.53014   0.47026   0.00000  Uiso   1.00
H296   H     0.29822   0.47135   0.47100   0.00000  Uiso   1.00
F297   F     0.04185   0.41791   0.26520   0.00000  Uiso   1.00
F298   F     0.29148   0.58209   0.23483   0.00000  Uiso   1.00
F299   F     0.29358   0.41761   0.26427   0.00000  Uiso   1.00
F300   F     0.03975   0.58239   0.23576   0.00000  Uiso   1.00
N301   N     0.12211   0.38045   0.18205   0.00000  Uiso   1.00
H302   H     0.10410   0.40749   0.19294   0.00000  Uiso   1.00
H303   H     0.14217   0.39054   0.15757   0.00000  Uiso   1.00
N304   N     0.21450   0.61561   0.31307   0.00000  Uiso   1.00
H305   H     0.24495   0.62605   0.31022   0.00000  Uiso   1.00
H306   H     0.20518   0.62389   0.34499   0.00000  Uiso   1.00
N307   N     0.21061   0.37832   0.31852   0.00000  Uiso   1.00
H308   H     0.18980   0.38816   0.34230   0.00000  Uiso   1.00
H309   H     0.22766   0.40618   0.30783   0.00000  Uiso   1.00
N310   N     0.12282   0.62106   0.18169   0.00000  Uiso   1.00
H311   H     0.14358   0.61162   0.15771   0.00000  Uiso   1.00
H312   H     0.10577   0.59315   0.19223   0.00000  Uiso   1.00
C313   C     0.42082   0.50009   0.25002   0.00000  Uiso   1.00
C314   C     0.57918   0.49992   0.24999   0.00000  Uiso   1.00
C315   C     0.42421   0.49942   0.01917   0.00000  Uiso   1.00
C316   C     0.57579   0.50055   0.48080   0.00000  Uiso   1.00
C317   C     0.35505   0.45861   0.25733   0.00000  Uiso   1.00
C318   C     0.64495   0.54140   0.24270   0.00000  Uiso   1.00
C319   C     0.64597   0.45847   0.25708   0.00000  Uiso   1.00
C320   C     0.35403   0.54153   0.24295   0.00000  Uiso   1.00
C321   C     0.62385   0.49988   0.24988   0.00000  Uiso   1.00
C322   C     0.37615   0.50013   0.25015   0.00000  Uiso   1.00
C323   C     0.47797   0.35814   0.21808   0.00000  Uiso   1.00
C324   C     0.52278   0.64100   0.28114   0.00000  Uiso   1.00
C325   C     0.52206   0.35695   0.28206   0.00000  Uiso   1.00
C326   C     0.47792   0.64265   0.21816   0.00000  Uiso   1.00
C327   C     0.49958   0.50016   0.16474   0.00000  Uiso   1.00
C328   C     0.50041   0.49985   0.33525   0.00000  Uiso   1.00
C329   C     0.53845   0.50019   0.40767   0.00000  Uiso   1.00
C330   C     0.46154   0.50029   0.09229   0.00000  Uiso   1.00
C331   C     0.50102   0.49952   0.38338   0.00000  Uiso   1.00
C332   C     0.49897   0.50050   0.11660   0.00000  Uiso   1.00
C333   C     0.46376   0.49892   0.40415   0.00000  Uiso   1.00
C334   C     0.53624   0.50070   0.09584   0.00000  Uiso   1.00
C335   C     0.46257   0.49922   0.45087   0.00000  Uiso   1.00
C336   C     0.53743   0.50055   0.04911   0.00000  Uiso   1.00
C337   C     0.50029   0.49983   0.47643   0.00000  Uiso   1.00
C338   C     0.49971   0.50011   0.02354   0.00000  Uiso   1.00
C339   C     0.53859   0.50018   0.45480   0.00000  Uiso   1.00
C340   C     0.46141   0.49996   0.04516   0.00000  Uiso   1.00
C341   C     0.42476   0.49900   0.47266   0.00000  Uiso   1.00
C342   C     0.57525   0.50074   0.02732   0.00000  Uiso   1.00
Cu343  Cu    0.50000   0.54689   0.25000   0.00000  Uiso   1.00
Cu344  Cu    0.50000   0.45311   0.25000   0.00000  Uiso   1.00
N345   N     0.50000   0.61736   0.25000   0.00000  Uiso   1.00
N346   N     0.50000   0.38264   0.25000   0.00000  Uiso   1.00
O347   O     0.43988   0.53958   0.25000   0.00000  Uiso   1.00
O348   O     0.56012   0.46042   0.25001   0.00000  Uiso   1.00
O349   O     0.56012   0.53958   0.25001   0.00000  Uiso   1.00
O350   O     0.43988   0.46042   0.25000   0.00000  Uiso   1.00
O351   O     0.49999   0.53960   0.18513   0.00000  Uiso   1.00
O352   O     0.50001   0.46040   0.31487   0.00000  Uiso   1.00
O353   O     0.50001   0.53960   0.31487   0.00000  Uiso   1.00
O354   O     0.49999   0.46040   0.18513   0.00000  Uiso   1.00
N355   N     0.57605   0.50097   0.38412   0.00000  Uiso   1.00
H356   H     0.57622   0.53044   0.36374   0.00000  Uiso   1.00
H357   H     0.57739   0.47165   0.36406   0.00000  Uiso   1.00
N358   N     0.42391   0.50044   0.11580   0.00000  Uiso   1.00
H359   H     0.42301   0.52992   0.13567   0.00000  Uiso   1.00
H360   H     0.42325   0.47114   0.13633   0.00000  Uiso   1.00
F361   F     0.42908   0.49824   0.37757   0.00000  Uiso   1.00
F362   F     0.57093   0.50094   0.12242   0.00000  Uiso   1.00
N363   N     0.38576   0.49840   0.44870   0.00000  Uiso   1.00
H364   H     0.38341   0.46836   0.42968   0.00000  Uiso   1.00
H365   H     0.38260   0.52806   0.42874   0.00000  Uiso   1.00
N366   N     0.61424   0.50114   0.05127   0.00000  Uiso   1.00
H367   H     0.61736   0.47137   0.07109   0.00000  Uiso   1.00
H368   H     0.61664   0.53108   0.07046   0.00000  Uiso   1.00
N369   N     0.38511   0.49924   0.03975   0.00000  Uiso   1.00
H370   H     0.36833   0.52840   0.02886   0.00000  Uiso   1.00
H371   H     0.36908   0.46961   0.02980   0.00000  Uiso   1.00
N372   N     0.61489   0.50062   0.46021   0.00000  Uiso   1.00
H373   H     0.63103   0.53014   0.47026   0.00000  Uiso   1.00
H374   H     0.63156   0.47135   0.47100   0.00000  Uiso   1.00
F375   F     0.37518   0.41791   0.26520   0.00000  Uiso   1.00
F376   F     0.62482   0.58209   0.23483   0.00000  Uiso   1.00
F377   F     0.62691   0.41761   0.26427   0.00000  Uiso   1.00
F378   F     0.37308   0.58239   0.23576   0.00000  Uiso   1.00
N379   N     0.45545   0.38045   0.18205   0.00000  Uiso   1.00
H380   H     0.43743   0.40749   0.19294   0.00000  Uiso   1.00
H381   H     0.47550   0.39054   0.15757   0.00000  Uiso   1.00
N382   N     0.54783   0.61561   0.31307   0.00000  Uiso   1.00
H383   H     0.57828   0.62605   0.31022   0.00000  Uiso   1.00
H384   H     0.53851   0.62389   0.34499   0.00000  Uiso   1.00
N385   N     0.54395   0.37832   0.31852   0.00000  Uiso   1.00
H386   H     0.52313   0.38816   0.34230   0.00000  Uiso   1.00
H387   H     0.56100   0.40618   0.30783   0.00000  Uiso   1.00
N388   N     0.45615   0.62106   0.18169   0.00000  Uiso   1.00
H389   H     0.47691   0.61162   0.15771   0.00000  Uiso   1.00
H390   H     0.43910   0.59315   0.19223   0.00000  Uiso   1.00
C391   C     0.75415   0.50009   0.25002   0.00000  Uiso   1.00
C392   C     0.91251   0.49992   0.24999   0.00000  Uiso   1.00
C393   C     0.75754   0.49942   0.01917   0.00000  Uiso   1.00
C394   C     0.90913   0.50055   0.48080   0.00000  Uiso   1.00
C395   C     0.68839   0.45861   0.25733   0.00000  Uiso   1.00
C396   C     0.97828   0.54140   0.24270   0.00000  Uiso   1.00
C397   C     0.97930   0.45847   0.25708   0.00000  Uiso   1.00
C398   C     0.68736   0.54153   0.24295   0.00000  Uiso   1.00
C399   C     0.95719   0.49988   0.24988   0.00000  Uiso   1.00
C400   C     0.70948   0.50013   0.25015   0.00000  Uiso   1.00
C401   C     0.81131   0.35814   0.21808   0.00000  Uiso   1.00
C402   C     0.85611   0.64100   0.28114   0.00000  Uiso   1.00
C403   C     0.85540   0.35695   0.28206   0.00000  Uiso   1.00
C404   C     0.81125   0.64265   0.21816   0.00000  Uiso   1.00
C405   C     0.83291   0.50016   0.16474   0.00000  Uiso   1.00
C406   C     0.83374   0.49985   0.33525   0.00000  Uiso   1.00
C407   C     0.87178   0.50019   0.40767   0.00000  Uiso   1.00
C408   C     0.79488   0.50029   0.09229   0.00000  Uiso   1.00
C409   C     0.83435   0.49952   0.38338   0.00000  Uiso   1.00
C410   C     0.83231   0.50050   0.11660   0.00000  Uiso   1.00
C411   C     0.79709   0.49892   0.40415   0.00000  Uiso   1.00
C412   C     0.86958   0.50070   0.09584   0.00000  Uiso   1.00
C413   C     0.79590   0.49922   0.45087   0.00000  Uiso   1.00
C414   C     0.87077   0.50055   0.04911   0.00000  Uiso   1.00
C415   C     0.83363   0.49983   0.47643   0.00000  Uiso   1.00
C416   C     0.83304   0.50011   0.02354   0.00000  Uiso   1.00
C417   C     0.87192   0.50018   0.45480   0.00000  Uiso   1.00
C418   C     0.79474   0.49996   0.04516   0.00000  Uiso   1.00
C419   C     0.75809   0.49900   0.47266   0.00000  Uiso   1.00
C420   C     0.90858   0.50074   0.02732   0.00000  Uiso   1.00
Cu421  Cu    0.83333   0.54689   0.25000   0.00000  Uiso   1.00
Cu422  Cu    0.83333   0.45311   0.25000   0.00000  Uiso   1.00
N423   N     0.83333   0.61736   0.25000   0.00000  Uiso   1.00
N424   N     0.83333   0.38264   0.25000   0.00000  Uiso   1.00
O425   O     0.77321   0.53958   0.25000   0.00000  Uiso   1.00
O426   O     0.89345   0.46042   0.25001   0.00000  Uiso   1.00
O427   O     0.89345   0.53958   0.25001   0.00000  Uiso   1.00
O428   O     0.77321   0.46042   0.25000   0.00000  Uiso   1.00
O429   O     0.83332   0.53960   0.18513   0.00000  Uiso   1.00
O430   O     0.83334   0.46040   0.31487   0.00000  Uiso   1.00
O431   O     0.83334   0.53960   0.31487   0.00000  Uiso   1.00
O432   O     0.83332   0.46040   0.18513   0.00000  Uiso   1.00
N433   N     0.90939   0.50097   0.38412   0.00000  Uiso   1.00
H434   H     0.90956   0.53044   0.36374   0.00000  Uiso   1.00
H435   H     0.91073   0.47165   0.36406   0.00000  Uiso   1.00
N436   N     0.75725   0.50044   0.11580   0.00000  Uiso   1.00
H437   H     0.75634   0.52992   0.13567   0.00000  Uiso   1.00
H438   H     0.75658   0.47114   0.13633   0.00000  Uiso   1.00
F439   F     0.76241   0.49824   0.37757   0.00000  Uiso   1.00
F440   F     0.90426   0.50094   0.12242   0.00000  Uiso   1.00
N441   N     0.71910   0.49840   0.44870   0.00000  Uiso   1.00
H442   H     0.71675   0.46836   0.42968   0.00000  Uiso   1.00
H443   H     0.71593   0.52806   0.42874   0.00000  Uiso   1.00
N444   N     0.94757   0.50114   0.05127   0.00000  Uiso   1.00
H445   H     0.95069   0.47137   0.07109   0.00000  Uiso   1.00
H446   H     0.94997   0.53108   0.07046   0.00000  Uiso   1.00
N447   N     0.71844   0.49924   0.03975   0.00000  Uiso   1.00
H448   H     0.70167   0.52840   0.02886   0.00000  Uiso   1.00
H449   H     0.70241   0.46961   0.02980   0.00000  Uiso   1.00
N450   N     0.94822   0.50062   0.46021   0.00000  Uiso   1.00
H451   H     0.96436   0.53014   0.47026   0.00000  Uiso   1.00
H452   H     0.96489   0.47135   0.47100   0.00000  Uiso   1.00
F453   F     0.70852   0.41791   0.26520   0.00000  Uiso   1.00
F454   F     0.95815   0.58209   0.23483   0.00000  Uiso   1.00
F455   F     0.96025   0.41761   0.26427   0.00000  Uiso   1.00
F456   F     0.70642   0.58239   0.23576   0.00000  Uiso   1.00
N457   N     0.78878   0.38045   0.18205   0.00000  Uiso   1.00
H458   H     0.77077   0.40749   0.19294   0.00000  Uiso   1.00
H459   H     0.80884   0.39054   0.15757   0.00000  Uiso   1.00
N460   N     0.88116   0.61561   0.31307   0.00000  Uiso   1.00
H461   H     0.91161   0.62605   0.31022   0.00000  Uiso   1.00
H462   H     0.87185   0.62389   0.34499   0.00000  Uiso   1.00
N463   N     0.87728   0.37832   0.31852   0.00000  Uiso   1.00
H464   H     0.85646   0.38816   0.34230   0.00000  Uiso   1.00
H465   H     0.89433   0.40618   0.30783   0.00000  Uiso   1.00
N466   N     0.78948   0.62106   0.18169   0.00000  Uiso   1.00
H467   H     0.81025   0.61162   0.15771   0.00000  Uiso   1.00
H468   H     0.77244   0.59315   0.19223   0.00000  Uiso   1.00
C469   C     0.08749   0.83342   0.25002   0.00000  Uiso   1.00
C470   C     0.24585   0.83325   0.24999   0.00000  Uiso   1.00
C471   C     0.09087   0.83276   0.01917   0.00000  Uiso   1.00
C472   C     0.24246   0.83388   0.48080   0.00000  Uiso   1.00
C473   C     0.02172   0.79194   0.25733   0.00000  Uiso   1.00
C474   C     0.31161   0.87473   0.24270   0.00000  Uiso   1.00
C475   C     0.31264   0.79181   0.25708   0.00000  Uiso   1.00
C476   C     0.02070   0.87487   0.24295   0.00000  Uiso   1.00
C477   C     0.29052   0.83321   0.24988   0.00000  Uiso   1.00
C478   C     0.04282   0.83346   0.25015   0.00000  Uiso   1.00
C479   C     0.14464   0.69148   0.21808   0.00000  Uiso   1.00
C480   C     0.18945   0.97433   0.28114   0.00000  Uiso   1.00
C481   C     0.18873   0.69028   0.28206   0.00000  Uiso   1.00
C482   C     0.14458   0.97598   0.21816   0.00000  Uiso   1.00
C483   C     0.16624   0.83349   0.16474   0.00000  Uiso   1.00
C484   C     0.16707   0.83318   0.33525   0.00000  Uiso   1.00
C485   C     0.20511   0.83352   0.40767   0.00000  Uiso   1.00
C486   C     0.12821   0.83362   0.09229   0.00000  Uiso   1.00
C487   C     0.16768   0.83285   0.38338   0.00000  Uiso   1.00
C488   C     0.16564   0.83383   0.11660   0.00000  Uiso   1.00
C489   C     0.13042   0.83225   0.40415   0.00000  Uiso   1.00
C490   C     0.20291   0.83403   0.09584   0.00000  Uiso   1.00
C491   C     0.12923   0.83255   0.45087   0.00000  Uiso   1.00
C492   C     0.20410   0.83389   0.04911   0.00000  Uiso   1.00
C493   C     0.16696   0.83316   0.47643   0.00000  Uiso   1.00
C494   C     0.16637   0.83344   0.02354   0.00000  Uiso   1.00
C495   C     0.20526   0.83351   0.45480   0.00000  Uiso   1.00
C496   C     0.12808   0.83330   0.04516   0.00000  Uiso   1.00
C497   C     0.09142   0.83233   0.47266   0.00000  Uiso   1.00
C498   C     0.24192   0.83408   0.02732   0.00000  Uiso   1.00
Cu499  Cu    0.16667   0.88022   0.25000   0.00000  Uiso   1.00
Cu500  Cu    0.16667   0.78645   0.25000   0.00000  Uiso   1.00
N501   N     0.16667   0.95069   0.25000   0.00000  Uiso   1.00
N502   N     0.16667   0.71598   0.25000   0.00000  Uiso   1.00
O503   O     0.10655   0.87291   0.25000   0.00000  Uiso   1.00
O504   O     0.22679   0.79375   0.25001   0.00000  Uiso   1.00
O505   O     0.22679   0.87291   0.25001   0.00000  Uiso   1.00
O506   O     0.10655   0.79375   0.25000   0.00000  Uiso   1.00
O507   O     0.16666   0.87293   0.18513   0.00000  Uiso   1.00
O508   O     0.16668   0.79373   0.31487   0.00000  Uiso   1.00
O509   O     0.16668   0.87293   0.31487   0.00000  Uiso   1.00
O510   O     0.16666   0.79373   0.18513   0.00000  Uiso   1.00
N511   N     0.24272   0.83430   0.38412   0.00000  Uiso   1.00
H512   H     0.24289   0.86377   0.36374   0.00000  Uiso   1.00
H513   H     0.24406   0.80499   0.36406   0.00000  Uiso   1.00
N514   N     0.09058   0.83377   0.11580   0.00000  Uiso   1.00
H515   H     0.08968   0.86325   0.13567   0.00000  Uiso   1.00
H516   H     0.08992   0.80447   0.13633   0.00000  Uiso   1.00
F517   F     0.09574   0.83157   0.37757   0.00000  Uiso   1.00
F518   F     0.23760   0.83427   0.12242   0.00000  Uiso   1.00
N519   N     0.05243   0.83174   0.44870   0.00000  Uiso   1.00
H520   H     0.05008   0.80169   0.42968   0.00000  Uiso   1.00
H521   H     0.04927   0.86140   0.42874   0.00000  Uiso   1.00
N522   N     0.28091   0.83448   0.05127   0.00000  Uiso   1.00
H523   H     0.28403   0.80471   0.07109   0.00000  Uiso   1.00
H524   H     0.28330   0.86441   0.07046   0.00000  Uiso   1.00
N525   N     0.05178   0.83258   0.03975   0.00000  Uiso   1.00
H526   H     0.03500   0.86173   0.02886   0.00000  Uiso   1.00
H527   H     0.03574   0.80294   0.02980   0.00000  Uiso   1.00
N528   N     0.28155   0.83395   0.46021   0.00000  Uiso   1.00
H529   H     0.29770   0.86347   0.47026   0.00000  Uiso   1.00
H530   H     0.29822   0.80468   0.47100   0.00000  Uiso   1.00
F531   F     0.04185   0.75125   0.26520   0.00000  Uiso   1.00
F532   F     0.29148   0.91542   0.23483   0.00000  Uiso   1.00
F533   F     0.29358   0.75095   0.26427   0.00000  Uiso   1.00
F534   F     0.03975   0.91573   0.23576   0.00000  Uiso   1.00
N535   N     0.12211   0.71378   0.18205   0.00000  Uiso   1.00
H536   H     0.10410   0.74082   0.19294   0.00000  Uiso   1.00
H537   H     0.14217   0.72387   0.15757   0.00000  Uiso   1.00
N538   N     0.21450   0.94894   0.31307   0.00000  Uiso   1.00
H539   H     0.24495   0.95939   0.31022   0.00000  Uiso   1.00
H540   H     0.20518   0.95723   0.34499   0.00000  Uiso   1.00
N541   N     0.21061   0.71165   0.31852   0.00000  Uiso   1.00
H542   H     0.18980   0.72149   0.34230   0.00000  Uiso   1.00
H543   H     0.22766   0.73951   0.30783   0.00000  Uiso   1.00
N544   N     0.12282   0.95439   0.18169   0.00000  Uiso   1.00
H545   H     0.14358   0.94495   0.15771   0.00000  Uiso   1.00
H546   H     0.10577   0.92648   0.19223   0.00000  Uiso   1.00
C547   C     0.42082   0.83342   0.25002   0.00000  Uiso   1.00
C548   C     0.57918   0.83325   0.24999   0.00000  Uiso   1.00
C549   C     0.42421   0.83276   0.01917   0.00000  Uiso   1.00
C550   C     0.57579   0.83388   0.48080   0.00000  Uiso   1.00
C551   C     0.35505   0.79194   0.25733   0.00000  Uiso   1.00
C552   C     0.64495   0.87473   0.24270   0.00000  Uiso   1.00
C553   C     0.64597   0.79181   0.25708   0.00000  Uiso   1.00
C554   C     0.35403   0.87487   0.24295   0.00000  Uiso   1.00
C555   C     0.62385   0.83321   0.24988   0.00000  Uiso   1.00
C556   C     0.37615   0.83346   0.25015   0.00000  Uiso   1.00
C557   C     0.47797   0.69148   0.21808   0.00000  Uiso   1.00
C558   C     0.52278   0.97433   0.28114   0.00000  Uiso   1.00
C559   C     0.52206   0.69028   0.28206   0.00000  Uiso   1.00
C560   C     0.47792   0.97598   0.21816   0.00000  Uiso   1.00
C561   C     0.49958   0.83349   0.16474   0.00000  Uiso   1.00
C562   C     0.50041   0.83318   0.33525   0.00000  Uiso   1.00
C563   C     0.53845   0.83352   0.40767   0.00000  Uiso   1.00
C564   C     0.46154   0.83362   0.09229   0.00000  Uiso   1.00
C565   C     0.50102   0.83285   0.38338   0.00000  Uiso   1.00
C566   C     0.49897   0.83383   0.11660   0.00000  Uiso   1.00
C567   C     0.46376   0.83225   0.40415   0.00000  Uiso   1.00
C568   C     0.53624   0.83403   0.09584   0.00000  Uiso   1.00
C569   C     0.46257   0.83255   0.45087   0.00000  Uiso   1.00
C570   C     0.53743   0.83389   0.04911   0.00000  Uiso   1.00
C571   C     0.50029   0.83316   0.47643   0.00000  Uiso   1.00
C572   C     0.49971   0.83344   0.02354   0.00000  Uiso   1.00
C573   C     0.53859   0.83351   0.45480   0.00000  Uiso   1.00
C574   C     0.46141   0.83330   0.04516   0.00000  Uiso   1.00
C575   C     0.42476   0.83233   0.47266   0.00000  Uiso   1.00
C576   C     0.57525   0.83408   0.02732   0.00000  Uiso   1.00
Cu577  Cu    0.50000   0.88022   0.25000   0.00000  Uiso   1.00
Cu578  Cu    0.50000   0.78645   0.25000   0.00000  Uiso   1.00
N579   N     0.50000   0.95069   0.25000   0.00000  Uiso   1.00
N580   N     0.50000   0.71598   0.25000   0.00000  Uiso   1.00
O581   O     0.43988   0.87291   0.25000   0.00000  Uiso   1.00
O582   O     0.56012   0.79375   0.25001   0.00000  Uiso   1.00
O583   O     0.56012   0.87291   0.25001   0.00000  Uiso   1.00
O584   O     0.43988   0.79375   0.25000   0.00000  Uiso   1.00
O585   O     0.49999   0.87293   0.18513   0.00000  Uiso   1.00
O586   O     0.50001   0.79373   0.31487   0.00000  Uiso   1.00
O587   O     0.50001   0.87293   0.31487   0.00000  Uiso   1.00
O588   O     0.49999   0.79373   0.18513   0.00000  Uiso   1.00
N589   N     0.57605   0.83430   0.38412   0.00000  Uiso   1.00
H590   H     0.57622   0.86377   0.36374   0.00000  Uiso   1.00
H591   H     0.57739   0.80499   0.36406   0.00000  Uiso   1.00
N592   N     0.42391   0.83377   0.11580   0.00000  Uiso   1.00
H593   H     0.42301   0.86325   0.13567   0.00000  Uiso   1.00
H594   H     0.42325   0.80447   0.13633   0.00000  Uiso   1.00
F595   F     0.42908   0.83157   0.37757   0.00000  Uiso   1.00
F596   F     0.57093   0.83427   0.12242   0.00000  Uiso   1.00
N597   N     0.38576   0.83174   0.44870   0.00000  Uiso   1.00
H598   H     0.38341   0.80169   0.42968   0.00000  Uiso   1.00
H599   H     0.38260   0.86140   0.42874   0.00000  Uiso   1.00
N600   N     0.61424   0.83448   0.05127   0.00000  Uiso   1.00
H601   H     0.61736   0.80471   0.07109   0.00000  Uiso   1.00
H602   H     0.61664   0.86441   0.07046   0.00000  Uiso   1.00
N603   N     0.38511   0.83258   0.03975   0.00000  Uiso   1.00
H604   H     0.36833   0.86173   0.02886   0.00000  Uiso   1.00
H605   H     0.36908   0.80294   0.02980   0.00000  Uiso   1.00
N606   N     0.61489   0.83395   0.46021   0.00000  Uiso   1.00
H607   H     0.63103   0.86347   0.47026   0.00000  Uiso   1.00
H608   H     0.63156   0.80468   0.47100   0.00000  Uiso   1.00
F609   F     0.37518   0.75125   0.26520   0.00000  Uiso   1.00
F610   F     0.62482   0.91542   0.23483   0.00000  Uiso   1.00
F611   F     0.62691   0.75095   0.26427   0.00000  Uiso   1.00
F612   F     0.37308   0.91573   0.23576   0.00000  Uiso   1.00
N613   N     0.45545   0.71378   0.18205   0.00000  Uiso   1.00
H614   H     0.43743   0.74082   0.19294   0.00000  Uiso   1.00
H615   H     0.47550   0.72387   0.15757   0.00000  Uiso   1.00
N616   N     0.54783   0.94894   0.31307   0.00000  Uiso   1.00
H617   H     0.57828   0.95939   0.31022   0.00000  Uiso   1.00
H618   H     0.53851   0.95723   0.34499   0.00000  Uiso   1.00
N619   N     0.54395   0.71165   0.31852   0.00000  Uiso   1.00
H620   H     0.52313   0.72149   0.34230   0.00000  Uiso   1.00
H621   H     0.56100   0.73951   0.30783   0.00000  Uiso   1.00
N622   N     0.45615   0.95439   0.18169   0.00000  Uiso   1.00
H623   H     0.47691   0.94495   0.15771   0.00000  Uiso   1.00
H624   H     0.43910   0.92648   0.19223   0.00000  Uiso   1.00
C625   C     0.75415   0.83342   0.25002   0.00000  Uiso   1.00
C626   C     0.91251   0.83325   0.24999   0.00000  Uiso   1.00
C627   C     0.75754   0.83276   0.01917   0.00000  Uiso   1.00
C628   C     0.90913   0.83388   0.48080   0.00000  Uiso   1.00
C629   C     0.68839   0.79194   0.25733   0.00000  Uiso   1.00
C630   C     0.97828   0.87473   0.24270   0.00000  Uiso   1.00
C631   C     0.97930   0.79181   0.25708   0.00000  Uiso   1.00
C632   C     0.68736   0.87487   0.24295   0.00000  Uiso   1.00
C633   C     0.95719   0.83321   0.24988   0.00000  Uiso   1.00
C634   C     0.70948   0.83346   0.25015   0.00000  Uiso   1.00
C635   C     0.81131   0.69148   0.21808   0.00000  Uiso   1.00
C636   C     0.85611   0.97433   0.28114   0.00000  Uiso   1.00
C637   C     0.85540   0.69028   0.28206   0.00000  Uiso   1.00
C638   C     0.81125   0.97598   0.21816   0.00000  Uiso   1.00
C639   C     0.83291   0.83349   0.16474   0.00000  Uiso   1.00
C640   C     0.83374   0.83318   0.33525   0.00000  Uiso   1.00
C641   C     0.87178   0.83352   0.40767   0.00000  Uiso   1.00
C642   C     0.79488   0.83362   0.09229   0.00000  Uiso   1.00
C643   C     0.83435   0.83285   0.38338   0.00000  Uiso   1.00
C644   C     0.83231   0.83383   0.11660   0.00000  Uiso   1.00
C645   C     0.79709   0.83225   0.40415   0.00000  Uiso   1.00
C646   C     0.86958   0.83403   0.09584   0.00000  Uiso   1.00
C647   C     0.79590   0.83255   0.45087   0.00000  Uiso   1.00
C648   C     0.87077   0.83389   0.04911   0.00000  Uiso   1.00
C649   C     0.83363   0.83316   0.47643   0.00000  Uiso   1.00
C650   C     0.83304   0.83344   0.02354   0.00000  Uiso   1.00
C651   C     0.87192   0.83351   0.45480   0.00000  Uiso   1.00
C652   C     0.79474   0.83330   0.04516   0.00000  Uiso   1.00
C653   C     0.75809   0.83233   0.47266   0.00000  Uiso   1.00
C654   C     0.90858   0.83408   0.02732   0.00000  Uiso   1.00
Cu655  Cu    0.83333   0.88022   0.25000   0.00000  Uiso   1.00
Cu656  Cu    0.83333   0.78645   0.25000   0.00000  Uiso   1.00
N657   N     0.83333   0.95069   0.25000   0.00000  Uiso   1.00
N658   N     0.83333   0.71598   0.25000   0.00000  Uiso   1.00
O659   O     0.77321   0.87291   0.25000   0.00000  Uiso   1.00
O660   O     0.89345   0.79375   0.25001   0.00000  Uiso   1.00
O661   O     0.89345   0.87291   0.25001   0.00000  Uiso   1.00
O662   O     0.77321   0.79375   0.25000   0.00000  Uiso   1.00
O663   O     0.83332   0.87293   0.18513   0.00000  Uiso   1.00
O664   O     0.83334   0.79373   0.31487   0.00000  Uiso   1.00
O665   O     0.83334   0.87293   0.31487   0.00000  Uiso   1.00
O666   O     0.83332   0.79373   0.18513   0.00000  Uiso   1.00
N667   N     0.90939   0.83430   0.38412   0.00000  Uiso   1.00
H668   H     0.90956   0.86377   0.36374   0.00000  Uiso   1.00
H669   H     0.91073   0.80499   0.36406   0.00000  Uiso   1.00
N670   N     0.75725   0.83377   0.11580   0.00000  Uiso   1.00
H671   H     0.75634   0.86325   0.13567   0.00000  Uiso   1.00
H672   H     0.75658   0.80447   0.13633   0.00000  Uiso   1.00
F673   F     0.76241   0.83157   0.37757   0.00000  Uiso   1.00
F674   F     0.90426   0.83427   0.12242   0.00000  Uiso   1.00
N675   N     0.71910   0.83174   0.44870   0.00000  Uiso   1.00
H676   H     0.71675   0.80169   0.42968   0.00000  Uiso   1.00
H677   H     0.71593   0.86140   0.42874   0.00000  Uiso   1.00
N678   N     0.94757   0.83448   0.05127   0.00000  Uiso   1.00
H679   H     0.95069   0.80471   0.07109   0.00000  Uiso   1.00
H680   H     0.94997   0.86441   0.07046   0.00000  Uiso   1.00
N681   N     0.71844   0.83258   0.03975   0.00000  Uiso   1.00
H682   H     0.70167   0.86173   0.02886   0.00000  Uiso   1.00
H683   H     0.70241   0.80294   0.02980   0.00000  Uiso   1.00
N684   N     0.94822   0.83395   0.46021   0.00000  Uiso   1.00
H685   H     0.96436   0.86347   0.47026   0.00000  Uiso   1.00
H686   H     0.96489   0.80468   0.47100   0.00000  Uiso   1.00
F687   F     0.70852   0.75125   0.26520   0.00000  Uiso   1.00
F688   F     0.95815   0.91542   0.23483   0.00000  Uiso   1.00
F689   F     0.96025   0.75095   0.26427   0.00000  Uiso   1.00
F690   F     0.70642   0.91573   0.23576   0.00000  Uiso   1.00
N691   N     0.78878   0.71378   0.18205   0.00000  Uiso   1.00
H692   H     0.77077   0.74082   0.19294   0.00000  Uiso   1.00
H693   H     0.80884   0.72387   0.15757   0.00000  Uiso   1.00
N694   N     0.88116   0.94894   0.31307   0.00000  Uiso   1.00
H695   H     0.91161   0.95939   0.31022   0.00000  Uiso   1.00
H696   H     0.87185   0.95723   0.34499   0.00000  Uiso   1.00
N697   N     0.87728   0.71165   0.31852   0.00000  Uiso   1.00
H698   H     0.85646   0.72149   0.34230   0.00000  Uiso   1.00
H699   H     0.89433   0.73951   0.30783   0.00000  Uiso   1.00
N700   N     0.78948   0.95439   0.18169   0.00000  Uiso   1.00
H701   H     0.81025   0.94495   0.15771   0.00000  Uiso   1.00
H702   H     0.77244   0.92648   0.19223   0.00000  Uiso   1.00
C703   C     0.08749   0.16675   0.75002   0.00000  Uiso   1.00
C704   C     0.24585   0.16658   0.74999   0.00000  Uiso   1.00
C705   C     0.09087   0.16609   0.51917   0.00000  Uiso   1.00
C706   C     0.24246   0.16722   0.98080   0.00000  Uiso   1.00
C707   C     0.02172   0.12527   0.75733   0.00000  Uiso   1.00
C708   C     0.31161   0.20807   0.74270   0.00000  Uiso   1.00
C709   C     0.31264   0.12514   0.75708   0.00000  Uiso   1.00
C710   C     0.02070   0.20820   0.74295   0.00000  Uiso   1.00
C711   C     0.29052   0.16655   0.74988   0.00000  Uiso   1.00
C712   C     0.04282   0.16679   0.75015   0.00000  Uiso   1.00
C713   C     0.14464   0.02481   0.71808   0.00000  Uiso   1.00
C714   C     0.18945   0.30766   0.78114   0.00000  Uiso   1.00
C715   C     0.18873   0.02362   0.78206   0.00000  Uiso   1.00
C716   C     0.14458   0.30932   0.71816   0.00000  Uiso   1.00
C717   C     0.16624   0.16682   0.66474   0.00000  Uiso   1.00
C718   C     0.16707   0.16651   0.83525   0.00000  Uiso   1.00
C719   C     0.20511   0.16686   0.90767   0.00000  Uiso   1.00
C720   C     0.12821   0.16696   0.59229   0.00000  Uiso   1.00
C721   C     0.16768   0.16618   0.88338   0.00000  Uiso   1.00
C722   C     0.16564   0.16716   0.61660   0.00000  Uiso   1.00
C723   C     0.13042   0.16558   0.90415   0.00000  Uiso   1.00
C724   C     0.20291   0.16736   0.59584   0.00000  Uiso   1.00
C725   C     0.12923   0.16588   0.95087   0.00000  Uiso   1.00
C726   C     0.20410   0.16722   0.54911   0.00000  Uiso   1.00
C727   C     0.16696   0.16650   0.97643   0.00000  Uiso   1.00
C728   C     0.16637   0.16678   0.52354   0.00000  Uiso   1.00
C729   C     0.20526   0.16684   0.95480   0.00000  Uiso   1.00
C730   C     0.12808   0.16663   0.54516   0.00000  Uiso   1.00
C731   C     0.09142   0.16566   0.97266   0.00000  Uiso   1.00
C732   C     0.24192   0.16741   0.52732   0.00000  Uiso   1.00
Cu733  Cu    0.16667   0.21355   0.75000   0.00000  Uiso   1.00
Cu734  Cu    0.16667   0.11978   0.75000   0.00000  Uiso   1.00
N735   N     0.16667   0.28402   0.75000   0.00000  Uiso   1.00
N736   N     0.16667   0.04931   0.75000   0.00000  Uiso   1.00
O737   O     0.10655   0.20625   0.75000   0.00000  Uiso   1.00
O738   O     0.22679   0.12709   0.75001   0.00000  Uiso   1.00
O739   O     0.22679   0.20625   0.75001   0.00000  Uiso   1.00
O740   O     0.10655   0.12709   0.75000   0.00000  Uiso   1.00
O741   O     0.16666   0.20627   0.68513   0.00000  Uiso   1.00
O742   O     0.16668   0.12707   0.81487   0.00000  Uiso   1.00
O743   O     0.16668   0.20627   0.81487   0.00000  Uiso   1.00
O744   O     0.16666   0.12707   0.68513   0.00000  Uiso   1.00
N745   N     0.24272   0.16764   0.88412   0.00000  Uiso   1.00
H746   H     0.24289   0.19710   0.86374   0.00000  Uiso   1.00
H747   H     0.24406   0.13832   0.86406   0.00000  Uiso   1.00
N748   N     0.09058   0.16711   0.61580   0.00000  Uiso   1.00
H749   H     0.08968   0.19658   0.63567   0.00000  Uiso   1.00
H750   H     0.08992   0.13780   0.63633   0.00000  Uiso   1.00
F751   F     0.09574   0.16491   0.87757   0.00000  Uiso   1.00
F752   F     0.23760   0.16761   0.62242   0.00000  Uiso   1.00
N753   N     0.05243   0.16507   0.94870   0.00000  Uiso   1.00
H754   H     0.05008   0.13503   0.92968   0.00000  Uiso   1.00
H755   H     0.04927   0.19473   0.92874   0.00000  Uiso   1.00
N756   N     0.28091   0.16781   0.55127   0.00000  Uiso   1.00
H757   H     0.28403   0.13804   0.57109   0.00000  Uiso   1.00
H758   H     0.28330   0.19774   0.57046   0.00000  Uiso   1.00
N759   N     0.05178   0.16591   0.53975   0.00000  Uiso   1.00
H760   H     0.03500   0.19507   0.52886   0.00000  Uiso   1.00
H761   H     0.03574   0.13628   0.52980   0.00000  Uiso   1.00
N762   N     0.28155   0.16729   0.96021   0.00000  Uiso   1.00
H763   H     0.29770   0.19681   0.97026   0.00000  Uiso   1.00
H764   H     0.29822   0.13802   0.97100   0.00000  Uiso   1.00
F765   F     0.04185   0.08458   0.76520   0.00000  Uiso   1.00
F766   F     0.29148   0.24876   0.73483   0.00000  Uiso   1.00
F767   F     0.29358   0.08428   0.76427   0.00000  Uiso   1.00
F768   F     0.03975   0.24906   0.73576   0.00000  Uiso   1.00
N769   N     0.12211   0.04711   0.68205   0.00000  Uiso   1.00
H770   H     0.10410   0.07415   0.69294   0.00000  Uiso   1.00
H771   H     0.14217   0.05721   0.65757   0.00000  Uiso   1.00
N772   N     0.21450   0.28228   0.81307   0.00000  Uiso   1.00
H773   H     0.24495   0.29272   0.81022   0.00000  Uiso   1.00
H774   H     0.20518   0.29056   0.84499   0.00000  Uiso   1.00
N775   N     0.21061   0.04498   0.81852   0.00000  Uiso   1.00
H776   H     0.18980   0.05482   0.84230   0.00000  Uiso   1.00
H777   H     0.22766   0.07285   0.80783   0.00000  Uiso   1.00
N778   N     0.12282   0.28773   0.68169   0.00000  Uiso   1.00
H779   H     0.14358   0.27829   0.65771   0.00000  Uiso   1.00
H780   H     0.10577   0.25982   0.69223   0.00000  Uiso   1.00
C781   C     0.42082   0.16675   0.75002   0.00000  Uiso   1.00
C782   C     0.57918   0.16658   0.74999   0.00000  Uiso   1.00
C783   C     0.42421   0.16609   0.51917   0.00000  Uiso   1.00
C784   C     0.57579   0.16722   0.98080   0.00000  Uiso   1.00
C785   C     0.35505   0.12527   0.75733   0.00000  Uiso   1.00
C786   C     0.64495   0.20807   0.74270   0.00000  Uiso   1.00
C787   C     0.64597   0.12514   0.75708   0.00000  Uiso   1.00
C788   C     0.35403   0.20820   0.74295   0.00000  Uiso   1.00
C789   C     0.62385   0.16655   0.74988   0.00000  Uiso   1.00
C790   C     0.37615   0.16679   0.75015   0.00000  Uiso   1.00
C791   C     0.47797   0.02481   0.71808   0.00000  Uiso   1.00
C792   C     0.52278   0.30766   0.78114   0.00000  Uiso   1.00
C793   C     0.52206   0.02362   0.78206   0.00000  Uiso   1.00
C794   C     0.47792   0.30932   0.71816   0.00000  Uiso   1.00
C795   C     0.49958   0.16682   0.66474   0.00000  Uiso   1.00
C796   C     0.50041   0.16651   0.83525   0.00000  Uiso   1.00
C797   C     0.53845   0.16686   0.90767   0.00000  Uiso   1.00
C798   C     0.46154   0.16696   0.59229   0.00000  Uiso   1.00
C799   C     0.50102   0.16618   0.88338   0.00000  Uiso   1.00
C800   C     0.49897   0.16716   0.61660   0.00000  Uiso   1.00
C801   C     0.46376   0.16558   0.90415   0.00000  Uiso   1.00
C802   C     0.53624   0.16736   0.59584   0.00000  Uiso   1.00
C803   C     0.46257   0.16588   0.95087   0.00000  Uiso   1.00
C804   C     0.53743   0.16722   0.54911   0.00000  Uiso   1.00
C805   C     0.50029   0.16650   0.97643   0.00000  Uiso   1.00
C806   C     0.49971   0.16678   0.52354   0.00000  Uiso   1.00
C807   C     0.53859   0.16684   0.95480   0.00000  Uiso   1.00
C808   C     0.46141   0.16663   0.54516   0.00000  Uiso   1.00
C809   C     0.42476   0.16566   0.97266   0.00000  Uiso   1.00
C810   C     0.57525   0.16741   0.52732   0.00000  Uiso   1.00
Cu811  Cu    0.50000   0.21355   0.75000   0.00000  Uiso   1.00
Cu812  Cu    0.50000   0.11978   0.75000   0.00000  Uiso   1.00
N813   N     0.50000   0.28402   0.75000   0.00000  Uiso   1.00
N814   N     0.50000   0.04931   0.75000   0.00000  Uiso   1.00
O815   O     0.43988   0.20625   0.75000   0.00000  Uiso   1.00
O816   O     0.56012   0.12709   0.75001   0.00000  Uiso   1.00
O817   O     0.56012   0.20625   0.75001   0.00000  Uiso   1.00
O818   O     0.43988   0.12709   0.75000   0.00000  Uiso   1.00
O819   O     0.49999   0.20627   0.68513   0.00000  Uiso   1.00
O820   O     0.50001   0.12707   0.81487   0.00000  Uiso   1.00
O821   O     0.50001   0.20627   0.81487   0.00000  Uiso   1.00
O822   O     0.49999   0.12707   0.68513   0.00000  Uiso   1.00
N823   N     0.57605   0.16764   0.88412   0.00000  Uiso   1.00
H824   H     0.57622   0.19710   0.86374   0.00000  Uiso   1.00
H825   H     0.57739   0.13832   0.86406   0.00000  Uiso   1.00
N826   N     0.42391   0.16711   0.61580   0.00000  Uiso   1.00
H827   H     0.42301   0.19658   0.63567   0.00000  Uiso   1.00
H828   H     0.42325   0.13780   0.63633   0.00000  Uiso   1.00
F829   F     0.42908   0.16491   0.87757   0.00000  Uiso   1.00
F830   F     0.57093   0.16761   0.62242   0.00000  Uiso   1.00
N831   N     0.38576   0.16507   0.94870   0.00000  Uiso   1.00
H832   H     0.38341   0.13503   0.92968   0.00000  Uiso   1.00
H833   H     0.38260   0.19473   0.92874   0.00000  Uiso   1.00
N834   N     0.61424   0.16781   0.55127   0.00000  Uiso   1.00
H835   H     0.61736   0.13804   0.57109   0.00000  Uiso   1.00
H836   H     0.61664   0.19774   0.57046   0.00000  Uiso   1.00
N837   N     0.38511   0.16591   0.53975   0.00000  Uiso   1.00
H838   H     0.36833   0.19507   0.52886   0.00000  Uiso   1.00
H839   H     0.36908   0.13628   0.52980   0.00000  Uiso   1.00
N840   N     0.61489   0.16729   0.96021   0.00000  Uiso   1.00
H841   H     0.63103   0.19681   0.97026   0.00000  Uiso   1.00
H842   H     0.63156   0.13802   0.97100   0.00000  Uiso   1.00
F843   F     0.37518   0.08458   0.76520   0.00000  Uiso   1.00
F844   F     0.62482   0.24876   0.73483   0.00000  Uiso   1.00
F845   F     0.62691   0.08428   0.76427   0.00000  Uiso   1.00
F846   F     0.37308   0.24906   0.73576   0.00000  Uiso   1.00
N847   N     0.45545   0.04711   0.68205   0.00000  Uiso   1.00
H848   H     0.43743   0.07415   0.69294   0.00000  Uiso   1.00
H849   H     0.47550   0.05721   0.65757   0.00000  Uiso   1.00
N850   N     0.54783   0.28228   0.81307   0.00000  Uiso   1.00
H851   H     0.57828   0.29272   0.81022   0.00000  Uiso   1.00
H852   H     0.53851   0.29056   0.84499   0.00000  Uiso   1.00
N853   N     0.54395   0.04498   0.81852   0.00000  Uiso   1.00
H854   H     0.52313   0.05482   0.84230   0.00000  Uiso   1.00
H855   H     0.56100   0.07285   0.80783   0.00000  Uiso   1.00
N856   N     0.45615   0.28773   0.68169   0.00000  Uiso   1.00
H857   H     0.47691   0.27829   0.65771   0.00000  Uiso   1.00
H858   H     0.43910   0.25982   0.69223   0.00000  Uiso   1.00
C859   C     0.75415   0.16675   0.75002   0.00000  Uiso   1.00
C860   C     0.91251   0.16658   0.74999   0.00000  Uiso   1.00
C861   C     0.75754   0.16609   0.51917   0.00000  Uiso   1.00
C862   C     0.90913   0.16722   0.98080   0.00000  Uiso   1.00
C863   C     0.68839   0.12527   0.75733   0.00000  Uiso   1.00
C864   C     0.97828   0.20807   0.74270   0.00000  Uiso   1.00
C865   C     0.97930   0.12514   0.75708   0.00000  Uiso   1.00
C866   C     0.68736   0.20820   0.74295   0.00000  Uiso   1.00
C867   C     0.95719   0.16655   0.74988   0.00000  Uiso   1.00
C868   C     0.70948   0.16679   0.75015   0.00000  Uiso   1.00
C869   C     0.81131   0.02481   0.71808   0.00000  Uiso   1.00
C870   C     0.85611   0.30766   0.78114   0.00000  Uiso   1.00
C871   C     0.85540   0.02362   0.78206   0.00000  Uiso   1.00
C872   C     0.81125   0.30932   0.71816   0.00000  Uiso   1.00
C873   C     0.83291   0.16682   0.66474   0.00000  Uiso   1.00
C874   C     0.83374   0.16651   0.83525   0.00000  Uiso   1.00
C875   C     0.87178   0.16686   0.90767   0.00000  Uiso   1.00
C876   C     0.79488   0.16696   0.59229   0.00000  Uiso   1.00
C877   C     0.83435   0.16618   0.88338   0.00000  Uiso   1.00
C878   C     0.83231   0.16716   0.61660   0.00000  Uiso   1.00
C879   C     0.79709   0.16558   0.90415   0.00000  Uiso   1.00
C880   C     0.86958   0.16736   0.59584   0.00000  Uiso   1.00
C881   C     0.79590   0.16588   0.95087   0.00000  Uiso   1.00
C882   C     0.87077   0.16722   0.54911   0.00000  Uiso   1.00
C883   C     0.83363   0.16650   0.97643   0.00000  Uiso   1.00
C884   C     0.83304   0.16678   0.52354   0.00000  Uiso   1.00
C885   C     0.87192   0.16684   0.95480   0.00000  Uiso   1.00
C886   C     0.79474   0.16663   0.54516   0.00000  Uiso   1.00
C887   C     0.75809   0.16566   0.97266   0.00000  Uiso   1.00
C888   C     0.90858   0.16741   0.52732   0.00000  Uiso   1.00
Cu889  Cu    0.83333   0.21355   0.75000   0.00000  Uiso   1.00
Cu890  Cu    0.83333   0.11978   0.75000   0.00000  Uiso   1.00
N891   N     0.83333   0.28402   0.75000   0.00000  Uiso   1.00
N892   N     0.83333   0.04931   0.75000   0.00000  Uiso   1.00
O893   O     0.77321   0.20625   0.75000   0.00000  Uiso   1.00
O894   O     0.89345   0.12709   0.75001   0.00000  Uiso   1.00
O895   O     0.89345   0.20625   0.75001   0.00000  Uiso   1.00
O896   O     0.77321   0.12709   0.75000   0.00000  Uiso   1.00
O897   O     0.83332   0.20627   0.68513   0.00000  Uiso   1.00
O898   O     0.83334   0.12707   0.81487   0.00000  Uiso   1.00
O899   O     0.83334   0.20627   0.81487   0.00000  Uiso   1.00
O900   O     0.83332   0.12707   0.68513   0.00000  Uiso   1.00
N901   N     0.90939   0.16764   0.88412   0.00000  Uiso   1.00
H902   H     0.90956   0.19710   0.86374   0.00000  Uiso   1.00
H903   H     0.91073   0.13832   0.86406   0.00000  Uiso   1.00
N904   N     0.75725   0.16711   0.61580   0.00000  Uiso   1.00
H905   H     0.75634   0.19658   0.63567   0.00000  Uiso   1.00
H906   H     0.75658   0.13780   0.63633   0.00000  Uiso   1.00
F907   F     0.76241   0.16491   0.87757   0.00000  Uiso   1.00
F908   F     0.90426   0.16761   0.62242   0.00000  Uiso   1.00
N909   N     0.71910   0.16507   0.94870   0.00000  Uiso   1.00
H910   H     0.71675   0.13503   0.92968   0.00000  Uiso   1.00
H911   H     0.71593   0.19473   0.92874   0.00000  Uiso   1.00
N912   N     0.94757   0.16781   0.55127   0.00000  Uiso   1.00
H913   H     0.95069   0.13804   0.57109   0.00000  Uiso   1.00
H914   H     0.94997   0.19774   0.57046   0.00000  Uiso   1.00
N915   N     0.71844   0.16591   0.53975   0.00000  Uiso   1.00
H916   H     0.70167   0.19507   0.52886   0.00000  Uiso   1.00
H917   H     0.70241   0.13628   0.52980   0.00000  Uiso   1.00
N918   N     0.94822   0.16729   0.96021   0.00000  Uiso   1.00
H919   H     0.96436   0.19681   0.97026   0.00000  Uiso   1.00
H920   H     0.96489   0.13802   0.97100   0.00000  Uiso   1.00
F921   F     0.70852   0.08458   0.76520   0.00000  Uiso   1.00
F922   F     0.95815   0.24876   0.73483   0.00000  Uiso   1.00
F923   F     0.96025   0.08428   0.76427   0.00000  Uiso   1.00
F924   F     0.70642   0.24906   0.73576   0.00000  Uiso   1.00
N925   N     0.78878   0.04711   0.68205   0.00000  Uiso   1.00
H926   H     0.77077   0.07415   0.69294   0.00000  Uiso   1.00
H927   H     0.80884   0.05721   0.65757   0.00000  Uiso   1.00
N928   N     0.88116   0.28228   0.81307   0.00000  Uiso   1.00
H929   H     0.91161   0.29272   0.81022   0.00000  Uiso   1.00
H930   H     0.87185   0.29056   0.84499   0.00000  Uiso   1.00
N931   N     0.87728   0.04498   0.81852   0.00000  Uiso   1.00
H932   H     0.85646   0.05482   0.84230   0.00000  Uiso   1.00
H933   H     0.89433   0.07285   0.80783   0.00000  Uiso   1.00
N934   N     0.78948   0.28773   0.68169   0.00000  Uiso   1.00
H935   H     0.81025   0.27829   0.65771   0.00000  Uiso   1.00
H936   H     0.77244   0.25982   0.69223   0.00000  Uiso   1.00
C937   C     0.08749   0.50009   0.75002   0.00000  Uiso   1.00
C938   C     0.24585   0.49992   0.74999   0.00000  Uiso   1.00
C939   C     0.09087   0.49942   0.51917   0.00000  Uiso   1.00
C940   C     0.24246   0.50055   0.98080   0.00000  Uiso   1.00
C941   C     0.02172   0.45861   0.75733   0.00000  Uiso   1.00
C942   C     0.31161   0.54140   0.74270   0.00000  Uiso   1.00
C943   C     0.31264   0.45847   0.75708   0.00000  Uiso   1.00
C944   C     0.02070   0.54153   0.74295   0.00000  Uiso   1.00
C945   C     0.29052   0.49988   0.74988   0.00000  Uiso   1.00
C946   C     0.04282   0.50013   0.75015   0.00000  Uiso   1.00
C947   C     0.14464   0.35814   0.71808   0.00000  Uiso   1.00
C948   C     0.18945   0.64100   0.78114   0.00000  Uiso   1.00
C949   C     0.18873   0.35695   0.78206   0.00000  Uiso   1.00
C950   C     0.14458   0.64265   0.71816   0.00000  Uiso   1.00
C951   C     0.16624   0.50016   0.66474   0.00000  Uiso   1.00
C952   C     0.16707   0.49985   0.83525   0.00000  Uiso   1.00
C953   C     0.20511   0.50019   0.90767   0.00000  Uiso   1.00
C954   C     0.12821   0.50029   0.59229   0.00000  Uiso   1.00
C955   C     0.16768   0.49952   0.88338   0.00000  Uiso   1.00
C956   C     0.16564   0.50050   0.61660   0.00000  Uiso   1.00
C957   C     0.13042   0.49892   0.90415   0.00000  Uiso   1.00
C958   C     0.20291   0.50070   0.59584   0.00000  Uiso   1.00
C959   C     0.12923   0.49922   0.95087   0.00000  Uiso   1.00
C960   C     0.20410   0.50055   0.54911   0.00000  Uiso   1.00
C961   C     0.16696   0.49983   0.97643   0.00000  Uiso   1.00
C962   C     0.16637   0.50011   0.52354   0.00000  Uiso   1.00
C963   C     0.20526   0.50018   0.95480   0.00000  Uiso   1.00
C964   C     0.12808   0.49996   0.54516   0.00000  Uiso   1.00
C965   C     0.09142   0.49900   0.97266   0.00000  Uiso   1.00
C966   C     0.24192   0.50074   0.52732   0.00000  Uiso   1.00
Cu967  Cu    0.16667   0.54689   0.75000   0.00000  Uiso   1.00
Cu968  Cu    0.16667   0.45311   0.75000   0.00000  Uiso   1.00
N969   N     0.16667   0.61736   0.75000   0.00000  Uiso   1.00
N970   N     0.16667   0.38264   0.75000   0.00000  Uiso   1.00
O971   O     0.10655   0.53958   0.75000   0.00000  Uiso   1.00
O972   O     0.22679   0.46042   0.75001   0.00000  Uiso   1.00
O973   O     0.22679   0.53958   0.75001   0.00000  Uiso   1.00
O974   O     0.10655   0.46042   0.75000   0.00000  Uiso   1.00
O975   O     0.16666   0.53960   0.68513   0.00000  Uiso   1.00
O976   O     0.16668   0.46040   0.81487   0.00000  Uiso   1.00
O977   O     0.16668   0.53960   0.81487   0.00000  Uiso   1.00
O978   O     0.16666   0.46040   0.68513   0.00000  Uiso   1.00
N979   N     0.24272   0.50097   0.88412   0.00000  Uiso   1.00
H980   H     0.24289   0.53044   0.86374   0.00000  Uiso   1.00
H981   H     0.24406   0.47165   0.86406   0.00000  Uiso   1.00
N982   N     0.09058   0.50044   0.61580   0.00000  Uiso   1.00
H983   H     0.08968   0.52992   0.63567   0.00000  Uiso   1.00
H984   H     0.08992   0.47114   0.63633   0.00000  Uiso   1.00
F985   F     0.09574   0.49824   0.87757   0.00000  Uiso   1.00
F986   F     0.23760   0.50094   0.62242   0.00000  Uiso   1.00
N987   N     0.05243   0.49840   0.94870   0.00000  Uiso   1.00
H988   H     0.05008   0.46836   0.92968   0.00000  Uiso   1.00
H989   H     0.04927   0.52806   0.92874   0.00000  Uiso   1.00
N990   N     0.28091   0.50114   0.55127   0.00000  Uiso   1.00
H991   H     0.28403   0.47137   0.57109   0.00000  Uiso   1.00
H992   H     0.28330   0.53108   0.57046   0.00000  Uiso   1.00
N993   N     0.05178   0.49924   0.53975   0.00000  Uiso   1.00
H994   H     0.03500   0.52840   0.52886   0.00000  Uiso   1.00
H995   H     0.03574   0.46961   0.52980   0.00000  Uiso   1.00
N996   N     0.28155   0.50062   0.96021   0.00000  Uiso   1.00
H997   H     0.29770   0.53014   0.97026   0.00000  Uiso   1.00
H998   H     0.29822   0.47135   0.97100   0.00000  Uiso   1.00
F999   F     0.04185   0.41791   0.76520   0.00000  Uiso   1.00
F1000  F     0.29148   0.58209   0.73483   0.00000  Uiso   1.00
F1001  F     0.29358   0.41761   0.76427   0.00000  Uiso   1.00
F1002  F     0.03975   0.58239   0.73576   0.00000  Uiso   1.00
N1003  N     0.12211   0.38045   0.68205   0.00000  Uiso   1.00
H1004  H     0.10410   0.40749   0.69294   0.00000  Uiso   1.00
H1005  H     0.14217   0.39054   0.65757   0.00000  Uiso   1.00
N1006  N     0.21450   0.61561   0.81307   0.00000  Uiso   1.00
H1007  H     0.24495   0.62605   0.81022   0.00000  Uiso   1.00
H1008  H     0.20518   0.62389   0.84499   0.00000  Uiso   1.00
N1009  N     0.21061   0.37832   0.81852   0.00000  Uiso   1.00
H1010  H     0.18980   0.38816   0.84230   0.00000  Uiso   1.00
H1011  H     0.22766   0.40618   0.80783   0.00000  Uiso   1.00
N1012  N     0.12282   0.62106   0.68169   0.00000  Uiso   1.00
H1013  H     0.14358   0.61162   0.65771   0.00000  Uiso   1.00
H1014  H     0.10577   0.59315   0.69223   0.00000  Uiso   1.00
C1015  C     0.42082   0.50009   0.75002   0.00000  Uiso   1.00
C1016  C     0.57918   0.49992   0.74999   0.00000  Uiso   1.00
C1017  C     0.42421   0.49942   0.51917   0.00000  Uiso   1.00
C1018  C     0.57579   0.50055   0.98080   0.00000  Uiso   1.00
C1019  C     0.35505   0.45861   0.75733   0.00000  Uiso   1.00
C1020  C     0.64495   0.54140   0.74270   0.00000  Uiso   1.00
C1021  C     0.64597   0.45847   0.75708   0.00000  Uiso   1.00
C1022  C     0.35403   0.54153   0.74295   0.00000  Uiso   1.00
C1023  C     0.62385   0.49988   0.74988   0.00000  Uiso   1.00
C1024  C     0.37615   0.50013   0.75015   0.00000  Uiso   1.00
C1025  C     0.47797   0.35814   0.71808   0.00000  Uiso   1.00
C1026  C     0.52278   0.64100   0.78114   0.00000  Uiso   1.00
C1027  C     0.52206   0.35695   0.78206   0.00000  Uiso   1.00
C1028  C     0.47792   0.64265   0.71816   0.00000  Uiso   1.00
C1029  C     0.49958   0.50016   0.66474   0.00000  Uiso   1.00
C1030  C     0.50041   0.49985   0.83525   0.00000  Uiso   1.00
C1031  C     0.53845   0.50019   0.90767   0.00000  Uiso   1.00
C1032  C     0.46154   0.50029   0.59229   0.00000  Uiso   1.00
C1033  C     0.50102   0.49952   0.88338   0.00000  Uiso   1.00
C1034  C     0.49897   0.50050   0.61660   0.00000  Uiso   1.00
C1035  C     0.46376   0.49892   0.90415   0.00000  Uiso   1.00
C1036  C     0.53624   0.50070   0.59584   0.00000  Uiso   1.00
C1037  C     0.46257   0.49922   0.95087   0.00000  Uiso   1.00
C1038  C     0.53743   0.50055   0.54911   0.00000  Uiso   1.00
C1039  C     0.50029   0.49983   0.97643   0.00000  Uiso   1.00
C1040  C     0.49971   0.50011   0.52354   0.00000  Uiso   1.00
C1041  C     0.53859   0.50018   0.95480   0.00000  Uiso   1.00
C1042  C     0.46141   0.49996   0.54516   0.00000  Uiso   1.00
C1043  C     0.42476   0.49900   0.97266   0.00000  Uiso   1.00
C1044  C     0.57525   0.50074   0.52732   0.00000  Uiso   1.00
Cu1045 Cu    0.50000   0.54689   0.75000   0.00000  Uiso   1.00
Cu1046 Cu    0.50000   0.45311   0.75000   0.00000  Uiso   1.00
N1047  N     0.50000   0.61736   0.75000   0.00000  Uiso   1.00
N1048  N     0.50000   0.38264   0.75000   0.00000  Uiso   1.00
O1049  O     0.43988   0.53958   0.75000   0.00000  Uiso   1.00
O1050  O     0.56012   0.46042   0.75001   0.00000  Uiso   1.00
O1051  O     0.56012   0.53958   0.75001   0.00000  Uiso   1.00
O1052  O     0.43988   0.46042   0.75000   0.00000  Uiso   1.00
O1053  O     0.49999   0.53960   0.68513   0.00000  Uiso   1.00
O1054  O     0.50001   0.46040   0.81487   0.00000  Uiso   1.00
O1055  O     0.50001   0.53960   0.81487   0.00000  Uiso   1.00
O1056  O     0.49999   0.46040   0.68513   0.00000  Uiso   1.00
N1057  N     0.57605   0.50097   0.88412   0.00000  Uiso   1.00
H1058  H     0.57622   0.53044   0.86374   0.00000  Uiso   1.00
H1059  H     0.57739   0.47165   0.86406   0.00000  Uiso   1.00
N1060  N     0.42391   0.50044   0.61580   0.00000  Uiso   1.00
H1061  H     0.42301   0.52992   0.63567   0.00000  Uiso   1.00
H1062  H     0.42325   0.47114   0.63633   0.00000  Uiso   1.00
F1063  F     0.42908   0.49824   0.87757   0.00000  Uiso   1.00
F1064  F     0.57093   0.50094   0.62242   0.00000  Uiso   1.00
N1065  N     0.38576   0.49840   0.94870   0.00000  Uiso   1.00
H1066  H     0.38341   0.46836   0.92968   0.00000  Uiso   1.00
H1067  H     0.38260   0.52806   0.92874   0.00000  Uiso   1.00
N1068  N     0.61424   0.50114   0.55127   0.00000  Uiso   1.00
H1069  H     0.61736   0.47137   0.57109   0.00000  Uiso   1.00
H1070  H     0.61664   0.53108   0.57046   0.00000  Uiso   1.00
N1071  N     0.38511   0.49924   0.53975   0.00000  Uiso   1.00
H1072  H     0.36833   0.52840   0.52886   0.00000  Uiso   1.00
H1073  H     0.36908   0.46961   0.52980   0.00000  Uiso   1.00
N1074  N     0.61489   0.50062   0.96021   0.00000  Uiso   1.00
H1075  H     0.63103   0.53014   0.97026   0.00000  Uiso   1.00
H1076  H     0.63156   0.47135   0.97100   0.00000  Uiso   1.00
F1077  F     0.37518   0.41791   0.76520   0.00000  Uiso   1.00
F1078  F     0.62482   0.58209   0.73483   0.00000  Uiso   1.00
F1079  F     0.62691   0.41761   0.76427   0.00000  Uiso   1.00
F1080  F     0.37308   0.58239   0.73576   0.00000  Uiso   1.00
N1081  N     0.45545   0.38045   0.68205   0.00000  Uiso   1.00
H1082  H     0.43743   0.40749   0.69294   0.00000  Uiso   1.00
H1083  H     0.47550   0.39054   0.65757   0.00000  Uiso   1.00
N1084  N     0.54783   0.61561   0.81307   0.00000  Uiso   1.00
H1085  H     0.57828   0.62605   0.81022   0.00000  Uiso   1.00
H1086  H     0.53851   0.62389   0.84499   0.00000  Uiso   1.00
N1087  N     0.54395   0.37832   0.81852   0.00000  Uiso   1.00
H1088  H     0.52313   0.38816   0.84230   0.00000  Uiso   1.00
H1089  H     0.56100   0.40618   0.80783   0.00000  Uiso   1.00
N1090  N     0.45615   0.62106   0.68169   0.00000  Uiso   1.00
H1091  H     0.47691   0.61162   0.65771   0.00000  Uiso   1.00
H1092  H     0.43910   0.59315   0.69223   0.00000  Uiso   1.00
C1093  C     0.75415   0.50009   0.75002   0.00000  Uiso   1.00
C1094  C     0.91251   0.49992   0.74999   0.00000  Uiso   1.00
C1095  C     0.75754   0.49942   0.51917   0.00000  Uiso   1.00
C1096  C     0.90913   0.50055   0.98080   0.00000  Uiso   1.00
C1097  C     0.68839   0.45861   0.75733   0.00000  Uiso   1.00
C1098  C     0.97828   0.54140   0.74270   0.00000  Uiso   1.00
C1099  C     0.97930   0.45847   0.75708   0.00000  Uiso   1.00
C1100  C     0.68736   0.54153   0.74295   0.00000  Uiso   1.00
C1101  C     0.95719   0.49988   0.74988   0.00000  Uiso   1.00
C1102  C     0.70948   0.50013   0.75015   0.00000  Uiso   1.00
C1103  C     0.81131   0.35814   0.71808   0.00000  Uiso   1.00
C1104  C     0.85611   0.64100   0.78114   0.00000  Uiso   1.00
C1105  C     0.85540   0.35695   0.78206   0.00000  Uiso   1.00
C1106  C     0.81125   0.64265   0.71816   0.00000  Uiso   1.00
C1107  C     0.83291   0.50016   0.66474   0.00000  Uiso   1.00
C1108  C     0.83374   0.49985   0.83525   0.00000  Uiso   1.00
C1109  C     0.87178   0.50019   0.90767   0.00000  Uiso   1.00
C1110  C     0.79488   0.50029   0.59229   0.00000  Uiso   1.00
C1111  C     0.83435   0.49952   0.88338   0.00000  Uiso   1.00
C1112  C     0.83231   0.50050   0.61660   0.00000  Uiso   1.00
C1113  C     0.79709   0.49892   0.90415   0.00000  Uiso   1.00
C1114  C     0.86958   0.50070   0.59584   0.00000  Uiso   1.00
C1115  C     0.79590   0.49922   0.95087   0.00000  Uiso   1.00
C1116  C     0.87077   0.50055   0.54911   0.00000  Uiso   1.00
C1117  C     0.83363   0.49983   0.97643   0.00000  Uiso   1.00
C1118  C     0.83304   0.50011   0.52354   0.00000  Uiso   1.00
C1119  C     0.87192   0.50018   0.95480   0.00000  Uiso   1.00
C1120  C     0.79474   0.49996   0.54516   0.00000  Uiso   1.00
C1121  C     0.75809   0.49900   0.97266   0.00000  Uiso   1.00
C1122  C     0.90858   0.50074   0.52732   0.00000  Uiso   1.00
Cu1123 Cu    0.83333   0.54689   0.75000   0.00000  Uiso   1.00
Cu1124 Cu    0.83333   0.45311   0.75000   0.00000  Uiso   1.00
N1125  N     0.83333   0.61736   0.75000   0.00000  Uiso   1.00
N1126  N     0.83333   0.38264   0.75000   0.00000  Uiso   1.00
O1127  O     0.77321   0.53958   0.75000   0.00000  Uiso   1.00
O1128  O     0.89345   0.46042   0.75001   0.00000  Uiso   1.00
O1129  O     0.89345   0.53958   0.75001   0.00000  Uiso   1.00
O1130  O     0.77321   0.46042   0.75000   0.00000  Uiso   1.00
O1131  O     0.83332   0.53960   0.68513   0.00000  Uiso   1.00
O1132  O     0.83334   0.46040   0.81487   0.00000  Uiso   1.00
O1133  O     0.83334   0.53960   0.81487   0.00000  Uiso   1.00
O1134  O     0.83332   0.46040   0.68513   0.00000  Uiso   1.00
N1135  N     0.90939   0.50097   0.88412   0.00000  Uiso   1.00
H1136  H     0.90956   0.53044   0.86374   0.00000  Uiso   1.00
H1137  H     0.91073   0.47165   0.86406   0.00000  Uiso   1.00
N1138  N     0.75725   0.50044   0.61580   0.00000  Uiso   1.00
H1139  H     0.75634   0.52992   0.63567   0.00000  Uiso   1.00
H1140  H     0.75658   0.47114   0.63633   0.00000  Uiso   1.00
F1141  F     0.76241   0.49824   0.87757   0.00000  Uiso   1.00
F1142  F     0.90426   0.50094   0.62242   0.00000  Uiso   1.00
N1143  N     0.71910   0.49840   0.94870   0.00000  Uiso   1.00
H1144  H     0.71675   0.46836   0.92968   0.00000  Uiso   1.00
H1145  H     0.71593   0.52806   0.92874   0.00000  Uiso   1.00
N1146  N     0.94757   0.50114   0.55127   0.00000  Uiso   1.00
H1147  H     0.95069   0.47137   0.57109   0.00000  Uiso   1.00
H1148  H     0.94997   0.53108   0.57046   0.00000  Uiso   1.00
N1149  N     0.71844   0.49924   0.53975   0.00000  Uiso   1.00
H1150  H     0.70167   0.52840   0.52886   0.00000  Uiso   1.00
H1151  H     0.70241   0.46961   0.52980   0.00000  Uiso   1.00
N1152  N     0.94822   0.50062   0.96021   0.00000  Uiso   1.00
H1153  H     0.96436   0.53014   0.97026   0.00000  Uiso   1.00
H1154  H     0.96489   0.47135   0.97100   0.00000  Uiso   1.00
F1155  F     0.70852   0.41791   0.76520   0.00000  Uiso   1.00
F1156  F     0.95815   0.58209   0.73483   0.00000  Uiso   1.00
F1157  F     0.96025   0.41761   0.76427   0.00000  Uiso   1.00
F1158  F     0.70642   0.58239   0.73576   0.00000  Uiso   1.00
N1159  N     0.78878   0.38045   0.68205   0.00000  Uiso   1.00
H1160  H     0.77077   0.40749   0.69294   0.00000  Uiso   1.00
H1161  H     0.80884   0.39054   0.65757   0.00000  Uiso   1.00
N1162  N     0.88116   0.61561   0.81307   0.00000  Uiso   1.00
H1163  H     0.91161   0.62605   0.81022   0.00000  Uiso   1.00
H1164  H     0.87185   0.62389   0.84499   0.00000  Uiso   1.00
N1165  N     0.87728   0.37832   0.81852   0.00000  Uiso   1.00
H1166  H     0.85646   0.38816   0.84230   0.00000  Uiso   1.00
H1167  H     0.89433   0.40618   0.80783   0.00000  Uiso   1.00
N1168  N     0.78948   0.62106   0.68169   0.00000  Uiso   1.00
H1169  H     0.81025   0.61162   0.65771   0.00000  Uiso   1.00
H1170  H     0.77244   0.59315   0.69223   0.00000  Uiso   1.00
C1171  C     0.08749   0.83342   0.75002   0.00000  Uiso   1.00
C1172  C     0.24585   0.83325   0.74999   0.00000  Uiso   1.00
C1173  C     0.09087   0.83276   0.51917   0.00000  Uiso   1.00
C1174  C     0.24246   0.83388   0.98080   0.00000  Uiso   1.00
C1175  C     0.02172   0.79194   0.75733   0.00000  Uiso   1.00
C1176  C     0.31161   0.87473   0.74270   0.00000  Uiso   1.00
C1177  C     0.31264   0.79181   0.75708   0.00000  Uiso   1.00
C1178  C     0.02070   0.87487   0.74295   0.00000  Uiso   1.00
C1179  C     0.29052   0.83321   0.74988   0.00000  Uiso   1.00
C1180  C     0.04282   0.83346   0.75015   0.00000  Uiso   1.00
C1181  C     0.14464   0.69148   0.71808   0.00000  Uiso   1.00
C1182  C     0.18945   0.97433   0.78114   0.00000  Uiso   1.00
C1183  C     0.18873   0.69028   0.78206   0.00000  Uiso   1.00
C1184  C     0.14458   0.97598   0.71816   0.00000  Uiso   1.00
C1185  C     0.16624   0.83349   0.66474   0.00000  Uiso   1.00
C1186  C     0.16707   0.83318   0.83525   0.00000  Uiso   1.00
C1187  C     0.20511   0.83352   0.90767   0.00000  Uiso   1.00
C1188  C     0.12821   0.83362   0.59229   0.00000  Uiso   1.00
C1189  C     0.16768   0.83285   0.88338   0.00000  Uiso   1.00
C1190  C     0.16564   0.83383   0.61660   0.00000  Uiso   1.00
C1191  C     0.13042   0.83225   0.90415   0.00000  Uiso   1.00
C1192  C     0.20291   0.83403   0.59584   0.00000  Uiso   1.00
C1193  C     0.12923   0.83255   0.95087   0.00000  Uiso   1.00
C1194  C     0.20410   0.83389   0.54911   0.00000  Uiso   1.00
C1195  C     0.16696   0.83316   0.97643   0.00000  Uiso   1.00
C1196  C     0.16637   0.83344   0.52354   0.00000  Uiso   1.00
C1197  C     0.20526   0.83351   0.95480   0.00000  Uiso   1.00
C1198  C     0.12808   0.83330   0.54516   0.00000  Uiso   1.00
C1199  C     0.09142   0.83233   0.97266   0.00000  Uiso   1.00
C1200  C     0.24192   0.83408   0.52732   0.00000  Uiso   1.00
Cu1201 Cu    0.16667   0.88022   0.75000   0.00000  Uiso   1.00
Cu1202 Cu    0.16667   0.78645   0.75000   0.00000  Uiso   1.00
N1203  N     0.16667   0.95069   0.75000   0.00000  Uiso   1.00
N1204  N     0.16667   0.71598   0.75000   0.00000  Uiso   1.00
O1205  O     0.10655   0.87291   0.75000   0.00000  Uiso   1.00
O1206  O     0.22679   0.79375   0.75001   0.00000  Uiso   1.00
O1207  O     0.22679   0.87291   0.75001   0.00000  Uiso   1.00
O1208  O     0.10655   0.79375   0.75000   0.00000  Uiso   1.00
O1209  O     0.16666   0.87293   0.68513   0.00000  Uiso   1.00
O1210  O     0.16668   0.79373   0.81487   0.00000  Uiso   1.00
O1211  O     0.16668   0.87293   0.81487   0.00000  Uiso   1.00
O1212  O     0.16666   0.79373   0.68513   0.00000  Uiso   1.00
N1213  N     0.24272   0.83430   0.88412   0.00000  Uiso   1.00
H1214  H     0.24289   0.86377   0.86374   0.00000  Uiso   1.00
H1215  H     0.24406   0.80499   0.86406   0.00000  Uiso   1.00
N1216  N     0.09058   0.83377   0.61580   0.00000  Uiso   1.00
H1217  H     0.08968   0.86325   0.63567   0.00000  Uiso   1.00
H1218  H     0.08992   0.80447   0.63633   0.00000  Uiso   1.00
F1219  F     0.09574   0.83157   0.87757   0.00000  Uiso   1.00
F1220  F     0.23760   0.83427   0.62242   0.00000  Uiso   1.00
N1221  N     0.05243   0.83174   0.94870   0.00000  Uiso   1.00
H1222  H     0.05008   0.80169   0.92968   0.00000  Uiso   1.00
H1223  H     0.04927   0.86140   0.92874   0.00000  Uiso   1.00
N1224  N     0.28091   0.83448   0.55127   0.00000  Uiso   1.00
H1225  H     0.28403   0.80471   0.57109   0.00000  Uiso   1.00
H1226  H     0.28330   0.86441   0.57046   0.00000  Uiso   1.00
N1227  N     0.05178   0.83258   0.53975   0.00000  Uiso   1.00
H1228  H     0.03500   0.86173   0.52886   0.00000  Uiso   1.00
H1229  H     0.03574   0.80294   0.52980   0.00000  Uiso   1.00
N1230  N     0.28155   0.83395   0.96021   0.00000  Uiso   1.00
H1231  H     0.29770   0.86347   0.97026   0.00000  Uiso   1.00
H1232  H     0.29822   0.80468   0.97100   0.00000  Uiso   1.00
F1233  F     0.04185   0.75125   0.76520   0.00000  Uiso   1.00
F1234  F     0.29148   0.91542   0.73483   0.00000  Uiso   1.00
F1235  F     0.29358   0.75095   0.76427   0.00000  Uiso   1.00
F1236  F     0.03975   0.91573   0.73576   0.00000  Uiso   1.00
N1237  N     0.12211   0.71378   0.68205   0.00000  Uiso   1.00
H1238  H     0.10410   0.74082   0.69294   0.00000  Uiso   1.00
H1239  H     0.14217   0.72387   0.65757   0.00000  Uiso   1.00
N1240  N     0.21450   0.94894   0.81307   0.00000  Uiso   1.00
H1241  H     0.24495   0.95939   0.81022   0.00000  Uiso   1.00
H1242  H     0.20518   0.95723   0.84499   0.00000  Uiso   1.00
N1243  N     0.21061   0.71165   0.81852   0.00000  Uiso   1.00
H1244  H     0.18980   0.72149   0.84230   0.00000  Uiso   1.00
H1245  H     0.22766   0.73951   0.80783   0.00000  Uiso   1.00
N1246  N     0.12282   0.95439   0.68169   0.00000  Uiso   1.00
H1247  H     0.14358   0.94495   0.65771   0.00000  Uiso   1.00
H1248  H     0.10577   0.92648   0.69223   0.00000  Uiso   1.00
C1249  C     0.42082   0.83342   0.75002   0.00000  Uiso   1.00
C1250  C     0.57918   0.83325   0.74999   0.00000  Uiso   1.00
C1251  C     0.42421   0.83276   0.51917   0.00000  Uiso   1.00
C1252  C     0.57579   0.83388   0.98080   0.00000  Uiso   1.00
C1253  C     0.35505   0.79194   0.75733   0.00000  Uiso   1.00
C1254  C     0.64495   0.87473   0.74270   0.00000  Uiso   1.00
C1255  C     0.64597   0.79181   0.75708   0.00000  Uiso   1.00
C1256  C     0.35403   0.87487   0.74295   0.00000  Uiso   1.00
C1257  C     0.62385   0.83321   0.74988   0.00000  Uiso   1.00
C1258  C     0.37615   0.83346   0.75015   0.00000  Uiso   1.00
C1259  C     0.47797   0.69148   0.71808   0.00000  Uiso   1.00
C1260  C     0.52278   0.97433   0.78114   0.00000  Uiso   1.00
C1261  C     0.52206   0.69028   0.78206   0.00000  Uiso   1.00
C1262  C     0.47792   0.97598   0.71816   0.00000  Uiso   1.00
C1263  C     0.49958   0.83349   0.66474   0.00000  Uiso   1.00
C1264  C     0.50041   0.83318   0.83525   0.00000  Uiso   1.00
C1265  C     0.53845   0.83352   0.90767   0.00000  Uiso   1.00
C1266  C     0.46154   0.83362   0.59229   0.00000  Uiso   1.00
C1267  C     0.50102   0.83285   0.88338   0.00000  Uiso   1.00
C1268  C     0.49897   0.83383   0.61660   0.00000  Uiso   1.00
C1269  C     0.46376   0.83225   0.90415   0.00000  Uiso   1.00
C1270  C     0.53624   0.83403   0.59584   0.00000  Uiso   1.00
C1271  C     0.46257   0.83255   0.95087   0.00000  Uiso   1.00
C1272  C     0.53743   0.83389   0.54911   0.00000  Uiso   1.00
C1273  C     0.50029   0.83316   0.97643   0.00000  Uiso   1.00
C1274  C     0.49971   0.83344   0.52354   0.00000  Uiso   1.00
C1275  C     0.53859   0.83351   0.95480   0.00000  Uiso   1.00
C1276  C     0.46141   0.83330   0.54516   0.00000  Uiso   1.00
C1277  C     0.42476   0.83233   0.97266   0.00000  Uiso   1.00
C1278  C     0.57525   0.83408   0.52732   0.00000  Uiso   1.00
Cu1279 Cu    0.50000   0.88022   0.75000   0.00000  Uiso   1.00
Cu1280 Cu    0.50000   0.78645   0.75000   0.00000  Uiso   1.00
N1281  N     0.50000   0.95069   0.75000   0.00000  Uiso   1.00
N1282  N     0.50000   0.71598   0.75000   0.00000  Uiso   1.00
O1283  O     0.43988   0.87291   0.75000   0.00000  Uiso   1.00
O1284  O     0.56012   0.79375   0.75001   0.00000  Uiso   1.00
O1285  O     0.56012   0.87291   0.75001   0.00000  Uiso   1.00
O1286  O     0.43988   0.79375   0.75000   0.00000  Uiso   1.00
O1287  O     0.49999   0.87293   0.68513   0.00000  Uiso   1.00
O1288  O     0.50001   0.79373   0.81487   0.00000  Uiso   1.00
O1289  O     0.50001   0.87293   0.81487   0.00000  Uiso   1.00
O1290  O     0.49999   0.79373   0.68513   0.00000  Uiso   1.00
N1291  N     0.57605   0.83430   0.88412   0.00000  Uiso   1.00
H1292  H     0.57622   0.86377   0.86374   0.00000  Uiso   1.00
H1293  H     0.57739   0.80499   0.86406   0.00000  Uiso   1.00
N1294  N     0.42391   0.83377   0.61580   0.00000  Uiso   1.00
H1295  H     0.42301   0.86325   0.63567   0.00000  Uiso   1.00
H1296  H     0.42325   0.80447   0.63633   0.00000  Uiso   1.00
F1297  F     0.42908   0.83157   0.87757   0.00000  Uiso   1.00
F1298  F     0.57093   0.83427   0.62242   0.00000  Uiso   1.00
N1299  N     0.38576   0.83174   0.94870   0.00000  Uiso   1.00
H1300  H     0.38341   0.80169   0.92968   0.00000  Uiso   1.00
H1301  H     0.38260   0.86140   0.92874   0.00000  Uiso   1.00
N1302  N     0.61424   0.83448   0.55127   0.00000  Uiso   1.00
H1303  H     0.61736   0.80471   0.57109   0.00000  Uiso   1.00
H1304  H     0.61664   0.86441   0.57046   0.00000  Uiso   1.00
N1305  N     0.38511   0.83258   0.53975   0.00000  Uiso   1.00
H1306  H     0.36833   0.86173   0.52886   0.00000  Uiso   1.00
H1307  H     0.36908   0.80294   0.52980   0.00000  Uiso   1.00
N1308  N     0.61489   0.83395   0.96021   0.00000  Uiso   1.00
H1309  H     0.63103   0.86347   0.97026   0.00000  Uiso   1.00
H1310  H     0.63156   0.80468   0.97100   0.00000  Uiso   1.00
F1311  F     0.37518   0.75125   0.76520   0.00000  Uiso   1.00
F1312  F     0.62482   0.91542   0.73483   0.00000  Uiso   1.00
F1313  F     0.62691   0.75095   0.76427   0.00000  Uiso   1.00
F1314  F     0.37308   0.91573   0.73576   0.00000  Uiso   1.00
N1315  N     0.45545   0.71378   0.68205   0.00000  Uiso   1.00
H1316  H     0.43743   0.74082   0.69294   0.00000  Uiso   1.00
H1317  H     0.47550   0.72387   0.65757   0.00000  Uiso   1.00
N1318  N     0.54783   0.94894   0.81307   0.00000  Uiso   1.00
H1319  H     0.57828   0.95939   0.81022   0.00000  Uiso   1.00
H1320  H     0.53851   0.95723   0.84499   0.00000  Uiso   1.00
N1321  N     0.54395   0.71165   0.81852   0.00000  Uiso   1.00
H1322  H     0.52313   0.72149   0.84230   0.00000  Uiso   1.00
H1323  H     0.56100   0.73951   0.80783   0.00000  Uiso   1.00
N1324  N     0.45615   0.95439   0.68169   0.00000  Uiso   1.00
H1325  H     0.47691   0.94495   0.65771   0.00000  Uiso   1.00
H1326  H     0.43910   0.92648   0.69223   0.00000  Uiso   1.00
C1327  C     0.75415   0.83342   0.75002   0.00000  Uiso   1.00
C1328  C     0.91251   0.83325   0.74999   0.00000  Uiso   1.00
C1329  C     0.75754   0.83276   0.51917   0.00000  Uiso   1.00
C1330  C     0.90913   0.83388   0.98080   0.00000  Uiso   1.00
C1331  C     0.68839   0.79194   0.75733   0.00000  Uiso   1.00
C1332  C     0.97828   0.87473   0.74270   0.00000  Uiso   1.00
C1333  C     0.97930   0.79181   0.75708   0.00000  Uiso   1.00
C1334  C     0.68736   0.87487   0.74295   0.00000  Uiso   1.00
C1335  C     0.95719   0.83321   0.74988   0.00000  Uiso   1.00
C1336  C     0.70948   0.83346   0.75015   0.00000  Uiso   1.00
C1337  C     0.81131   0.69148   0.71808   0.00000  Uiso   1.00
C1338  C     0.85611   0.97433   0.78114   0.00000  Uiso   1.00
C1339  C     0.85540   0.69028   0.78206   0.00000  Uiso   1.00
C1340  C     0.81125   0.97598   0.71816   0.00000  Uiso   1.00
C1341  C     0.83291   0.83349   0.66474   0.00000  Uiso   1.00
C1342  C     0.83374   0.83318   0.83525   0.00000  Uiso   1.00
C1343  C     0.87178   0.83352   0.90767   0.00000  Uiso   1.00
C1344  C     0.79488   0.83362   0.59229   0.00000  Uiso   1.00
C1345  C     0.83435   0.83285   0.88338   0.00000  Uiso   1.00
C1346  C     0.83231   0.83383   0.61660   0.00000  Uiso   1.00
C1347  C     0.79709   0.83225   0.90415   0.00000  Uiso   1.00
C1348  C     0.86958   0.83403   0.59584   0.00000  Uiso   1.00
C1349  C     0.79590   0.83255   0.95087   0.00000  Uiso   1.00
C1350  C     0.87077   0.83389   0.54911   0.00000  Uiso   1.00
C1351  C     0.83363   0.83316   0.97643   0.00000  Uiso   1.00
C1352  C     0.83304   0.83344   0.52354   0.00000  Uiso   1.00
C1353  C     0.87192   0.83351   0.95480   0.00000  Uiso   1.00
C1354  C     0.79474   0.83330   0.54516   0.00000  Uiso   1.00
C1355  C     0.75809   0.83233   0.97266   0.00000  Uiso   1.00
C1356  C     0.90858   0.83408   0.52732   0.00000  Uiso   1.00
Cu1357 Cu    0.83333   0.88022   0.75000   0.00000  Uiso   1.00
Cu1358 Cu    0.83333   0.78645   0.75000   0.00000  Uiso   1.00
N1359  N     0.83333   0.95069   0.75000   0.00000  Uiso   1.00
N1360  N     0.83333   0.71598   0.75000   0.00000  Uiso   1.00
O1361  O     0.77321   0.87291   0.75000   0.00000  Uiso   1.00
O1362  O     0.89345   0.79375   0.75001   0.00000  Uiso   1.00
O1363  O     0.89345   0.87291   0.75001   0.00000  Uiso   1.00
O1364  O     0.77321   0.79375   0.75000   0.00000  Uiso   1.00
O1365  O     0.83332   0.87293   0.68513   0.00000  Uiso   1.00
O1366  O     0.83334   0.79373   0.81487   0.00000  Uiso   1.00
O1367  O     0.83334   0.87293   0.81487   0.00000  Uiso   1.00
O1368  O     0.83332   0.79373   0.68513   0.00000  Uiso   1.00
N1369  N     0.90939   0.83430   0.88412   0.00000  Uiso   1.00
H1370  H     0.90956   0.86377   0.86374   0.00000  Uiso   1.00
H1371  H     0.91073   0.80499   0.86406   0.00000  Uiso   1.00
N1372  N     0.75725   0.83377   0.61580   0.00000  Uiso   1.00
H1373  H     0.75634   0.86325   0.63567   0.00000  Uiso   1.00
H1374  H     0.75658   0.80447   0.63633   0.00000  Uiso   1.00
F1375  F     0.76241   0.83157   0.87757   0.00000  Uiso   1.00
F1376  F     0.90426   0.83427   0.62242   0.00000  Uiso   1.00
N1377  N     0.71910   0.83174   0.94870   0.00000  Uiso   1.00
H1378  H     0.71675   0.80169   0.92968   0.00000  Uiso   1.00
H1379  H     0.71593   0.86140   0.92874   0.00000  Uiso   1.00
N1380  N     0.94757   0.83448   0.55127   0.00000  Uiso   1.00
H1381  H     0.95069   0.80471   0.57109   0.00000  Uiso   1.00
H1382  H     0.94997   0.86441   0.57046   0.00000  Uiso   1.00
N1383  N     0.71844   0.83258   0.53975   0.00000  Uiso   1.00
H1384  H     0.70167   0.86173   0.52886   0.00000  Uiso   1.00
H1385  H     0.70241   0.80294   0.52980   0.00000  Uiso   1.00
N1386  N     0.94822   0.83395   0.96021   0.00000  Uiso   1.00
H1387  H     0.96436   0.86347   0.97026   0.00000  Uiso   1.00
H1388  H     0.96489   0.80468   0.97100   0.00000  Uiso   1.00
F1389  F     0.70852   0.75125   0.76520   0.00000  Uiso   1.00
F1390  F     0.95815   0.91542   0.73483   0.00000  Uiso   1.00
F1391  F     0.96025   0.75095   0.76427   0.00000  Uiso   1.00
F1392  F     0.70642   0.91573   0.73576   0.00000  Uiso   1.00
N1393  N     0.78878   0.71378   0.68205   0.00000  Uiso   1.00
H1394  H     0.77077   0.74082   0.69294   0.00000  Uiso   1.00
H1395  H     0.80884   0.72387   0.65757   0.00000  Uiso   1.00
N1396  N     0.88116   0.94894   0.81307   0.00000  Uiso   1.00
H1397  H     0.91161   0.95939   0.81022   0.00000  Uiso   1.00
H1398  H     0.87185   0.95723   0.84499   0.00000  Uiso   1.00
N1399  N     0.87728   0.71165   0.81852   0.00000  Uiso   1.00
H1400  H     0.85646   0.72149   0.84230   0.00000  Uiso   1.00
H1401  H     0.89433   0.73951   0.80783   0.00000  Uiso   1.00
N1402  N     0.78948   0.95439   0.68169   0.00000  Uiso   1.00
H1403  H     0.81025   0.94495   0.65771   0.00000  Uiso   1.00
H1404  H     0.77244   0.92648   0.69223   0.00000  Uiso   1.00
loop_
_geom_bond_atom_site_label_1
_geom_bond_atom_site_label_2
_geom_bond_distance
_geom_bond_site_symmetry_2
_ccdc_geom_bond_type
C1     O38     1.301   .     A
C1     O35     1.303   .     A
C1     C10     1.456   .     S
C2     O36     1.303   .     A
C2     O37     1.301   .     A
C2     C9      1.456   .     S
C3     C28     1.417   .     A
C3     N57     1.437   .     S
C3     C731    1.398   1_554 S
C4     N60     1.437   .     S
C4     C27     1.417   .     A
C4     C732    1.398   .     S
C5     F63     1.359   .     S
C5     C10     1.406   .     A
C5     C163    1.382   1_455 S
C6     C9      1.406   .     A
C6     F64     1.359   .     S
C6     C86     1.382   .     S
C7     F65     1.358   .     S
C7     C9      1.405   .     A
C7     C83     1.382   .     S
C8     F66     1.358   .     S
C8     C10     1.405   .     A
C8     C162    1.382   1_455 S
C11    N67     1.432   .     S
C11    N34     1.379   .     A
C11    C482    1.412   1_545 S
C12    N70     1.431   .     S
C12    N33     1.363   .     A
C12    C247    1.426   .     S
C13    N73     1.431   .     S
C13    N34     1.388   .     A
C13    C480    1.426   1_545 S
C14    N33     1.378   .     A
C14    N76     1.432   .     S
C14    C245    1.412   .     S
C15    C20     1.446   .     S
C15    O39     1.299   .     A
C15    O42     1.298   .     A
C16    O40     1.299   .     A
C16    C19     1.445   .     S
C16    O41     1.298   .     A
C17    C27     1.416   .     A
C17    N43     1.438   .     S
C17    C19     1.398   .     A
C18    C20     1.398   .     A
C18    N46     1.438   .     S
C18    C28     1.416   .     A
C19    C21     1.386   .     A
C20    C22     1.386   .     A
C21    F49     1.359   .     S
C21    C23     1.406   .     A
C22    F50     1.359   .     S
C22    C24     1.406   .     A
C23    C29     1.417   .     A
C23    C25     1.425   .     A
C24    C26     1.425   .     A
C24    C30     1.417   .     A
C25    C27     1.429   .     A
C25    C728    1.416   .     S
C26    C28     1.429   .     A
C26    C727    1.416   1_554 S
C29    N51     1.437   .     S
C29    C705    1.398   .     S
C30    N54     1.437   .     S
C30    C706    1.398   1_554 S
Cu31   N33     2.038   .     S
Cu31   O37     1.969   .     S
Cu31   Cu32    2.712   .     S
Cu31   O41     1.958   .     S
Cu31   O39     1.962   .     S
Cu31   O35     1.972   .     S
Cu32   O36     1.972   .     S
Cu32   O38     1.969   .     S
Cu32   O40     1.962   .     S
Cu32   O42     1.958   .     S
Cu32   N34     2.038   .     S
N43    H44     1.046   .     S
N43    H45     1.045   .     S
N46    H48     1.045   .     S
N46    H47     1.045   .     S
N51    H52     1.045   .     S
N51    H53     1.045   .     S
N54    H55     1.045   .     S
N54    H56     1.045   .     S
N57    H59     1.046   .     S
N57    H58     1.046   .     S
N60    H62     1.046   .     S
N60    H61     1.046   .     S
N67    H68     1.037   .     S
N67    H69     1.043   .     S
N70    H71     1.045   .     S
N70    H72     1.046   .     S
N73    H74     1.043   .     S
N73    H75     1.037   .     S
N76    H77     1.044   .     S
N76    H78     1.037   .     S
C79    O116    1.301   .     A
C79    O113    1.303   .     A
C79    C88     1.456   .     S
C80    O114    1.303   .     A
C80    O115    1.301   .     A
C80    C87     1.456   .     S
C81    C106    1.417   .     A
C81    N135    1.437   .     S
C81    C809    1.398   1_554 S
C82    N138    1.437   .     S
C82    C105    1.417   .     A
C82    C810    1.398   .     S
C83    F141    1.359   .     S
C83    C88     1.406   .     A
C84    C87     1.406   .     A
C84    F142    1.359   .     S
C84    C164    1.382   .     S
C85    F143    1.358   .     S
C85    C87     1.405   .     A
C85    C161    1.382   .     S
C86    F144    1.358   .     S
C86    C88     1.405   .     A
C89    N145    1.432   .     S
C89    N112    1.379   .     A
C89    C560    1.412   1_545 S
C90    N148    1.431   .     S
C90    N111    1.363   .     A
C90    C325    1.426   .     S
C91    N151    1.431   .     S
C91    N112    1.388   .     A
C91    C558    1.426   1_545 S
C92    N111    1.378   .     A
C92    N154    1.432   .     S
C92    C323    1.412   .     S
C93    C98     1.446   .     S
C93    O117    1.299   .     A
C93    O120    1.298   .     A
C94    O118    1.299   .     A
C94    C97     1.445   .     S
C94    O119    1.298   .     A
C95    C105    1.416   .     A
C95    N121    1.438   .     S
C95    C97     1.398   .     A
C96    C98     1.398   .     A
C96    N124    1.438   .     S
C96    C106    1.416   .     A
C97    C99     1.386   .     A
C98    C100    1.386   .     A
C99    F127    1.359   .     S
C99    C101    1.406   .     A
C100   F128    1.359   .     S
C100   C102    1.406   .     A
C101   C107    1.417   .     A
C101   C103    1.425   .     A
C102   C104    1.425   .     A
C102   C108    1.417   .     A
C103   C105    1.429   .     A
C103   C806    1.416   .     S
C104   C106    1.429   .     A
C104   C805    1.416   1_554 S
C107   N129    1.437   .     S
C107   C783    1.398   .     S
C108   N132    1.437   .     S
C108   C784    1.398   1_554 S
Cu109  N111    2.038   .     S
Cu109  O115    1.969   .     S
Cu109  Cu110   2.712   .     S
Cu109  O119    1.958   .     S
Cu109  O117    1.962   .     S
Cu109  O113    1.972   .     S
Cu110  O114    1.972   .     S
Cu110  O116    1.969   .     S
Cu110  O118    1.962   .     S
Cu110  O120    1.958   .     S
Cu110  N112    2.038   .     S
N121   H122    1.046   .     S
N121   H123    1.045   .     S
N124   H126    1.045   .     S
N124   H125    1.045   .     S
N129   H130    1.045   .     S
N129   H131    1.045   .     S
N132   H133    1.045   .     S
N132   H134    1.045   .     S
N135   H137    1.046   .     S
N135   H136    1.046   .     S
N138   H140    1.046   .     S
N138   H139    1.046   .     S
N145   H146    1.037   .     S
N145   H147    1.043   .     S
N148   H149    1.045   .     S
N148   H150    1.046   .     S
N151   H152    1.043   .     S
N151   H153    1.037   .     S
N154   H155    1.044   .     S
N154   H156    1.037   .     S
C157   O194    1.301   .     A
C157   O191    1.303   .     A
C157   C166    1.456   .     S
C158   O192    1.303   .     A
C158   O193    1.301   .     A
C158   C165    1.456   .     S
C159   C184    1.417   .     A
C159   N213    1.437   .     S
C159   C887    1.398   1_554 S
C160   N216    1.437   .     S
C160   C183    1.417   .     A
C160   C888    1.398   .     S
C161   F219    1.359   .     S
C161   C166    1.406   .     A
C162   C165    1.406   .     A
C162   F220    1.359   .     S
C162   C8      1.382   1_655 S
C163   F221    1.358   .     S
C163   C165    1.405   .     A
C163   C5      1.382   1_655 S
C164   F222    1.358   .     S
C164   C166    1.405   .     A
C167   N223    1.432   .     S
C167   N190    1.379   .     A
C167   C638    1.412   1_545 S
C168   N226    1.431   .     S
C168   N189    1.363   .     A
C168   C403    1.426   .     S
C169   N229    1.431   .     S
C169   N190    1.388   .     A
C169   C636    1.426   1_545 S
C170   N189    1.378   .     A
C170   N232    1.432   .     S
C170   C401    1.412   .     S
C171   C176    1.446   .     S
C171   O195    1.299   .     A
C171   O198    1.298   .     A
C172   O196    1.299   .     A
C172   C175    1.445   .     S
C172   O197    1.298   .     A
C173   C183    1.416   .     A
C173   N199    1.438   .     S
C173   C175    1.398   .     A
C174   C176    1.398   .     A
C174   N202    1.438   .     S
C174   C184    1.416   .     A
C175   C177    1.386   .     A
C176   C178    1.386   .     A
C177   F205    1.359   .     S
C177   C179    1.406   .     A
C178   F206    1.359   .     S
C178   C180    1.406   .     A
C179   C185    1.417   .     A
C179   C181    1.425   .     A
C180   C182    1.425   .     A
C180   C186    1.417   .     A
C181   C183    1.429   .     A
C181   C884    1.416   .     S
C182   C184    1.429   .     A
C182   C883    1.416   1_554 S
C185   N207    1.437   .     S
C185   C861    1.398   .     S
C186   N210    1.437   .     S
C186   C862    1.398   1_554 S
Cu187  N189    2.038   .     S
Cu187  O193    1.969   .     S
Cu187  Cu188   2.712   .     S
Cu187  O197    1.958   .     S
Cu187  O195    1.962   .     S
Cu187  O191    1.972   .     S
Cu188  O192    1.972   .     S
Cu188  O194    1.969   .     S
Cu188  O196    1.962   .     S
Cu188  O198    1.958   .     S
Cu188  N190    2.038   .     S
N199   H200    1.046   .     S
N199   H201    1.045   .     S
N202   H204    1.045   .     S
N202   H203    1.045   .     S
N207   H208    1.045   .     S
N207   H209    1.045   .     S
N210   H211    1.045   .     S
N210   H212    1.045   .     S
N213   H215    1.046   .     S
N213   H214    1.046   .     S
N216   H218    1.046   .     S
N216   H217    1.046   .     S
N223   H224    1.037   .     S
N223   H225    1.043   .     S
N226   H227    1.045   .     S
N226   H228    1.046   .     S
N229   H230    1.043   .     S
N229   H231    1.037   .     S
N232   H233    1.044   .     S
N232   H234    1.037   .     S
C235   O272    1.301   .     A
C235   O269    1.303   .     A
C235   C244    1.456   .     S
C236   O270    1.303   .     A
C236   O271    1.301   .     A
C236   C243    1.456   .     S
C237   C262    1.417   .     A
C237   N291    1.437   .     S
C237   C965    1.398   1_554 S
C238   N294    1.437   .     S
C238   C261    1.417   .     A
C238   C966    1.398   .     S
C239   F297    1.359   .     S
C239   C244    1.406   .     A
C239   C397    1.382   1_455 S
C240   C243    1.406   .     A
C240   F298    1.359   .     S
C240   C320    1.382   .     S
C241   F299    1.358   .     S
C241   C243    1.405   .     A
C241   C317    1.382   .     S
C242   F300    1.358   .     S
C242   C244    1.405   .     A
C242   C396    1.382   1_455 S
C245   N301    1.432   .     S
C245   N268    1.379   .     A
C246   N304    1.431   .     S
C246   N267    1.363   .     A
C246   C481    1.426   .     S
C247   N307    1.431   .     S
C247   N268    1.388   .     A
C248   N267    1.378   .     A
C248   N310    1.432   .     S
C248   C479    1.412   .     S
C249   C254    1.446   .     S
C249   O273    1.299   .     A
C249   O276    1.298   .     A
C250   O274    1.299   .     A
C250   C253    1.445   .     S
C250   O275    1.298   .     A
C251   C261    1.416   .     A
C251   N277    1.438   .     S
C251   C253    1.398   .     A
C252   C254    1.398   .     A
C252   N280    1.438   .     S
C252   C262    1.416   .     A
C253   C255    1.386   .     A
C254   C256    1.386   .     A
C255   F283    1.359   .     S
C255   C257    1.406   .     A
C256   F284    1.359   .     S
C256   C258    1.406   .     A
C257   C263    1.417   .     A
C257   C259    1.425   .     A
C258   C260    1.425   .     A
C258   C264    1.417   .     A
C259   C261    1.429   .     A
C259   C962    1.416   .     S
C260   C262    1.429   .     A
C260   C961    1.416   1_554 S
C263   N285    1.437   .     S
C263   C939    1.398   .     S
C264   N288    1.437   .     S
C264   C940    1.398   1_554 S
Cu265  N267    2.038   .     S
Cu265  O271    1.969   .     S
Cu265  Cu266   2.712   .     S
Cu265  O275    1.958   .     S
Cu265  O273    1.962   .     S
Cu265  O269    1.972   .     S
Cu266  O270    1.972   .     S
Cu266  O272    1.969   .     S
Cu266  O274    1.962   .     S
Cu266  O276    1.958   .     S
Cu266  N268    2.038   .     S
N277   H278    1.046   .     S
N277   H279    1.045   .     S
N280   H282    1.045   .     S
N280   H281    1.045   .     S
N285   H286    1.045   .     S
N285   H287    1.045   .     S
N288   H289    1.045   .     S
N288   H290    1.045   .     S
N291   H293    1.046   .     S
N291   H292    1.046   .     S
N294   H296    1.046   .     S
N294   H295    1.046   .     S
N301   H302    1.037   .     S
N301   H303    1.043   .     S
N304   H305    1.045   .     S
N304   H306    1.046   .     S
N307   H308    1.043   .     S
N307   H309    1.037   .     S
N310   H311    1.044   .     S
N310   H312    1.037   .     S
C313   O350    1.301   .     A
C313   O347    1.303   .     A
C313   C322    1.456   .     S
C314   O348    1.303   .     A
C314   O349    1.301   .     A
C314   C321    1.456   .     S
C315   C340    1.417   .     A
C315   N369    1.437   .     S
C315   C1043   1.398   1_554 S
C316   N372    1.437   .     S
C316   C339    1.417   .     A
C316   C1044   1.398   .     S
C317   F375    1.359   .     S
C317   C322    1.406   .     A
C318   C321    1.406   .     A
C318   F376    1.359   .     S
C318   C398    1.382   .     S
C319   F377    1.358   .     S
C319   C321    1.405   .     A
C319   C395    1.382   .     S
C320   F378    1.358   .     S
C320   C322    1.405   .     A
C323   N379    1.432   .     S
C323   N346    1.379   .     A
C324   N382    1.431   .     S
C324   N345    1.363   .     A
C324   C559    1.426   .     S
C325   N385    1.431   .     S
C325   N346    1.388   .     A
C326   N345    1.378   .     A
C326   N388    1.432   .     S
C326   C557    1.412   .     S
C327   C332    1.446   .     S
C327   O351    1.299   .     A
C327   O354    1.298   .     A
C328   O352    1.299   .     A
C328   C331    1.445   .     S
C328   O353    1.298   .     A
C329   C339    1.416   .     A
C329   N355    1.438   .     S
C329   C331    1.398   .     A
C330   C332    1.398   .     A
C330   N358    1.438   .     S
C330   C340    1.416   .     A
C331   C333    1.386   .     A
C332   C334    1.386   .     A
C333   F361    1.359   .     S
C333   C335    1.406   .     A
C334   F362    1.359   .     S
C334   C336    1.406   .     A
C335   C341    1.417   .     A
C335   C337    1.425   .     A
C336   C338    1.425   .     A
C336   C342    1.417   .     A
C337   C339    1.429   .     A
C337   C1040   1.416   .     S
C338   C340    1.429   .     A
C338   C1039   1.416   1_554 S
C341   N363    1.437   .     S
C341   C1017   1.398   .     S
C342   N366    1.437   .     S
C342   C1018   1.398   1_554 S
Cu343  N345    2.038   .     S
Cu343  O349    1.969   .     S
Cu343  Cu344   2.712   .     S
Cu343  O353    1.958   .     S
Cu343  O351    1.962   .     S
Cu343  O347    1.972   .     S
Cu344  O348    1.972   .     S
Cu344  O350    1.969   .     S
Cu344  O352    1.962   .     S
Cu344  O354    1.958   .     S
Cu344  N346    2.038   .     S
N355   H356    1.046   .     S
N355   H357    1.045   .     S
N358   H360    1.045   .     S
N358   H359    1.045   .     S
N363   H364    1.045   .     S
N363   H365    1.045   .     S
N366   H367    1.045   .     S
N366   H368    1.045   .     S
N369   H371    1.046   .     S
N369   H370    1.046   .     S
N372   H374    1.046   .     S
N372   H373    1.046   .     S
N379   H380    1.037   .     S
N379   H381    1.043   .     S
N382   H383    1.045   .     S
N382   H384    1.046   .     S
N385   H386    1.043   .     S
N385   H387    1.037   .     S
N388   H389    1.044   .     S
N388   H390    1.037   .     S
C391   O428    1.301   .     A
C391   O425    1.303   .     A
C391   C400    1.456   .     S
C392   O426    1.303   .     A
C392   O427    1.301   .     A
C392   C399    1.456   .     S
C393   C418    1.417   .     A
C393   N447    1.437   .     S
C393   C1121   1.398   1_554 S
C394   N450    1.437   .     S
C394   C417    1.417   .     A
C394   C1122   1.398   .     S
C395   F453    1.359   .     S
C395   C400    1.406   .     A
C396   C399    1.406   .     A
C396   F454    1.359   .     S
C396   C242    1.382   1_655 S
C397   F455    1.358   .     S
C397   C399    1.405   .     A
C397   C239    1.382   1_655 S
C398   F456    1.358   .     S
C398   C400    1.405   .     A
C401   N457    1.432   .     S
C401   N424    1.379   .     A
C402   N460    1.431   .     S
C402   N423    1.363   .     A
C402   C637    1.426   .     S
C403   N463    1.431   .     S
C403   N424    1.388   .     A
C404   N423    1.378   .     A
C404   N466    1.432   .     S
C404   C635    1.412   .     S
C405   C410    1.446   .     S
C405   O429    1.299   .     A
C405   O432    1.298   .     A
C406   O430    1.299   .     A
C406   C409    1.445   .     S
C406   O431    1.298   .     A
C407   C417    1.416   .     A
C407   N433    1.438   .     S
C407   C409    1.398   .     A
C408   C410    1.398   .     A
C408   N436    1.438   .     S
C408   C418    1.416   .     A
C409   C411    1.386   .     A
C410   C412    1.386   .     A
C411   F439    1.359   .     S
C411   C413    1.406   .     A
C412   F440    1.359   .     S
C412   C414    1.406   .     A
C413   C419    1.417   .     A
C413   C415    1.425   .     A
C414   C416    1.425   .     A
C414   C420    1.417   .     A
C415   C417    1.429   .     A
C415   C1118   1.416   .     S
C416   C418    1.429   .     A
C416   C1117   1.416   1_554 S
C419   N441    1.437   .     S
C419   C1095   1.398   .     S
C420   N444    1.437   .     S
C420   C1096   1.398   1_554 S
Cu421  N423    2.038   .     S
Cu421  O427    1.969   .     S
Cu421  Cu422   2.712   .     S
Cu421  O431    1.958   .     S
Cu421  O429    1.962   .     S
Cu421  O425    1.972   .     S
Cu422  O426    1.972   .     S
Cu422  O428    1.969   .     S
Cu422  O430    1.962   .     S
Cu422  O432    1.958   .     S
Cu422  N424    2.038   .     S
N433   H434    1.046   .     S
N433   H435    1.045   .     S
N436   H438    1.045   .     S
N436   H437    1.045   .     S
N441   H442    1.045   .     S
N441   H443    1.045   .     S
N444   H445    1.045   .     S
N444   H446    1.045   .     S
N447   H449    1.046   .     S
N447   H448    1.046   .     S
N450   H452    1.046   .     S
N450   H451    1.046   .     S
N457   H458    1.037   .     S
N457   H459    1.043   .     S
N460   H461    1.045   .     S
N460   H462    1.046   .     S
N463   H464    1.043   .     S
N463   H465    1.037   .     S
N466   H467    1.044   .     S
N466   H468    1.037   .     S
C469   O506    1.301   .     A
C469   O503    1.303   .     A
C469   C478    1.456   .     S
C470   O504    1.303   .     A
C470   O505    1.301   .     A
C470   C477    1.456   .     S
C471   C496    1.417   .     A
C471   N525    1.437   .     S
C471   C1199   1.398   1_554 S
C472   N528    1.437   .     S
C472   C495    1.417   .     A
C472   C1200   1.398   .     S
C473   F531    1.359   .     S
C473   C478    1.406   .     A
C473   C631    1.382   1_455 S
C474   C477    1.406   .     A
C474   F532    1.359   .     S
C474   C554    1.382   .     S
C475   F533    1.358   .     S
C475   C477    1.405   .     A
C475   C551    1.382   .     S
C476   F534    1.358   .     S
C476   C478    1.405   .     A
C476   C630    1.382   1_455 S
C479   N535    1.432   .     S
C479   N502    1.379   .     A
C480   N538    1.431   .     S
C480   N501    1.363   .     A
C480   C13     1.426   1_565 S
C481   N541    1.431   .     S
C481   N502    1.388   .     A
C482   N501    1.378   .     A
C482   N544    1.432   .     S
C482   C11     1.412   1_565 S
C483   C488    1.446   .     S
C483   O507    1.299   .     A
C483   O510    1.298   .     A
C484   O508    1.299   .     A
C484   C487    1.445   .     S
C484   O509    1.298   .     A
C485   C495    1.416   .     A
C485   N511    1.438   .     S
C485   C487    1.398   .     A
C486   C488    1.398   .     A
C486   N514    1.438   .     S
C486   C496    1.416   .     A
C487   C489    1.386   .     A
C488   C490    1.386   .     A
C489   F517    1.359   .     S
C489   C491    1.406   .     A
C490   F518    1.359   .     S
C490   C492    1.406   .     A
C491   C497    1.417   .     A
C491   C493    1.425   .     A
C492   C494    1.425   .     A
C492   C498    1.417   .     A
C493   C495    1.429   .     A
C493   C1196   1.416   .     S
C494   C496    1.429   .     A
C494   C1195   1.416   1_554 S
C497   N519    1.437   .     S
C497   C1173   1.398   .     S
C498   N522    1.437   .     S
C498   C1174   1.398   1_554 S
Cu499  N501    2.038   .     S
Cu499  O505    1.969   .     S
Cu499  Cu500   2.712   .     S
Cu499  O509    1.958   .     S
Cu499  O507    1.962   .     S
Cu499  O503    1.972   .     S
Cu500  O504    1.972   .     S
Cu500  O506    1.969   .     S
Cu500  O508    1.962   .     S
Cu500  O510    1.958   .     S
Cu500  N502    2.038   .     S
N511   H512    1.046   .     S
N511   H513    1.045   .     S
N514   H516    1.045   .     S
N514   H515    1.045   .     S
N519   H520    1.045   .     S
N519   H521    1.045   .     S
N522   H523    1.045   .     S
N522   H524    1.045   .     S
N525   H527    1.046   .     S
N525   H526    1.046   .     S
N528   H530    1.046   .     S
N528   H529    1.046   .     S
N535   H536    1.037   .     S
N535   H537    1.043   .     S
N538   H539    1.045   .     S
N538   H540    1.046   .     S
N541   H542    1.043   .     S
N541   H543    1.037   .     S
N544   H545    1.044   .     S
N544   H546    1.037   .     S
C547   O584    1.301   .     A
C547   O581    1.303   .     A
C547   C556    1.456   .     S
C548   O582    1.303   .     A
C548   O583    1.301   .     A
C548   C555    1.456   .     S
C549   C574    1.417   .     A
C549   N603    1.437   .     S
C549   C1277   1.398   1_554 S
C550   N606    1.437   .     S
C550   C573    1.417   .     A
C550   C1278   1.398   .     S
C551   F609    1.359   .     S
C551   C556    1.406   .     A
C552   C555    1.406   .     A
C552   F610    1.359   .     S
C552   C632    1.382   .     S
C553   F611    1.358   .     S
C553   C555    1.405   .     A
C553   C629    1.382   .     S
C554   F612    1.358   .     S
C554   C556    1.405   .     A
C557   N613    1.432   .     S
C557   N580    1.379   .     A
C558   N616    1.431   .     S
C558   N579    1.363   .     A
C558   C91     1.426   1_565 S
C559   N619    1.431   .     S
C559   N580    1.388   .     A
C560   N579    1.378   .     A
C560   N622    1.432   .     S
C560   C89     1.412   1_565 S
C561   C566    1.446   .     S
C561   O585    1.299   .     A
C561   O588    1.298   .     A
C562   O586    1.299   .     A
C562   C565    1.445   .     S
C562   O587    1.298   .     A
C563   C573    1.416   .     A
C563   N589    1.438   .     S
C563   C565    1.398   .     A
C564   C566    1.398   .     A
C564   N592    1.438   .     S
C564   C574    1.416   .     A
C565   C567    1.386   .     A
C566   C568    1.386   .     A
C567   F595    1.359   .     S
C567   C569    1.406   .     A
C568   F596    1.359   .     S
C568   C570    1.406   .     A
C569   C575    1.417   .     A
C569   C571    1.425   .     A
C570   C572    1.425   .     A
C570   C576    1.417   .     A
C571   C573    1.429   .     A
C571   C1274   1.416   .     S
C572   C574    1.429   .     A
C572   C1273   1.416   1_554 S
C575   N597    1.437   .     S
C575   C1251   1.398   .     S
C576   N600    1.437   .     S
C576   C1252   1.398   1_554 S
Cu577  N579    2.038   .     S
Cu577  O583    1.969   .     S
Cu577  Cu578   2.712   .     S
Cu577  O587    1.958   .     S
Cu577  O585    1.962   .     S
Cu577  O581    1.972   .     S
Cu578  O582    1.972   .     S
Cu578  O584    1.969   .     S
Cu578  O586    1.962   .     S
Cu578  O588    1.958   .     S
Cu578  N580    2.038   .     S
N589   H590    1.046   .     S
N589   H591    1.045   .     S
N592   H594    1.045   .     S
N592   H593    1.045   .     S
N597   H598    1.045   .     S
N597   H599    1.045   .     S
N600   H601    1.045   .     S
N600   H602    1.045   .     S
N603   H605    1.046   .     S
N603   H604    1.046   .     S
N606   H608    1.046   .     S
N606   H607    1.046   .     S
N613   H614    1.037   .     S
N613   H615    1.043   .     S
N616   H617    1.045   .     S
N616   H618    1.046   .     S
N619   H620    1.043   .     S
N619   H621    1.037   .     S
N622   H623    1.044   .     S
N622   H624    1.037   .     S
C625   O662    1.301   .     A
C625   O659    1.303   .     A
C625   C634    1.456   .     S
C626   O660    1.303   .     A
C626   O661    1.301   .     A
C626   C633    1.456   .     S
C627   C652    1.417   .     A
C627   N681    1.437   .     S
C627   C1355   1.398   1_554 S
C628   N684    1.437   .     S
C628   C651    1.417   .     A
C628   C1356   1.398   .     S
C629   F687    1.359   .     S
C629   C634    1.406   .     A
C630   C633    1.406   .     A
C630   F688    1.359   .     S
C630   C476    1.382   1_655 S
C631   F689    1.358   .     S
C631   C633    1.405   .     A
C631   C473    1.382   1_655 S
C632   F690    1.358   .     S
C632   C634    1.405   .     A
C635   N691    1.432   .     S
C635   N658    1.379   .     A
C636   N694    1.431   .     S
C636   N657    1.363   .     A
C636   C169    1.426   1_565 S
C637   N697    1.431   .     S
C637   N658    1.388   .     A
C638   N657    1.378   .     A
C638   N700    1.432   .     S
C638   C167    1.412   1_565 S
C639   C644    1.446   .     S
C639   O663    1.299   .     A
C639   O666    1.298   .     A
C640   O664    1.299   .     A
C640   C643    1.445   .     S
C640   O665    1.298   .     A
C641   C651    1.416   .     A
C641   N667    1.438   .     S
C641   C643    1.398   .     A
C642   C644    1.398   .     A
C642   N670    1.438   .     S
C642   C652    1.416   .     A
C643   C645    1.386   .     A
C644   C646    1.386   .     A
C645   F673    1.359   .     S
C645   C647    1.406   .     A
C646   F674    1.359   .     S
C646   C648    1.406   .     A
C647   C653    1.417   .     A
C647   C649    1.425   .     A
C648   C650    1.425   .     A
C648   C654    1.417   .     A
C649   C651    1.429   .     A
C649   C1352   1.416   .     S
C650   C652    1.429   .     A
C650   C1351   1.416   1_554 S
C653   N675    1.437   .     S
C653   C1329   1.398   .     S
C654   N678    1.437   .     S
C654   C1330   1.398   1_554 S
Cu655  N657    2.038   .     S
Cu655  O661    1.969   .     S
Cu655  Cu656   2.712   .     S
Cu655  O665    1.958   .     S
Cu655  O663    1.962   .     S
Cu655  O659    1.972   .     S
Cu656  O660    1.972   .     S
Cu656  O662    1.969   .     S
Cu656  O664    1.962   .     S
Cu656  O666    1.958   .     S
Cu656  N658    2.038   .     S
N667   H668    1.046   .     S
N667   H669    1.045   .     S
N670   H672    1.045   .     S
N670   H671    1.045   .     S
N675   H676    1.045   .     S
N675   H677    1.045   .     S
N678   H679    1.045   .     S
N678   H680    1.045   .     S
N681   H683    1.046   .     S
N681   H682    1.046   .     S
N684   H686    1.046   .     S
N684   H685    1.046   .     S
N691   H692    1.037   .     S
N691   H693    1.043   .     S
N694   H695    1.045   .     S
N694   H696    1.046   .     S
N697   H698    1.043   .     S
N697   H699    1.037   .     S
N700   H701    1.044   .     S
N700   H702    1.037   .     S
C703   O740    1.301   .     A
C703   O737    1.303   .     A
C703   C712    1.456   .     S
C704   O738    1.303   .     A
C704   O739    1.301   .     A
C704   C711    1.456   .     S
C705   C730    1.417   .     A
C705   N759    1.437   .     S
C706   N762    1.437   .     S
C706   C729    1.417   .     A
C706   C30     1.398   1_556 S
C707   F765    1.359   .     S
C707   C712    1.406   .     A
C707   C865    1.382   1_455 S
C708   C711    1.406   .     A
C708   F766    1.359   .     S
C708   C788    1.382   .     S
C709   F767    1.358   .     S
C709   C711    1.405   .     A
C709   C785    1.382   .     S
C710   F768    1.358   .     S
C710   C712    1.405   .     A
C710   C864    1.382   1_455 S
C713   N769    1.432   .     S
C713   N736    1.379   .     A
C713   C1184   1.412   1_545 S
C714   N772    1.431   .     S
C714   N735    1.363   .     A
C714   C949    1.426   .     S
C715   N775    1.431   .     S
C715   N736    1.388   .     A
C715   C1182   1.426   1_545 S
C716   N735    1.378   .     A
C716   N778    1.432   .     S
C716   C947    1.412   .     S
C717   C722    1.446   .     S
C717   O741    1.299   .     A
C717   O744    1.298   .     A
C718   O742    1.299   .     A
C718   C721    1.445   .     S
C718   O743    1.298   .     A
C719   C729    1.416   .     A
C719   N745    1.438   .     S
C719   C721    1.398   .     A
C720   C722    1.398   .     A
C720   N748    1.438   .     S
C720   C730    1.416   .     A
C721   C723    1.386   .     A
C722   C724    1.386   .     A
C723   F751    1.359   .     S
C723   C725    1.406   .     A
C724   F752    1.359   .     S
C724   C726    1.406   .     A
C725   C731    1.417   .     A
C725   C727    1.425   .     A
C726   C728    1.425   .     A
C726   C732    1.417   .     A
C727   C729    1.429   .     A
C727   C26     1.416   1_556 S
C728   C730    1.429   .     A
C731   N753    1.437   .     S
C731   C3      1.398   1_556 S
C732   N756    1.437   .     S
Cu733  N735    2.038   .     S
Cu733  O739    1.969   .     S
Cu733  Cu734   2.712   .     S
Cu733  O743    1.958   .     S
Cu733  O741    1.962   .     S
Cu733  O737    1.972   .     S
Cu734  O738    1.972   .     S
Cu734  O740    1.969   .     S
Cu734  O742    1.962   .     S
Cu734  O744    1.958   .     S
Cu734  N736    2.038   .     S
N745   H746    1.046   .     S
N745   H747    1.045   .     S
N748   H750    1.045   .     S
N748   H749    1.045   .     S
N753   H754    1.045   .     S
N753   H755    1.045   .     S
N756   H757    1.045   .     S
N756   H758    1.045   .     S
N759   H761    1.046   .     S
N759   H760    1.046   .     S
N762   H764    1.046   .     S
N762   H763    1.046   .     S
N769   H770    1.037   .     S
N769   H771    1.043   .     S
N772   H773    1.045   .     S
N772   H774    1.046   .     S
N775   H776    1.043   .     S
N775   H777    1.037   .     S
N778   H779    1.044   .     S
N778   H780    1.037   .     S
C781   O818    1.301   .     A
C781   O815    1.303   .     A
C781   C790    1.456   .     S
C782   O816    1.303   .     A
C782   O817    1.301   .     A
C782   C789    1.456   .     S
C783   C808    1.417   .     A
C783   N837    1.437   .     S
C784   N840    1.437   .     S
C784   C807    1.417   .     A
C784   C108    1.398   1_556 S
C785   F843    1.359   .     S
C785   C790    1.406   .     A
C786   C789    1.406   .     A
C786   F844    1.359   .     S
C786   C866    1.382   .     S
C787   F845    1.358   .     S
C787   C789    1.405   .     A
C787   C863    1.382   .     S
C788   F846    1.358   .     S
C788   C790    1.405   .     A
C791   N847    1.432   .     S
C791   N814    1.379   .     A
C791   C1262   1.412   1_545 S
C792   N850    1.431   .     S
C792   N813    1.363   .     A
C792   C1027   1.426   .     S
C793   N853    1.431   .     S
C793   N814    1.388   .     A
C793   C1260   1.426   1_545 S
C794   N813    1.378   .     A
C794   N856    1.432   .     S
C794   C1025   1.412   .     S
C795   C800    1.446   .     S
C795   O819    1.299   .     A
C795   O822    1.298   .     A
C796   O820    1.299   .     A
C796   C799    1.445   .     S
C796   O821    1.298   .     A
C797   C807    1.416   .     A
C797   N823    1.438   .     S
C797   C799    1.398   .     A
C798   C800    1.398   .     A
C798   N826    1.438   .     S
C798   C808    1.416   .     A
C799   C801    1.386   .     A
C800   C802    1.386   .     A
C801   F829    1.359   .     S
C801   C803    1.406   .     A
C802   F830    1.359   .     S
C802   C804    1.406   .     A
C803   C809    1.417   .     A
C803   C805    1.425   .     A
C804   C806    1.425   .     A
C804   C810    1.417   .     A
C805   C807    1.429   .     A
C805   C104    1.416   1_556 S
C806   C808    1.429   .     A
C809   N831    1.437   .     S
C809   C81     1.398   1_556 S
C810   N834    1.437   .     S
Cu811  N813    2.038   .     S
Cu811  O817    1.969   .     S
Cu811  Cu812   2.712   .     S
Cu811  O821    1.958   .     S
Cu811  O819    1.962   .     S
Cu811  O815    1.972   .     S
Cu812  O816    1.972   .     S
Cu812  O818    1.969   .     S
Cu812  O820    1.962   .     S
Cu812  O822    1.958   .     S
Cu812  N814    2.038   .     S
N823   H824    1.046   .     S
N823   H825    1.045   .     S
N826   H828    1.045   .     S
N826   H827    1.045   .     S
N831   H832    1.045   .     S
N831   H833    1.045   .     S
N834   H835    1.045   .     S
N834   H836    1.045   .     S
N837   H839    1.046   .     S
N837   H838    1.046   .     S
N840   H842    1.046   .     S
N840   H841    1.046   .     S
N847   H848    1.037   .     S
N847   H849    1.043   .     S
N850   H851    1.045   .     S
N850   H852    1.046   .     S
N853   H854    1.043   .     S
N853   H855    1.037   .     S
N856   H857    1.044   .     S
N856   H858    1.037   .     S
C859   O896    1.301   .     A
C859   O893    1.303   .     A
C859   C868    1.456   .     S
C860   O894    1.303   .     A
C860   O895    1.301   .     A
C860   C867    1.456   .     S
C861   C886    1.417   .     A
C861   N915    1.437   .     S
C862   N918    1.437   .     S
C862   C885    1.417   .     A
C862   C186    1.398   1_556 S
C863   F921    1.359   .     S
C863   C868    1.406   .     A
C864   C867    1.406   .     A
C864   F922    1.359   .     S
C864   C710    1.382   1_655 S
C865   F923    1.358   .     S
C865   C867    1.405   .     A
C865   C707    1.382   1_655 S
C866   F924    1.358   .     S
C866   C868    1.405   .     A
C869   N925    1.432   .     S
C869   N892    1.379   .     A
C869   C1340   1.412   1_545 S
C870   N928    1.431   .     S
C870   N891    1.363   .     A
C870   C1105   1.426   .     S
C871   N931    1.431   .     S
C871   N892    1.388   .     A
C871   C1338   1.426   1_545 S
C872   N891    1.378   .     A
C872   N934    1.432   .     S
C872   C1103   1.412   .     S
C873   C878    1.446   .     S
C873   O897    1.299   .     A
C873   O900    1.298   .     A
C874   O898    1.299   .     A
C874   C877    1.445   .     S
C874   O899    1.298   .     A
C875   C885    1.416   .     A
C875   N901    1.438   .     S
C875   C877    1.398   .     A
C876   C878    1.398   .     A
C876   N904    1.438   .     S
C876   C886    1.416   .     A
C877   C879    1.386   .     A
C878   C880    1.386   .     A
C879   F907    1.359   .     S
C879   C881    1.406   .     A
C880   F908    1.359   .     S
C880   C882    1.406   .     A
C881   C887    1.417   .     A
C881   C883    1.425   .     A
C882   C884    1.425   .     A
C882   C888    1.417   .     A
C883   C885    1.429   .     A
C883   C182    1.416   1_556 S
C884   C886    1.429   .     A
C887   N909    1.437   .     S
C887   C159    1.398   1_556 S
C888   N912    1.437   .     S
Cu889  N891    2.038   .     S
Cu889  O895    1.969   .     S
Cu889  Cu890   2.712   .     S
Cu889  O899    1.958   .     S
Cu889  O897    1.962   .     S
Cu889  O893    1.972   .     S
Cu890  O894    1.972   .     S
Cu890  O896    1.969   .     S
Cu890  O898    1.962   .     S
Cu890  O900    1.958   .     S
Cu890  N892    2.038   .     S
N901   H902    1.046   .     S
N901   H903    1.045   .     S
N904   H906    1.045   .     S
N904   H905    1.045   .     S
N909   H910    1.045   .     S
N909   H911    1.045   .     S
N912   H913    1.045   .     S
N912   H914    1.045   .     S
N915   H917    1.046   .     S
N915   H916    1.046   .     S
N918   H920    1.046   .     S
N918   H919    1.046   .     S
N925   H926    1.037   .     S
N925   H927    1.043   .     S
N928   H929    1.045   .     S
N928   H930    1.046   .     S
N931   H932    1.043   .     S
N931   H933    1.037   .     S
N934   H935    1.044   .     S
N934   H936    1.037   .     S
C937   O974    1.301   .     A
C937   O971    1.303   .     A
C937   C946    1.456   .     S
C938   O972    1.303   .     A
C938   O973    1.301   .     A
C938   C945    1.456   .     S
C939   C964    1.417   .     A
C939   N993    1.437   .     S
C940   N996    1.437   .     S
C940   C963    1.417   .     A
C940   C264    1.398   1_556 S
C941   F999    1.359   .     S
C941   C946    1.406   .     A
C941   C1099   1.382   1_455 S
C942   C945    1.406   .     A
C942   F1000   1.359   .     S
C942   C1022   1.382   .     S
C943   F1001   1.358   .     S
C943   C945    1.405   .     A
C943   C1019   1.382   .     S
C944   F1002   1.358   .     S
C944   C946    1.405   .     A
C944   C1098   1.382   1_455 S
C947   N1003   1.432   .     S
C947   N970    1.379   .     A
C948   N1006   1.431   .     S
C948   N969    1.363   .     A
C948   C1183   1.426   .     S
C949   N1009   1.431   .     S
C949   N970    1.388   .     A
C950   N969    1.378   .     A
C950   N1012   1.432   .     S
C950   C1181   1.412   .     S
C951   C956    1.446   .     S
C951   O975    1.299   .     A
C951   O978    1.298   .     A
C952   O976    1.299   .     A
C952   C955    1.445   .     S
C952   O977    1.298   .     A
C953   C963    1.416   .     A
C953   N979    1.438   .     S
C953   C955    1.398   .     A
C954   C956    1.398   .     A
C954   N982    1.438   .     S
C954   C964    1.416   .     A
C955   C957    1.386   .     A
C956   C958    1.386   .     A
C957   F985    1.359   .     S
C957   C959    1.406   .     A
C958   F986    1.359   .     S
C958   C960    1.406   .     A
C959   C965    1.417   .     A
C959   C961    1.425   .     A
C960   C962    1.425   .     A
C960   C966    1.417   .     A
C961   C963    1.429   .     A
C961   C260    1.416   1_556 S
C962   C964    1.429   .     A
C965   N987    1.437   .     S
C965   C237    1.398   1_556 S
C966   N990    1.437   .     S
Cu967  N969    2.038   .     S
Cu967  O973    1.969   .     S
Cu967  Cu968   2.712   .     S
Cu967  O977    1.958   .     S
Cu967  O975    1.962   .     S
Cu967  O971    1.972   .     S
Cu968  O972    1.972   .     S
Cu968  O974    1.969   .     S
Cu968  O976    1.962   .     S
Cu968  O978    1.958   .     S
Cu968  N970    2.038   .     S
N979   H980    1.046   .     S
N979   H981    1.045   .     S
N982   H984    1.045   .     S
N982   H983    1.045   .     S
N987   H988    1.045   .     S
N987   H989    1.045   .     S
N990   H991    1.045   .     S
N990   H992    1.045   .     S
N993   H995    1.046   .     S
N993   H994    1.046   .     S
N996   H998    1.046   .     S
N996   H997    1.046   .     S
N1003  H1004   1.037   .     S
N1003  H1005   1.043   .     S
N1006  H1007   1.045   .     S
N1006  H1008   1.046   .     S
N1009  H1010   1.043   .     S
N1009  H1011   1.037   .     S
N1012  H1013   1.044   .     S
N1012  H1014   1.037   .     S
C1015  O1052   1.301   .     A
C1015  O1049   1.303   .     A
C1015  C1024   1.456   .     S
C1016  O1050   1.303   .     A
C1016  O1051   1.301   .     A
C1016  C1023   1.456   .     S
C1017  C1042   1.417   .     A
C1017  N1071   1.437   .     S
C1018  N1074   1.437   .     S
C1018  C1041   1.417   .     A
C1018  C342    1.398   1_556 S
C1019  F1077   1.359   .     S
C1019  C1024   1.406   .     A
C1020  C1023   1.406   .     A
C1020  F1078   1.359   .     S
C1020  C1100   1.382   .     S
C1021  F1079   1.358   .     S
C1021  C1023   1.405   .     A
C1021  C1097   1.382   .     S
C1022  F1080   1.358   .     S
C1022  C1024   1.405   .     A
C1025  N1081   1.432   .     S
C1025  N1048   1.379   .     A
C1026  N1084   1.431   .     S
C1026  N1047   1.363   .     A
C1026  C1261   1.426   .     S
C1027  N1087   1.431   .     S
C1027  N1048   1.388   .     A
C1028  N1047   1.378   .     A
C1028  N1090   1.432   .     S
C1028  C1259   1.412   .     S
C1029  C1034   1.446   .     S
C1029  O1053   1.299   .     A
C1029  O1056   1.298   .     A
C1030  O1054   1.299   .     A
C1030  C1033   1.445   .     S
C1030  O1055   1.298   .     A
C1031  C1041   1.416   .     A
C1031  N1057   1.438   .     S
C1031  C1033   1.398   .     A
C1032  C1034   1.398   .     A
C1032  N1060   1.438   .     S
C1032  C1042   1.416   .     A
C1033  C1035   1.386   .     A
C1034  C1036   1.386   .     A
C1035  F1063   1.359   .     S
C1035  C1037   1.406   .     A
C1036  F1064   1.359   .     S
C1036  C1038   1.406   .     A
C1037  C1043   1.417   .     A
C1037  C1039   1.425   .     A
C1038  C1040   1.425   .     A
C1038  C1044   1.417   .     A
C1039  C1041   1.429   .     A
C1039  C338    1.416   1_556 S
C1040  C1042   1.429   .     A
C1043  N1065   1.437   .     S
C1043  C315    1.398   1_556 S
C1044  N1068   1.437   .     S
Cu1045 N1047   2.038   .     S
Cu1045 O1051   1.969   .     S
Cu1045 Cu1046  2.712   .     S
Cu1045 O1055   1.958   .     S
Cu1045 O1053   1.962   .     S
Cu1045 O1049   1.972   .     S
Cu1046 O1050   1.972   .     S
Cu1046 O1052   1.969   .     S
Cu1046 O1054   1.962   .     S
Cu1046 O1056   1.958   .     S
Cu1046 N1048   2.038   .     S
N1057  H1058   1.046   .     S
N1057  H1059   1.045   .     S
N1060  H1062   1.045   .     S
N1060  H1061   1.045   .     S
N1065  H1066   1.045   .     S
N1065  H1067   1.045   .     S
N1068  H1069   1.045   .     S
N1068  H1070   1.045   .     S
N1071  H1073   1.046   .     S
N1071  H1072   1.046   .     S
N1074  H1076   1.046   .     S
N1074  H1075   1.046   .     S
N1081  H1082   1.037   .     S
N1081  H1083   1.043   .     S
N1084  H1085   1.045   .     S
N1084  H1086   1.046   .     S
N1087  H1088   1.043   .     S
N1087  H1089   1.037   .     S
N1090  H1091   1.044   .     S
N1090  H1092   1.037   .     S
C1093  O1130   1.301   .     A
C1093  O1127   1.303   .     A
C1093  C1102   1.456   .     S
C1094  O1128   1.303   .     A
C1094  O1129   1.301   .     A
C1094  C1101   1.456   .     S
C1095  C1120   1.417   .     A
C1095  N1149   1.437   .     S
C1096  N1152   1.437   .     S
C1096  C1119   1.417   .     A
C1096  C420    1.398   1_556 S
C1097  F1155   1.359   .     S
C1097  C1102   1.406   .     A
C1098  C1101   1.406   .     A
C1098  F1156   1.359   .     S
C1098  C944    1.382   1_655 S
C1099  F1157   1.358   .     S
C1099  C1101   1.405   .     A
C1099  C941    1.382   1_655 S
C1100  F1158   1.358   .     S
C1100  C1102   1.405   .     A
C1103  N1159   1.432   .     S
C1103  N1126   1.379   .     A
C1104  N1162   1.431   .     S
C1104  N1125   1.363   .     A
C1104  C1339   1.426   .     S
C1105  N1165   1.431   .     S
C1105  N1126   1.388   .     A
C1106  N1125   1.378   .     A
C1106  N1168   1.432   .     S
C1106  C1337   1.412   .     S
C1107  C1112   1.446   .     S
C1107  O1131   1.299   .     A
C1107  O1134   1.298   .     A
C1108  O1132   1.299   .     A
C1108  C1111   1.445   .     S
C1108  O1133   1.298   .     A
C1109  C1119   1.416   .     A
C1109  N1135   1.438   .     S
C1109  C1111   1.398   .     A
C1110  C1112   1.398   .     A
C1110  N1138   1.438   .     S
C1110  C1120   1.416   .     A
C1111  C1113   1.386   .     A
C1112  C1114   1.386   .     A
C1113  F1141   1.359   .     S
C1113  C1115   1.406   .     A
C1114  F1142   1.359   .     S
C1114  C1116   1.406   .     A
C1115  C1121   1.417   .     A
C1115  C1117   1.425   .     A
C1116  C1118   1.425   .     A
C1116  C1122   1.417   .     A
C1117  C1119   1.429   .     A
C1117  C416    1.416   1_556 S
C1118  C1120   1.429   .     A
C1121  N1143   1.437   .     S
C1121  C393    1.398   1_556 S
C1122  N1146   1.437   .     S
Cu1123 N1125   2.038   .     S
Cu1123 O1129   1.969   .     S
Cu1123 Cu1124  2.712   .     S
Cu1123 O1133   1.958   .     S
Cu1123 O1131   1.962   .     S
Cu1123 O1127   1.972   .     S
Cu1124 O1128   1.972   .     S
Cu1124 O1130   1.969   .     S
Cu1124 O1132   1.962   .     S
Cu1124 O1134   1.958   .     S
Cu1124 N1126   2.038   .     S
N1135  H1136   1.046   .     S
N1135  H1137   1.045   .     S
N1138  H1140   1.045   .     S
N1138  H1139   1.045   .     S
N1143  H1144   1.045   .     S
N1143  H1145   1.045   .     S
N1146  H1147   1.045   .     S
N1146  H1148   1.045   .     S
N1149  H1151   1.046   .     S
N1149  H1150   1.046   .     S
N1152  H1154   1.046   .     S
N1152  H1153   1.046   .     S
N1159  H1160   1.037   .     S
N1159  H1161   1.043   .     S
N1162  H1163   1.045   .     S
N1162  H1164   1.046   .     S
N1165  H1166   1.043   .     S
N1165  H1167   1.037   .     S
N1168  H1169   1.044   .     S
N1168  H1170   1.037   .     S
C1171  O1208   1.301   .     A
C1171  O1205   1.303   .     A
C1171  C1180   1.456   .     S
C1172  O1206   1.303   .     A
C1172  O1207   1.301   .     A
C1172  C1179   1.456   .     S
C1173  C1198   1.417   .     A
C1173  N1227   1.437   .     S
C1174  N1230   1.437   .     S
C1174  C1197   1.417   .     A
C1174  C498    1.398   1_556 S
C1175  F1233   1.359   .     S
C1175  C1180   1.406   .     A
C1175  C1333   1.382   1_455 S
C1176  C1179   1.406   .     A
C1176  F1234   1.359   .     S
C1176  C1256   1.382   .     S
C1177  F1235   1.358   .     S
C1177  C1179   1.405   .     A
C1177  C1253   1.382   .     S
C1178  F1236   1.358   .     S
C1178  C1180   1.405   .     A
C1178  C1332   1.382   1_455 S
C1181  N1237   1.432   .     S
C1181  N1204   1.379   .     A
C1182  N1240   1.431   .     S
C1182  N1203   1.363   .     A
C1182  C715    1.426   1_565 S
C1183  N1243   1.431   .     S
C1183  N1204   1.388   .     A
C1184  N1203   1.378   .     A
C1184  N1246   1.432   .     S
C1184  C713    1.412   1_565 S
C1185  C1190   1.446   .     S
C1185  O1209   1.299   .     A
C1185  O1212   1.298   .     A
C1186  O1210   1.299   .     A
C1186  C1189   1.445   .     S
C1186  O1211   1.298   .     A
C1187  C1197   1.416   .     A
C1187  N1213   1.438   .     S
C1187  C1189   1.398   .     A
C1188  C1190   1.398   .     A
C1188  N1216   1.438   .     S
C1188  C1198   1.416   .     A
C1189  C1191   1.386   .     A
C1190  C1192   1.386   .     A
C1191  F1219   1.359   .     S
C1191  C1193   1.406   .     A
C1192  F1220   1.359   .     S
C1192  C1194   1.406   .     A
C1193  C1199   1.417   .     A
C1193  C1195   1.425   .     A
C1194  C1196   1.425   .     A
C1194  C1200   1.417   .     A
C1195  C1197   1.429   .     A
C1195  C494    1.416   1_556 S
C1196  C1198   1.429   .     A
C1199  N1221   1.437   .     S
C1199  C471    1.398   1_556 S
C1200  N1224   1.437   .     S
Cu1201 N1203   2.038   .     S
Cu1201 O1207   1.969   .     S
Cu1201 Cu1202  2.712   .     S
Cu1201 O1211   1.958   .     S
Cu1201 O1209   1.962   .     S
Cu1201 O1205   1.972   .     S
Cu1202 O1206   1.972   .     S
Cu1202 O1208   1.969   .     S
Cu1202 O1210   1.962   .     S
Cu1202 O1212   1.958   .     S
Cu1202 N1204   2.038   .     S
N1213  H1214   1.046   .     S
N1213  H1215   1.045   .     S
N1216  H1218   1.045   .     S
N1216  H1217   1.045   .     S
N1221  H1222   1.045   .     S
N1221  H1223   1.045   .     S
N1224  H1225   1.045   .     S
N1224  H1226   1.045   .     S
N1227  H1229   1.046   .     S
N1227  H1228   1.046   .     S
N1230  H1232   1.046   .     S
N1230  H1231   1.046   .     S
N1237  H1238   1.037   .     S
N1237  H1239   1.043   .     S
N1240  H1241   1.045   .     S
N1240  H1242   1.046   .     S
N1243  H1244   1.043   .     S
N1243  H1245   1.037   .     S
N1246  H1247   1.044   .     S
N1246  H1248   1.037   .     S
C1249  O1286   1.301   .     A
C1249  O1283   1.303   .     A
C1249  C1258   1.456   .     S
C1250  O1284   1.303   .     A
C1250  O1285   1.301   .     A
C1250  C1257   1.456   .     S
C1251  C1276   1.417   .     A
C1251  N1305   1.437   .     S
C1252  N1308   1.437   .     S
C1252  C1275   1.417   .     A
C1252  C576    1.398   1_556 S
C1253  F1311   1.359   .     S
C1253  C1258   1.406   .     A
C1254  C1257   1.406   .     A
C1254  F1312   1.359   .     S
C1254  C1334   1.382   .     S
C1255  F1313   1.358   .     S
C1255  C1257   1.405   .     A
C1255  C1331   1.382   .     S
C1256  F1314   1.358   .     S
C1256  C1258   1.405   .     A
C1259  N1315   1.432   .     S
C1259  N1282   1.379   .     A
C1260  N1318   1.431   .     S
C1260  N1281   1.363   .     A
C1260  C793    1.426   1_565 S
C1261  N1321   1.431   .     S
C1261  N1282   1.388   .     A
C1262  N1281   1.378   .     A
C1262  N1324   1.432   .     S
C1262  C791    1.412   1_565 S
C1263  C1268   1.446   .     S
C1263  O1287   1.299   .     A
C1263  O1290   1.298   .     A
C1264  O1288   1.299   .     A
C1264  C1267   1.445   .     S
C1264  O1289   1.298   .     A
C1265  C1275   1.416   .     A
C1265  N1291   1.438   .     S
C1265  C1267   1.398   .     A
C1266  C1268   1.398   .     A
C1266  N1294   1.438   .     S
C1266  C1276   1.416   .     A
C1267  C1269   1.386   .     A
C1268  C1270   1.386   .     A
C1269  F1297   1.359   .     S
C1269  C1271   1.406   .     A
C1270  F1298   1.359   .     S
C1270  C1272   1.406   .     A
C1271  C1277   1.417   .     A
C1271  C1273   1.425   .     A
C1272  C1274   1.425   .     A
C1272  C1278   1.417   .     A
C1273  C1275   1.429   .     A
C1273  C572    1.416   1_556 S
C1274  C1276   1.429   .     A
C1277  N1299   1.437   .     S
C1277  C549    1.398   1_556 S
C1278  N1302   1.437   .     S
Cu1279 N1281   2.038   .     S
Cu1279 O1285   1.969   .     S
Cu1279 Cu1280  2.712   .     S
Cu1279 O1289   1.958   .     S
Cu1279 O1287   1.962   .     S
Cu1279 O1283   1.972   .     S
Cu1280 O1284   1.972   .     S
Cu1280 O1286   1.969   .     S
Cu1280 O1288   1.962   .     S
Cu1280 O1290   1.958   .     S
Cu1280 N1282   2.038   .     S
N1291  H1292   1.046   .     S
N1291  H1293   1.045   .     S
N1294  H1296   1.045   .     S
N1294  H1295   1.045   .     S
N1299  H1300   1.045   .     S
N1299  H1301   1.045   .     S
N1302  H1303   1.045   .     S
N1302  H1304   1.045   .     S
N1305  H1307   1.046   .     S
N1305  H1306   1.046   .     S
N1308  H1310   1.046   .     S
N1308  H1309   1.046   .     S
N1315  H1316   1.037   .     S
N1315  H1317   1.043   .     S
N1318  H1319   1.045   .     S
N1318  H1320   1.046   .     S
N1321  H1322   1.043   .     S
N1321  H1323   1.037   .     S
N1324  H1325   1.044   .     S
N1324  H1326   1.037   .     S
C1327  O1364   1.301   .     A
C1327  O1361   1.303   .     A
C1327  C1336   1.456   .     S
C1328  O1362   1.303   .     A
C1328  O1363   1.301   .     A
C1328  C1335   1.456   .     S
C1329  C1354   1.417   .     A
C1329  N1383   1.437   .     S
C1330  N1386   1.437   .     S
C1330  C1353   1.417   .     A
C1330  C654    1.398   1_556 S
C1331  F1389   1.359   .     S
C1331  C1336   1.406   .     A
C1332  C1335   1.406   .     A
C1332  F1390   1.359   .     S
C1332  C1178   1.382   1_655 S
C1333  F1391   1.358   .     S
C1333  C1335   1.405   .     A
C1333  C1175   1.382   1_655 S
C1334  F1392   1.358   .     S
C1334  C1336   1.405   .     A
C1337  N1393   1.432   .     S
C1337  N1360   1.379   .     A
C1338  N1396   1.431   .     S
C1338  N1359   1.363   .     A
C1338  C871    1.426   1_565 S
C1339  N1399   1.431   .     S
C1339  N1360   1.388   .     A
C1340  N1359   1.378   .     A
C1340  N1402   1.432   .     S
C1340  C869    1.412   1_565 S
C1341  C1346   1.446   .     S
C1341  O1365   1.299   .     A
C1341  O1368   1.298   .     A
C1342  O1366   1.299   .     A
C1342  C1345   1.445   .     S
C1342  O1367   1.298   .     A
C1343  C1353   1.416   .     A
C1343  N1369   1.438   .     S
C1343  C1345   1.398   .     A
C1344  C1346   1.398   .     A
C1344  N1372   1.438   .     S
C1344  C1354   1.416   .     A
C1345  C1347   1.386   .     A
C1346  C1348   1.386   .     A
C1347  F1375   1.359   .     S
C1347  C1349   1.406   .     A
C1348  F1376   1.359   .     S
C1348  C1350   1.406   .     A
C1349  C1355   1.417   .     A
C1349  C1351   1.425   .     A
C1350  C1352   1.425   .     A
C1350  C1356   1.417   .     A
C1351  C1353   1.429   .     A
C1351  C650    1.416   1_556 S
C1352  C1354   1.429   .     A
C1355  N1377   1.437   .     S
C1355  C627    1.398   1_556 S
C1356  N1380   1.437   .     S
Cu1357 N1359   2.038   .     S
Cu1357 O1363   1.969   .     S
Cu1357 Cu1358  2.712   .     S
Cu1357 O1367   1.958   .     S
Cu1357 O1365   1.962   .     S
Cu1357 O1361   1.972   .     S
Cu1358 O1362   1.972   .     S
Cu1358 O1364   1.969   .     S
Cu1358 O1366   1.962   .     S
Cu1358 O1368   1.958   .     S
Cu1358 N1360   2.038   .     S
N1369  H1370   1.046   .     S
N1369  H1371   1.045   .     S
N1372  H1374   1.045   .     S
N1372  H1373   1.045   .     S
N1377  H1378   1.045   .     S
N1377  H1379   1.045   .     S
N1380  H1381   1.045   .     S
N1380  H1382   1.045   .     S
N1383  H1385   1.046   .     S
N1383  H1384   1.046   .     S
N1386  H1388   1.046   .     S
N1386  H1387   1.046   .     S
N1393  H1394   1.037   .     S
N1393  H1395   1.043   .     S
N1396  H1397   1.045   .     S
N1396  H1398   1.046   .     S
N1399  H1400   1.043   .     S
N1399  H1401   1.037   .     S
N1402  H1403   1.044   .     S
N1402  H1404   1.037   .     S
