data_str_m2_o2_o10_pcu_sym.141
_audit_creation_date              2020-01-03
_audit_creation_method            'Materials Studio'
_symmetry_space_group_name_H-M    'P1'
_symmetry_Int_Tables_number       1
_symmetry_cell_setting            triclinic
loop_
_symmetry_equiv_pos_as_xyz
  x,y,z
_cell_length_a                    26.2050
_cell_length_b                    30.2780
_cell_length_c                    27.7328
_cell_angle_alpha                 89.9988
_cell_angle_beta                  97.9332
_cell_angle_gamma                 90.1477
loop_
_atom_site_label
_atom_site_type_symbol
_atom_site_fract_x
_atom_site_fract_y
_atom_site_fract_z
_atom_site_U_iso_or_equiv
_atom_site_adp_type
_atom_site_occupancy
C1     C     0.16663   0.16494   0.24999   0.00000  Uiso   1.00
C2     C     0.16670   0.33506   0.25001   0.00000  Uiso   1.00
C3     C     0.20616   0.27085   0.05910   0.00000  Uiso   1.00
C4     C     0.14293   0.21582   0.44295   0.00000  Uiso   1.00
C5     C     0.20522   0.27075   0.10971   0.00000  Uiso   1.00
C6     C     0.14306   0.21662   0.39224   0.00000  Uiso   1.00
C7     C     0.12811   0.22926   0.09968   0.00000  Uiso   1.00
C8     C     0.19022   0.28338   0.39839   0.00000  Uiso   1.00
C9     C     0.12716   0.22914   0.04882   0.00000  Uiso   1.00
C10    C     0.19033   0.28418   0.44914   0.00000  Uiso   1.00
C11    C     0.16665   0.24999   0.02734   0.00000  Uiso   1.00
C12    C     0.16664   0.24999   0.47266   0.00000  Uiso   1.00
C13    C     0.06789   0.24999   0.23755   0.00000  Uiso   1.00
C14    C     0.26544   0.25002   0.26244   0.00000  Uiso   1.00
C15    C     0.01263   0.25001   0.23067   0.00000  Uiso   1.00
C16    C     0.32070   0.25000   0.26931   0.00000  Uiso   1.00
C17    C     0.18215   0.04765   0.29331   0.00000  Uiso   1.00
C18    C     0.18257   0.45244   0.21097   0.00000  Uiso   1.00
C19    C     0.18178   0.09355   0.29336   0.00000  Uiso   1.00
C20    C     0.18225   0.40653   0.21081   0.00000  Uiso   1.00
C21    C     0.16659   0.11671   0.25001   0.00000  Uiso   1.00
C22    C     0.16674   0.38329   0.25004   0.00000  Uiso   1.00
C23    C     0.15136   0.09346   0.20668   0.00000  Uiso   1.00
C24    C     0.15125   0.40643   0.28929   0.00000  Uiso   1.00
C25    C     0.15103   0.04756   0.20676   0.00000  Uiso   1.00
C26    C     0.15086   0.45234   0.28914   0.00000  Uiso   1.00
C27    C     0.16662   0.02427   0.25004   0.00000  Uiso   1.00
C28    C     0.16668   0.47572   0.25005   0.00000  Uiso   1.00
Cu29   Cu    0.16667   0.25000   0.29821   0.00000  Uiso   1.00
Cu30   Cu    0.16667   0.25001   0.20178   0.00000  Uiso   1.00
H31    H     0.32599   0.25005   0.19360   0.00000  Uiso   1.00
H32    H     0.00734   0.24997   0.30638   0.00000  Uiso   1.00
H33    H     0.19520   0.03048   0.32700   0.00000  Uiso   1.00
H34    H     0.19582   0.46969   0.18081   0.00000  Uiso   1.00
H35    H     0.19406   0.11090   0.32715   0.00000  Uiso   1.00
H36    H     0.19480   0.38925   0.18034   0.00000  Uiso   1.00
H37    H     0.13800   0.03030   0.17308   0.00000  Uiso   1.00
H38    H     0.13759   0.46951   0.31930   0.00000  Uiso   1.00
H39    H     0.23819   0.28675   0.04530   0.00000  Uiso   1.00
H40    H     0.12488   0.18812   0.45857   0.00000  Uiso   1.00
H41    H     0.23570   0.28727   0.13329   0.00000  Uiso   1.00
H42    H     0.12430   0.19024   0.37018   0.00000  Uiso   1.00
N43    N     0.16667   0.25001   0.12934   0.00000  Uiso   1.00
N44    N     0.16667   0.24999   0.37066   0.00000  Uiso   1.00
O45    O     0.16667   0.18573   0.29071   0.00000  Uiso   1.00
O46    O     0.16666   0.31427   0.20928   0.00000  Uiso   1.00
O47    O     0.16667   0.18573   0.20928   0.00000  Uiso   1.00
O48    O     0.16666   0.31427   0.29072   0.00000  Uiso   1.00
O49    O     0.09161   0.24999   0.28132   0.00000  Uiso   1.00
O50    O     0.24172   0.25001   0.21868   0.00000  Uiso   1.00
O51    O     0.09161   0.25000   0.19988   0.00000  Uiso   1.00
O52    O     0.24172   0.25000   0.30011   0.00000  Uiso   1.00
H53    H     0.13904   0.11074   0.17288   0.00000  Uiso   1.00
H54    H     0.13873   0.38908   0.31977   0.00000  Uiso   1.00
H55    H     0.09764   0.21277   0.11535   0.00000  Uiso   1.00
H56    H     0.20897   0.30978   0.38123   0.00000  Uiso   1.00
H57    H     0.09512   0.21323   0.02668   0.00000  Uiso   1.00
H58    H     0.20836   0.31189   0.46946   0.00000  Uiso   1.00
C59    C     0.49996   0.16494   0.24999   0.00000  Uiso   1.00
C60    C     0.50004   0.33506   0.25001   0.00000  Uiso   1.00
C61    C     0.53949   0.27085   0.05910   0.00000  Uiso   1.00
C62    C     0.47627   0.21582   0.44295   0.00000  Uiso   1.00
C63    C     0.53855   0.27075   0.10971   0.00000  Uiso   1.00
C64    C     0.47640   0.21662   0.39224   0.00000  Uiso   1.00
C65    C     0.46144   0.22926   0.09968   0.00000  Uiso   1.00
C66    C     0.52356   0.28338   0.39839   0.00000  Uiso   1.00
C67    C     0.46049   0.22914   0.04882   0.00000  Uiso   1.00
C68    C     0.52366   0.28418   0.44914   0.00000  Uiso   1.00
C69    C     0.49998   0.24999   0.02734   0.00000  Uiso   1.00
C70    C     0.49997   0.24999   0.47266   0.00000  Uiso   1.00
C71    C     0.40123   0.24999   0.23755   0.00000  Uiso   1.00
C72    C     0.59877   0.25002   0.26244   0.00000  Uiso   1.00
C73    C     0.34597   0.25001   0.23067   0.00000  Uiso   1.00
C74    C     0.65403   0.25000   0.26931   0.00000  Uiso   1.00
C75    C     0.51549   0.04765   0.29331   0.00000  Uiso   1.00
C76    C     0.51590   0.45244   0.21097   0.00000  Uiso   1.00
C77    C     0.51511   0.09355   0.29336   0.00000  Uiso   1.00
C78    C     0.51558   0.40653   0.21081   0.00000  Uiso   1.00
C79    C     0.49992   0.11671   0.25001   0.00000  Uiso   1.00
C80    C     0.50007   0.38329   0.25004   0.00000  Uiso   1.00
C81    C     0.48470   0.09346   0.20668   0.00000  Uiso   1.00
C82    C     0.48458   0.40643   0.28929   0.00000  Uiso   1.00
C83    C     0.48437   0.04756   0.20676   0.00000  Uiso   1.00
C84    C     0.48419   0.45234   0.28914   0.00000  Uiso   1.00
C85    C     0.49996   0.02427   0.25004   0.00000  Uiso   1.00
C86    C     0.50002   0.47572   0.25005   0.00000  Uiso   1.00
Cu87   Cu    0.50000   0.25000   0.29821   0.00000  Uiso   1.00
Cu88   Cu    0.50000   0.25001   0.20178   0.00000  Uiso   1.00
H89    H     0.65933   0.25005   0.19360   0.00000  Uiso   1.00
H90    H     0.34067   0.24997   0.30638   0.00000  Uiso   1.00
H91    H     0.52853   0.03048   0.32700   0.00000  Uiso   1.00
H92    H     0.52916   0.46969   0.18081   0.00000  Uiso   1.00
H93    H     0.52740   0.11090   0.32715   0.00000  Uiso   1.00
H94    H     0.52814   0.38925   0.18034   0.00000  Uiso   1.00
H95    H     0.47134   0.03030   0.17308   0.00000  Uiso   1.00
H96    H     0.47092   0.46951   0.31930   0.00000  Uiso   1.00
H97    H     0.57152   0.28675   0.04530   0.00000  Uiso   1.00
H98    H     0.45821   0.18812   0.45857   0.00000  Uiso   1.00
H99    H     0.56903   0.28727   0.13329   0.00000  Uiso   1.00
H100   H     0.45763   0.19024   0.37018   0.00000  Uiso   1.00
N101   N     0.50000   0.25001   0.12934   0.00000  Uiso   1.00
N102   N     0.50000   0.24999   0.37066   0.00000  Uiso   1.00
O103   O     0.50000   0.18573   0.29071   0.00000  Uiso   1.00
O104   O     0.50000   0.31427   0.20928   0.00000  Uiso   1.00
O105   O     0.50000   0.18573   0.20928   0.00000  Uiso   1.00
O106   O     0.50000   0.31427   0.29072   0.00000  Uiso   1.00
O107   O     0.42495   0.24999   0.28132   0.00000  Uiso   1.00
O108   O     0.57505   0.25001   0.21868   0.00000  Uiso   1.00
O109   O     0.42495   0.25000   0.19988   0.00000  Uiso   1.00
O110   O     0.57505   0.25000   0.30011   0.00000  Uiso   1.00
H111   H     0.47238   0.11074   0.17288   0.00000  Uiso   1.00
H112   H     0.47207   0.38908   0.31977   0.00000  Uiso   1.00
H113   H     0.43097   0.21277   0.11535   0.00000  Uiso   1.00
H114   H     0.54230   0.30978   0.38123   0.00000  Uiso   1.00
H115   H     0.42846   0.21323   0.02668   0.00000  Uiso   1.00
H116   H     0.54170   0.31189   0.46946   0.00000  Uiso   1.00
C117   C     0.83329   0.16494   0.24999   0.00000  Uiso   1.00
C118   C     0.83337   0.33506   0.25001   0.00000  Uiso   1.00
C119   C     0.87283   0.27085   0.05910   0.00000  Uiso   1.00
C120   C     0.80960   0.21582   0.44295   0.00000  Uiso   1.00
C121   C     0.87189   0.27075   0.10971   0.00000  Uiso   1.00
C122   C     0.80973   0.21662   0.39224   0.00000  Uiso   1.00
C123   C     0.79477   0.22926   0.09968   0.00000  Uiso   1.00
C124   C     0.85689   0.28338   0.39839   0.00000  Uiso   1.00
C125   C     0.79382   0.22914   0.04882   0.00000  Uiso   1.00
C126   C     0.85699   0.28418   0.44914   0.00000  Uiso   1.00
C127   C     0.83332   0.24999   0.02734   0.00000  Uiso   1.00
C128   C     0.83330   0.24999   0.47266   0.00000  Uiso   1.00
C129   C     0.73456   0.24999   0.23755   0.00000  Uiso   1.00
C130   C     0.93210   0.25002   0.26244   0.00000  Uiso   1.00
C131   C     0.67930   0.25001   0.23067   0.00000  Uiso   1.00
C132   C     0.98737   0.25000   0.26931   0.00000  Uiso   1.00
C133   C     0.84882   0.04765   0.29331   0.00000  Uiso   1.00
C134   C     0.84923   0.45244   0.21097   0.00000  Uiso   1.00
C135   C     0.84845   0.09355   0.29336   0.00000  Uiso   1.00
C136   C     0.84891   0.40653   0.21081   0.00000  Uiso   1.00
C137   C     0.83326   0.11671   0.25001   0.00000  Uiso   1.00
C138   C     0.83340   0.38329   0.25004   0.00000  Uiso   1.00
C139   C     0.81803   0.09346   0.20668   0.00000  Uiso   1.00
C140   C     0.81791   0.40643   0.28929   0.00000  Uiso   1.00
C141   C     0.81770   0.04756   0.20676   0.00000  Uiso   1.00
C142   C     0.81753   0.45234   0.28914   0.00000  Uiso   1.00
C143   C     0.83329   0.02427   0.25004   0.00000  Uiso   1.00
C144   C     0.83335   0.47572   0.25005   0.00000  Uiso   1.00
Cu145  Cu    0.83333   0.25000   0.29821   0.00000  Uiso   1.00
Cu146  Cu    0.83333   0.25001   0.20178   0.00000  Uiso   1.00
H147   H     0.99266   0.25005   0.19360   0.00000  Uiso   1.00
H148   H     0.67401   0.24997   0.30638   0.00000  Uiso   1.00
H149   H     0.86186   0.03048   0.32700   0.00000  Uiso   1.00
H150   H     0.86249   0.46969   0.18081   0.00000  Uiso   1.00
H151   H     0.86073   0.11090   0.32715   0.00000  Uiso   1.00
H152   H     0.86147   0.38925   0.18034   0.00000  Uiso   1.00
H153   H     0.80467   0.03030   0.17308   0.00000  Uiso   1.00
H154   H     0.80425   0.46951   0.31930   0.00000  Uiso   1.00
H155   H     0.90485   0.28675   0.04530   0.00000  Uiso   1.00
H156   H     0.79154   0.18812   0.45857   0.00000  Uiso   1.00
H157   H     0.90237   0.28727   0.13329   0.00000  Uiso   1.00
H158   H     0.79096   0.19024   0.37018   0.00000  Uiso   1.00
N159   N     0.83333   0.25001   0.12934   0.00000  Uiso   1.00
N160   N     0.83333   0.24999   0.37066   0.00000  Uiso   1.00
O161   O     0.83334   0.18573   0.29071   0.00000  Uiso   1.00
O162   O     0.83333   0.31427   0.20928   0.00000  Uiso   1.00
O163   O     0.83334   0.18573   0.20928   0.00000  Uiso   1.00
O164   O     0.83333   0.31427   0.29072   0.00000  Uiso   1.00
O165   O     0.75828   0.24999   0.28132   0.00000  Uiso   1.00
O166   O     0.90839   0.25001   0.21868   0.00000  Uiso   1.00
O167   O     0.75828   0.25000   0.19988   0.00000  Uiso   1.00
O168   O     0.90839   0.25000   0.30011   0.00000  Uiso   1.00
H169   H     0.80571   0.11074   0.17288   0.00000  Uiso   1.00
H170   H     0.80540   0.38908   0.31977   0.00000  Uiso   1.00
H171   H     0.76430   0.21277   0.11535   0.00000  Uiso   1.00
H172   H     0.87564   0.30978   0.38123   0.00000  Uiso   1.00
H173   H     0.76179   0.21323   0.02668   0.00000  Uiso   1.00
H174   H     0.87503   0.31189   0.46946   0.00000  Uiso   1.00
C175   C     0.16663   0.66494   0.24999   0.00000  Uiso   1.00
C176   C     0.16670   0.83506   0.25001   0.00000  Uiso   1.00
C177   C     0.20616   0.77085   0.05910   0.00000  Uiso   1.00
C178   C     0.14293   0.71582   0.44295   0.00000  Uiso   1.00
C179   C     0.20522   0.77075   0.10971   0.00000  Uiso   1.00
C180   C     0.14306   0.71662   0.39224   0.00000  Uiso   1.00
C181   C     0.12811   0.72926   0.09968   0.00000  Uiso   1.00
C182   C     0.19022   0.78338   0.39839   0.00000  Uiso   1.00
C183   C     0.12716   0.72914   0.04882   0.00000  Uiso   1.00
C184   C     0.19033   0.78418   0.44914   0.00000  Uiso   1.00
C185   C     0.16665   0.74999   0.02734   0.00000  Uiso   1.00
C186   C     0.16664   0.74999   0.47266   0.00000  Uiso   1.00
C187   C     0.06789   0.74999   0.23755   0.00000  Uiso   1.00
C188   C     0.26544   0.75002   0.26244   0.00000  Uiso   1.00
C189   C     0.01263   0.75001   0.23067   0.00000  Uiso   1.00
C190   C     0.32070   0.75000   0.26931   0.00000  Uiso   1.00
C191   C     0.18215   0.54765   0.29331   0.00000  Uiso   1.00
C192   C     0.18257   0.95244   0.21097   0.00000  Uiso   1.00
C193   C     0.18178   0.59355   0.29336   0.00000  Uiso   1.00
C194   C     0.18225   0.90653   0.21081   0.00000  Uiso   1.00
C195   C     0.16659   0.61671   0.25001   0.00000  Uiso   1.00
C196   C     0.16674   0.88329   0.25004   0.00000  Uiso   1.00
C197   C     0.15136   0.59346   0.20668   0.00000  Uiso   1.00
C198   C     0.15125   0.90643   0.28929   0.00000  Uiso   1.00
C199   C     0.15103   0.54756   0.20676   0.00000  Uiso   1.00
C200   C     0.15086   0.95234   0.28914   0.00000  Uiso   1.00
C201   C     0.16662   0.52427   0.25004   0.00000  Uiso   1.00
C202   C     0.16668   0.97572   0.25005   0.00000  Uiso   1.00
Cu203  Cu    0.16667   0.75000   0.29821   0.00000  Uiso   1.00
Cu204  Cu    0.16667   0.75001   0.20178   0.00000  Uiso   1.00
H205   H     0.32599   0.75005   0.19360   0.00000  Uiso   1.00
H206   H     0.00734   0.74997   0.30638   0.00000  Uiso   1.00
H207   H     0.19520   0.53048   0.32700   0.00000  Uiso   1.00
H208   H     0.19582   0.96969   0.18081   0.00000  Uiso   1.00
H209   H     0.19406   0.61090   0.32715   0.00000  Uiso   1.00
H210   H     0.19480   0.88925   0.18034   0.00000  Uiso   1.00
H211   H     0.13800   0.53030   0.17308   0.00000  Uiso   1.00
H212   H     0.13759   0.96951   0.31930   0.00000  Uiso   1.00
H213   H     0.23819   0.78675   0.04530   0.00000  Uiso   1.00
H214   H     0.12488   0.68812   0.45857   0.00000  Uiso   1.00
H215   H     0.23570   0.78727   0.13329   0.00000  Uiso   1.00
H216   H     0.12430   0.69024   0.37018   0.00000  Uiso   1.00
N217   N     0.16667   0.75001   0.12934   0.00000  Uiso   1.00
N218   N     0.16667   0.74999   0.37066   0.00000  Uiso   1.00
O219   O     0.16667   0.68573   0.29071   0.00000  Uiso   1.00
O220   O     0.16666   0.81427   0.20928   0.00000  Uiso   1.00
O221   O     0.16667   0.68573   0.20928   0.00000  Uiso   1.00
O222   O     0.16666   0.81427   0.29072   0.00000  Uiso   1.00
O223   O     0.09161   0.74999   0.28132   0.00000  Uiso   1.00
O224   O     0.24172   0.75001   0.21868   0.00000  Uiso   1.00
O225   O     0.09161   0.75000   0.19988   0.00000  Uiso   1.00
O226   O     0.24172   0.75000   0.30011   0.00000  Uiso   1.00
H227   H     0.13904   0.61074   0.17288   0.00000  Uiso   1.00
H228   H     0.13873   0.88908   0.31977   0.00000  Uiso   1.00
H229   H     0.09764   0.71277   0.11535   0.00000  Uiso   1.00
H230   H     0.20897   0.80978   0.38123   0.00000  Uiso   1.00
H231   H     0.09512   0.71323   0.02668   0.00000  Uiso   1.00
H232   H     0.20836   0.81189   0.46946   0.00000  Uiso   1.00
C233   C     0.49996   0.66494   0.24999   0.00000  Uiso   1.00
C234   C     0.50004   0.83506   0.25001   0.00000  Uiso   1.00
C235   C     0.53949   0.77085   0.05910   0.00000  Uiso   1.00
C236   C     0.47627   0.71582   0.44295   0.00000  Uiso   1.00
C237   C     0.53855   0.77075   0.10971   0.00000  Uiso   1.00
C238   C     0.47640   0.71662   0.39224   0.00000  Uiso   1.00
C239   C     0.46144   0.72926   0.09968   0.00000  Uiso   1.00
C240   C     0.52356   0.78338   0.39839   0.00000  Uiso   1.00
C241   C     0.46049   0.72914   0.04882   0.00000  Uiso   1.00
C242   C     0.52366   0.78418   0.44914   0.00000  Uiso   1.00
C243   C     0.49998   0.74999   0.02734   0.00000  Uiso   1.00
C244   C     0.49997   0.74999   0.47266   0.00000  Uiso   1.00
C245   C     0.40123   0.74999   0.23755   0.00000  Uiso   1.00
C246   C     0.59877   0.75002   0.26244   0.00000  Uiso   1.00
C247   C     0.34597   0.75001   0.23067   0.00000  Uiso   1.00
C248   C     0.65403   0.75000   0.26931   0.00000  Uiso   1.00
C249   C     0.51549   0.54765   0.29331   0.00000  Uiso   1.00
C250   C     0.51590   0.95244   0.21097   0.00000  Uiso   1.00
C251   C     0.51511   0.59355   0.29336   0.00000  Uiso   1.00
C252   C     0.51558   0.90653   0.21081   0.00000  Uiso   1.00
C253   C     0.49992   0.61671   0.25001   0.00000  Uiso   1.00
C254   C     0.50007   0.88329   0.25004   0.00000  Uiso   1.00
C255   C     0.48470   0.59346   0.20668   0.00000  Uiso   1.00
C256   C     0.48458   0.90643   0.28929   0.00000  Uiso   1.00
C257   C     0.48437   0.54756   0.20676   0.00000  Uiso   1.00
C258   C     0.48419   0.95234   0.28914   0.00000  Uiso   1.00
C259   C     0.49996   0.52427   0.25004   0.00000  Uiso   1.00
C260   C     0.50002   0.97572   0.25005   0.00000  Uiso   1.00
Cu261  Cu    0.50000   0.75000   0.29821   0.00000  Uiso   1.00
Cu262  Cu    0.50000   0.75001   0.20178   0.00000  Uiso   1.00
H263   H     0.65933   0.75005   0.19360   0.00000  Uiso   1.00
H264   H     0.34067   0.74997   0.30638   0.00000  Uiso   1.00
H265   H     0.52853   0.53048   0.32700   0.00000  Uiso   1.00
H266   H     0.52916   0.96969   0.18081   0.00000  Uiso   1.00
H267   H     0.52740   0.61090   0.32715   0.00000  Uiso   1.00
H268   H     0.52814   0.88925   0.18034   0.00000  Uiso   1.00
H269   H     0.47134   0.53030   0.17308   0.00000  Uiso   1.00
H270   H     0.47092   0.96951   0.31930   0.00000  Uiso   1.00
H271   H     0.57152   0.78675   0.04530   0.00000  Uiso   1.00
H272   H     0.45821   0.68812   0.45857   0.00000  Uiso   1.00
H273   H     0.56903   0.78727   0.13329   0.00000  Uiso   1.00
H274   H     0.45763   0.69024   0.37018   0.00000  Uiso   1.00
N275   N     0.50000   0.75001   0.12934   0.00000  Uiso   1.00
N276   N     0.50000   0.74999   0.37066   0.00000  Uiso   1.00
O277   O     0.50000   0.68573   0.29071   0.00000  Uiso   1.00
O278   O     0.50000   0.81427   0.20928   0.00000  Uiso   1.00
O279   O     0.50000   0.68573   0.20928   0.00000  Uiso   1.00
O280   O     0.50000   0.81427   0.29072   0.00000  Uiso   1.00
O281   O     0.42495   0.74999   0.28132   0.00000  Uiso   1.00
O282   O     0.57505   0.75001   0.21868   0.00000  Uiso   1.00
O283   O     0.42495   0.75000   0.19988   0.00000  Uiso   1.00
O284   O     0.57505   0.75000   0.30011   0.00000  Uiso   1.00
H285   H     0.47238   0.61074   0.17288   0.00000  Uiso   1.00
H286   H     0.47207   0.88908   0.31977   0.00000  Uiso   1.00
H287   H     0.43097   0.71277   0.11535   0.00000  Uiso   1.00
H288   H     0.54230   0.80978   0.38123   0.00000  Uiso   1.00
H289   H     0.42846   0.71323   0.02668   0.00000  Uiso   1.00
H290   H     0.54170   0.81189   0.46946   0.00000  Uiso   1.00
C291   C     0.83329   0.66494   0.24999   0.00000  Uiso   1.00
C292   C     0.83337   0.83506   0.25001   0.00000  Uiso   1.00
C293   C     0.87283   0.77085   0.05910   0.00000  Uiso   1.00
C294   C     0.80960   0.71582   0.44295   0.00000  Uiso   1.00
C295   C     0.87189   0.77075   0.10971   0.00000  Uiso   1.00
C296   C     0.80973   0.71662   0.39224   0.00000  Uiso   1.00
C297   C     0.79477   0.72926   0.09968   0.00000  Uiso   1.00
C298   C     0.85689   0.78338   0.39839   0.00000  Uiso   1.00
C299   C     0.79382   0.72914   0.04882   0.00000  Uiso   1.00
C300   C     0.85699   0.78418   0.44914   0.00000  Uiso   1.00
C301   C     0.83332   0.74999   0.02734   0.00000  Uiso   1.00
C302   C     0.83330   0.74999   0.47266   0.00000  Uiso   1.00
C303   C     0.73456   0.74999   0.23755   0.00000  Uiso   1.00
C304   C     0.93210   0.75002   0.26244   0.00000  Uiso   1.00
C305   C     0.67930   0.75001   0.23067   0.00000  Uiso   1.00
C306   C     0.98737   0.75000   0.26931   0.00000  Uiso   1.00
C307   C     0.84882   0.54765   0.29331   0.00000  Uiso   1.00
C308   C     0.84923   0.95244   0.21097   0.00000  Uiso   1.00
C309   C     0.84845   0.59355   0.29336   0.00000  Uiso   1.00
C310   C     0.84891   0.90653   0.21081   0.00000  Uiso   1.00
C311   C     0.83326   0.61671   0.25001   0.00000  Uiso   1.00
C312   C     0.83340   0.88329   0.25004   0.00000  Uiso   1.00
C313   C     0.81803   0.59346   0.20668   0.00000  Uiso   1.00
C314   C     0.81791   0.90643   0.28929   0.00000  Uiso   1.00
C315   C     0.81770   0.54756   0.20676   0.00000  Uiso   1.00
C316   C     0.81753   0.95234   0.28914   0.00000  Uiso   1.00
C317   C     0.83329   0.52427   0.25004   0.00000  Uiso   1.00
C318   C     0.83335   0.97572   0.25005   0.00000  Uiso   1.00
Cu319  Cu    0.83333   0.75000   0.29821   0.00000  Uiso   1.00
Cu320  Cu    0.83333   0.75001   0.20178   0.00000  Uiso   1.00
H321   H     0.99266   0.75005   0.19360   0.00000  Uiso   1.00
H322   H     0.67401   0.74997   0.30638   0.00000  Uiso   1.00
H323   H     0.86186   0.53048   0.32700   0.00000  Uiso   1.00
H324   H     0.86249   0.96969   0.18081   0.00000  Uiso   1.00
H325   H     0.86073   0.61090   0.32715   0.00000  Uiso   1.00
H326   H     0.86147   0.88925   0.18034   0.00000  Uiso   1.00
H327   H     0.80467   0.53030   0.17308   0.00000  Uiso   1.00
H328   H     0.80425   0.96951   0.31930   0.00000  Uiso   1.00
H329   H     0.90485   0.78675   0.04530   0.00000  Uiso   1.00
H330   H     0.79154   0.68812   0.45857   0.00000  Uiso   1.00
H331   H     0.90237   0.78727   0.13329   0.00000  Uiso   1.00
H332   H     0.79096   0.69024   0.37018   0.00000  Uiso   1.00
N333   N     0.83333   0.75001   0.12934   0.00000  Uiso   1.00
N334   N     0.83333   0.74999   0.37066   0.00000  Uiso   1.00
O335   O     0.83334   0.68573   0.29071   0.00000  Uiso   1.00
O336   O     0.83333   0.81427   0.20928   0.00000  Uiso   1.00
O337   O     0.83334   0.68573   0.20928   0.00000  Uiso   1.00
O338   O     0.83333   0.81427   0.29072   0.00000  Uiso   1.00
O339   O     0.75828   0.74999   0.28132   0.00000  Uiso   1.00
O340   O     0.90839   0.75001   0.21868   0.00000  Uiso   1.00
O341   O     0.75828   0.75000   0.19988   0.00000  Uiso   1.00
O342   O     0.90839   0.75000   0.30011   0.00000  Uiso   1.00
H343   H     0.80571   0.61074   0.17288   0.00000  Uiso   1.00
H344   H     0.80540   0.88908   0.31977   0.00000  Uiso   1.00
H345   H     0.76430   0.71277   0.11535   0.00000  Uiso   1.00
H346   H     0.87564   0.80978   0.38123   0.00000  Uiso   1.00
H347   H     0.76179   0.71323   0.02668   0.00000  Uiso   1.00
H348   H     0.87503   0.81189   0.46946   0.00000  Uiso   1.00
C349   C     0.16663   0.16494   0.74999   0.00000  Uiso   1.00
C350   C     0.16670   0.33506   0.75001   0.00000  Uiso   1.00
C351   C     0.20616   0.27085   0.55910   0.00000  Uiso   1.00
C352   C     0.14293   0.21582   0.94295   0.00000  Uiso   1.00
C353   C     0.20522   0.27075   0.60971   0.00000  Uiso   1.00
C354   C     0.14306   0.21662   0.89224   0.00000  Uiso   1.00
C355   C     0.12811   0.22926   0.59968   0.00000  Uiso   1.00
C356   C     0.19022   0.28338   0.89839   0.00000  Uiso   1.00
C357   C     0.12716   0.22914   0.54882   0.00000  Uiso   1.00
C358   C     0.19033   0.28418   0.94914   0.00000  Uiso   1.00
C359   C     0.16665   0.24999   0.52734   0.00000  Uiso   1.00
C360   C     0.16664   0.24999   0.97266   0.00000  Uiso   1.00
C361   C     0.06789   0.24999   0.73755   0.00000  Uiso   1.00
C362   C     0.26544   0.25002   0.76244   0.00000  Uiso   1.00
C363   C     0.01263   0.25001   0.73067   0.00000  Uiso   1.00
C364   C     0.32070   0.25000   0.76931   0.00000  Uiso   1.00
C365   C     0.18215   0.04765   0.79331   0.00000  Uiso   1.00
C366   C     0.18257   0.45244   0.71097   0.00000  Uiso   1.00
C367   C     0.18178   0.09355   0.79336   0.00000  Uiso   1.00
C368   C     0.18225   0.40653   0.71081   0.00000  Uiso   1.00
C369   C     0.16659   0.11671   0.75001   0.00000  Uiso   1.00
C370   C     0.16674   0.38329   0.75004   0.00000  Uiso   1.00
C371   C     0.15136   0.09346   0.70668   0.00000  Uiso   1.00
C372   C     0.15125   0.40643   0.78929   0.00000  Uiso   1.00
C373   C     0.15103   0.04756   0.70676   0.00000  Uiso   1.00
C374   C     0.15086   0.45234   0.78914   0.00000  Uiso   1.00
C375   C     0.16662   0.02427   0.75004   0.00000  Uiso   1.00
C376   C     0.16668   0.47572   0.75005   0.00000  Uiso   1.00
Cu377  Cu    0.16667   0.25000   0.79821   0.00000  Uiso   1.00
Cu378  Cu    0.16667   0.25001   0.70178   0.00000  Uiso   1.00
H379   H     0.32599   0.25005   0.69360   0.00000  Uiso   1.00
H380   H     0.00734   0.24997   0.80638   0.00000  Uiso   1.00
H381   H     0.19520   0.03048   0.82700   0.00000  Uiso   1.00
H382   H     0.19582   0.46969   0.68081   0.00000  Uiso   1.00
H383   H     0.19406   0.11090   0.82715   0.00000  Uiso   1.00
H384   H     0.19480   0.38925   0.68034   0.00000  Uiso   1.00
H385   H     0.13800   0.03030   0.67308   0.00000  Uiso   1.00
H386   H     0.13759   0.46951   0.81930   0.00000  Uiso   1.00
H387   H     0.23819   0.28675   0.54530   0.00000  Uiso   1.00
H388   H     0.12488   0.18812   0.95857   0.00000  Uiso   1.00
H389   H     0.23570   0.28727   0.63329   0.00000  Uiso   1.00
H390   H     0.12430   0.19024   0.87018   0.00000  Uiso   1.00
N391   N     0.16667   0.25001   0.62934   0.00000  Uiso   1.00
N392   N     0.16667   0.24999   0.87066   0.00000  Uiso   1.00
O393   O     0.16667   0.18573   0.79071   0.00000  Uiso   1.00
O394   O     0.16666   0.31427   0.70928   0.00000  Uiso   1.00
O395   O     0.16667   0.18573   0.70928   0.00000  Uiso   1.00
O396   O     0.16666   0.31427   0.79072   0.00000  Uiso   1.00
O397   O     0.09161   0.24999   0.78132   0.00000  Uiso   1.00
O398   O     0.24172   0.25001   0.71868   0.00000  Uiso   1.00
O399   O     0.09161   0.25000   0.69988   0.00000  Uiso   1.00
O400   O     0.24172   0.25000   0.80011   0.00000  Uiso   1.00
H401   H     0.13904   0.11074   0.67288   0.00000  Uiso   1.00
H402   H     0.13873   0.38908   0.81977   0.00000  Uiso   1.00
H403   H     0.09764   0.21277   0.61535   0.00000  Uiso   1.00
H404   H     0.20897   0.30978   0.88123   0.00000  Uiso   1.00
H405   H     0.09512   0.21323   0.52668   0.00000  Uiso   1.00
H406   H     0.20836   0.31189   0.96946   0.00000  Uiso   1.00
C407   C     0.49996   0.16494   0.74999   0.00000  Uiso   1.00
C408   C     0.50004   0.33506   0.75001   0.00000  Uiso   1.00
C409   C     0.53949   0.27085   0.55910   0.00000  Uiso   1.00
C410   C     0.47627   0.21582   0.94295   0.00000  Uiso   1.00
C411   C     0.53855   0.27075   0.60971   0.00000  Uiso   1.00
C412   C     0.47640   0.21662   0.89224   0.00000  Uiso   1.00
C413   C     0.46144   0.22926   0.59968   0.00000  Uiso   1.00
C414   C     0.52356   0.28338   0.89839   0.00000  Uiso   1.00
C415   C     0.46049   0.22914   0.54882   0.00000  Uiso   1.00
C416   C     0.52366   0.28418   0.94914   0.00000  Uiso   1.00
C417   C     0.49998   0.24999   0.52734   0.00000  Uiso   1.00
C418   C     0.49997   0.24999   0.97266   0.00000  Uiso   1.00
C419   C     0.40123   0.24999   0.73755   0.00000  Uiso   1.00
C420   C     0.59877   0.25002   0.76244   0.00000  Uiso   1.00
C421   C     0.34597   0.25001   0.73067   0.00000  Uiso   1.00
C422   C     0.65403   0.25000   0.76931   0.00000  Uiso   1.00
C423   C     0.51549   0.04765   0.79331   0.00000  Uiso   1.00
C424   C     0.51590   0.45244   0.71097   0.00000  Uiso   1.00
C425   C     0.51511   0.09355   0.79336   0.00000  Uiso   1.00
C426   C     0.51558   0.40653   0.71081   0.00000  Uiso   1.00
C427   C     0.49992   0.11671   0.75001   0.00000  Uiso   1.00
C428   C     0.50007   0.38329   0.75004   0.00000  Uiso   1.00
C429   C     0.48470   0.09346   0.70668   0.00000  Uiso   1.00
C430   C     0.48458   0.40643   0.78929   0.00000  Uiso   1.00
C431   C     0.48437   0.04756   0.70676   0.00000  Uiso   1.00
C432   C     0.48419   0.45234   0.78914   0.00000  Uiso   1.00
C433   C     0.49996   0.02427   0.75004   0.00000  Uiso   1.00
C434   C     0.50002   0.47572   0.75005   0.00000  Uiso   1.00
Cu435  Cu    0.50000   0.25000   0.79821   0.00000  Uiso   1.00
Cu436  Cu    0.50000   0.25001   0.70178   0.00000  Uiso   1.00
H437   H     0.65933   0.25005   0.69360   0.00000  Uiso   1.00
H438   H     0.34067   0.24997   0.80638   0.00000  Uiso   1.00
H439   H     0.52853   0.03048   0.82700   0.00000  Uiso   1.00
H440   H     0.52916   0.46969   0.68081   0.00000  Uiso   1.00
H441   H     0.52740   0.11090   0.82715   0.00000  Uiso   1.00
H442   H     0.52814   0.38925   0.68034   0.00000  Uiso   1.00
H443   H     0.47134   0.03030   0.67308   0.00000  Uiso   1.00
H444   H     0.47092   0.46951   0.81930   0.00000  Uiso   1.00
H445   H     0.57152   0.28675   0.54530   0.00000  Uiso   1.00
H446   H     0.45821   0.18812   0.95857   0.00000  Uiso   1.00
H447   H     0.56903   0.28727   0.63329   0.00000  Uiso   1.00
H448   H     0.45763   0.19024   0.87018   0.00000  Uiso   1.00
N449   N     0.50000   0.25001   0.62934   0.00000  Uiso   1.00
N450   N     0.50000   0.24999   0.87066   0.00000  Uiso   1.00
O451   O     0.50000   0.18573   0.79071   0.00000  Uiso   1.00
O452   O     0.50000   0.31427   0.70928   0.00000  Uiso   1.00
O453   O     0.50000   0.18573   0.70928   0.00000  Uiso   1.00
O454   O     0.50000   0.31427   0.79072   0.00000  Uiso   1.00
O455   O     0.42495   0.24999   0.78132   0.00000  Uiso   1.00
O456   O     0.57505   0.25001   0.71868   0.00000  Uiso   1.00
O457   O     0.42495   0.25000   0.69988   0.00000  Uiso   1.00
O458   O     0.57505   0.25000   0.80011   0.00000  Uiso   1.00
H459   H     0.47238   0.11074   0.67288   0.00000  Uiso   1.00
H460   H     0.47207   0.38908   0.81977   0.00000  Uiso   1.00
H461   H     0.43097   0.21277   0.61535   0.00000  Uiso   1.00
H462   H     0.54230   0.30978   0.88123   0.00000  Uiso   1.00
H463   H     0.42846   0.21323   0.52668   0.00000  Uiso   1.00
H464   H     0.54170   0.31189   0.96946   0.00000  Uiso   1.00
C465   C     0.83329   0.16494   0.74999   0.00000  Uiso   1.00
C466   C     0.83337   0.33506   0.75001   0.00000  Uiso   1.00
C467   C     0.87283   0.27085   0.55910   0.00000  Uiso   1.00
C468   C     0.80960   0.21582   0.94295   0.00000  Uiso   1.00
C469   C     0.87189   0.27075   0.60971   0.00000  Uiso   1.00
C470   C     0.80973   0.21662   0.89224   0.00000  Uiso   1.00
C471   C     0.79477   0.22926   0.59968   0.00000  Uiso   1.00
C472   C     0.85689   0.28338   0.89839   0.00000  Uiso   1.00
C473   C     0.79382   0.22914   0.54882   0.00000  Uiso   1.00
C474   C     0.85699   0.28418   0.94914   0.00000  Uiso   1.00
C475   C     0.83332   0.24999   0.52734   0.00000  Uiso   1.00
C476   C     0.83330   0.24999   0.97266   0.00000  Uiso   1.00
C477   C     0.73456   0.24999   0.73755   0.00000  Uiso   1.00
C478   C     0.93210   0.25002   0.76244   0.00000  Uiso   1.00
C479   C     0.67930   0.25001   0.73067   0.00000  Uiso   1.00
C480   C     0.98737   0.25000   0.76931   0.00000  Uiso   1.00
C481   C     0.84882   0.04765   0.79331   0.00000  Uiso   1.00
C482   C     0.84923   0.45244   0.71097   0.00000  Uiso   1.00
C483   C     0.84845   0.09355   0.79336   0.00000  Uiso   1.00
C484   C     0.84891   0.40653   0.71081   0.00000  Uiso   1.00
C485   C     0.83326   0.11671   0.75001   0.00000  Uiso   1.00
C486   C     0.83340   0.38329   0.75004   0.00000  Uiso   1.00
C487   C     0.81803   0.09346   0.70668   0.00000  Uiso   1.00
C488   C     0.81791   0.40643   0.78929   0.00000  Uiso   1.00
C489   C     0.81770   0.04756   0.70676   0.00000  Uiso   1.00
C490   C     0.81753   0.45234   0.78914   0.00000  Uiso   1.00
C491   C     0.83329   0.02427   0.75004   0.00000  Uiso   1.00
C492   C     0.83335   0.47572   0.75005   0.00000  Uiso   1.00
Cu493  Cu    0.83333   0.25000   0.79821   0.00000  Uiso   1.00
Cu494  Cu    0.83333   0.25001   0.70178   0.00000  Uiso   1.00
H495   H     0.99266   0.25005   0.69360   0.00000  Uiso   1.00
H496   H     0.67401   0.24997   0.80638   0.00000  Uiso   1.00
H497   H     0.86186   0.03048   0.82700   0.00000  Uiso   1.00
H498   H     0.86249   0.46969   0.68081   0.00000  Uiso   1.00
H499   H     0.86073   0.11090   0.82715   0.00000  Uiso   1.00
H500   H     0.86147   0.38925   0.68034   0.00000  Uiso   1.00
H501   H     0.80467   0.03030   0.67308   0.00000  Uiso   1.00
H502   H     0.80425   0.46951   0.81930   0.00000  Uiso   1.00
H503   H     0.90485   0.28675   0.54530   0.00000  Uiso   1.00
H504   H     0.79154   0.18812   0.95857   0.00000  Uiso   1.00
H505   H     0.90237   0.28727   0.63329   0.00000  Uiso   1.00
H506   H     0.79096   0.19024   0.87018   0.00000  Uiso   1.00
N507   N     0.83333   0.25001   0.62934   0.00000  Uiso   1.00
N508   N     0.83333   0.24999   0.87066   0.00000  Uiso   1.00
O509   O     0.83334   0.18573   0.79071   0.00000  Uiso   1.00
O510   O     0.83333   0.31427   0.70928   0.00000  Uiso   1.00
O511   O     0.83334   0.18573   0.70928   0.00000  Uiso   1.00
O512   O     0.83333   0.31427   0.79072   0.00000  Uiso   1.00
O513   O     0.75828   0.24999   0.78132   0.00000  Uiso   1.00
O514   O     0.90839   0.25001   0.71868   0.00000  Uiso   1.00
O515   O     0.75828   0.25000   0.69988   0.00000  Uiso   1.00
O516   O     0.90839   0.25000   0.80011   0.00000  Uiso   1.00
H517   H     0.80571   0.11074   0.67288   0.00000  Uiso   1.00
H518   H     0.80540   0.38908   0.81977   0.00000  Uiso   1.00
H519   H     0.76430   0.21277   0.61535   0.00000  Uiso   1.00
H520   H     0.87564   0.30978   0.88123   0.00000  Uiso   1.00
H521   H     0.76179   0.21323   0.52668   0.00000  Uiso   1.00
H522   H     0.87503   0.31189   0.96946   0.00000  Uiso   1.00
C523   C     0.16663   0.66494   0.74999   0.00000  Uiso   1.00
C524   C     0.16670   0.83506   0.75001   0.00000  Uiso   1.00
C525   C     0.20616   0.77085   0.55910   0.00000  Uiso   1.00
C526   C     0.14293   0.71582   0.94295   0.00000  Uiso   1.00
C527   C     0.20522   0.77075   0.60971   0.00000  Uiso   1.00
C528   C     0.14306   0.71662   0.89224   0.00000  Uiso   1.00
C529   C     0.12811   0.72926   0.59968   0.00000  Uiso   1.00
C530   C     0.19022   0.78338   0.89839   0.00000  Uiso   1.00
C531   C     0.12716   0.72914   0.54882   0.00000  Uiso   1.00
C532   C     0.19033   0.78418   0.94914   0.00000  Uiso   1.00
C533   C     0.16665   0.74999   0.52734   0.00000  Uiso   1.00
C534   C     0.16664   0.74999   0.97266   0.00000  Uiso   1.00
C535   C     0.06789   0.74999   0.73755   0.00000  Uiso   1.00
C536   C     0.26544   0.75002   0.76244   0.00000  Uiso   1.00
C537   C     0.01263   0.75001   0.73067   0.00000  Uiso   1.00
C538   C     0.32070   0.75000   0.76931   0.00000  Uiso   1.00
C539   C     0.18215   0.54765   0.79331   0.00000  Uiso   1.00
C540   C     0.18257   0.95244   0.71097   0.00000  Uiso   1.00
C541   C     0.18178   0.59355   0.79336   0.00000  Uiso   1.00
C542   C     0.18225   0.90653   0.71081   0.00000  Uiso   1.00
C543   C     0.16659   0.61671   0.75001   0.00000  Uiso   1.00
C544   C     0.16674   0.88329   0.75004   0.00000  Uiso   1.00
C545   C     0.15136   0.59346   0.70668   0.00000  Uiso   1.00
C546   C     0.15125   0.90643   0.78929   0.00000  Uiso   1.00
C547   C     0.15103   0.54756   0.70676   0.00000  Uiso   1.00
C548   C     0.15086   0.95234   0.78914   0.00000  Uiso   1.00
C549   C     0.16662   0.52427   0.75004   0.00000  Uiso   1.00
C550   C     0.16668   0.97572   0.75005   0.00000  Uiso   1.00
Cu551  Cu    0.16667   0.75000   0.79821   0.00000  Uiso   1.00
Cu552  Cu    0.16667   0.75001   0.70178   0.00000  Uiso   1.00
H553   H     0.32599   0.75005   0.69360   0.00000  Uiso   1.00
H554   H     0.00734   0.74997   0.80638   0.00000  Uiso   1.00
H555   H     0.19520   0.53048   0.82700   0.00000  Uiso   1.00
H556   H     0.19582   0.96969   0.68081   0.00000  Uiso   1.00
H557   H     0.19406   0.61090   0.82715   0.00000  Uiso   1.00
H558   H     0.19480   0.88925   0.68034   0.00000  Uiso   1.00
H559   H     0.13800   0.53030   0.67308   0.00000  Uiso   1.00
H560   H     0.13759   0.96951   0.81930   0.00000  Uiso   1.00
H561   H     0.23819   0.78675   0.54530   0.00000  Uiso   1.00
H562   H     0.12488   0.68812   0.95857   0.00000  Uiso   1.00
H563   H     0.23570   0.78727   0.63329   0.00000  Uiso   1.00
H564   H     0.12430   0.69024   0.87018   0.00000  Uiso   1.00
N565   N     0.16667   0.75001   0.62934   0.00000  Uiso   1.00
N566   N     0.16667   0.74999   0.87066   0.00000  Uiso   1.00
O567   O     0.16667   0.68573   0.79071   0.00000  Uiso   1.00
O568   O     0.16666   0.81427   0.70928   0.00000  Uiso   1.00
O569   O     0.16667   0.68573   0.70928   0.00000  Uiso   1.00
O570   O     0.16666   0.81427   0.79072   0.00000  Uiso   1.00
O571   O     0.09161   0.74999   0.78132   0.00000  Uiso   1.00
O572   O     0.24172   0.75001   0.71868   0.00000  Uiso   1.00
O573   O     0.09161   0.75000   0.69988   0.00000  Uiso   1.00
O574   O     0.24172   0.75000   0.80011   0.00000  Uiso   1.00
H575   H     0.13904   0.61074   0.67288   0.00000  Uiso   1.00
H576   H     0.13873   0.88908   0.81977   0.00000  Uiso   1.00
H577   H     0.09764   0.71277   0.61535   0.00000  Uiso   1.00
H578   H     0.20897   0.80978   0.88123   0.00000  Uiso   1.00
H579   H     0.09512   0.71323   0.52668   0.00000  Uiso   1.00
H580   H     0.20836   0.81189   0.96946   0.00000  Uiso   1.00
C581   C     0.49996   0.66494   0.74999   0.00000  Uiso   1.00
C582   C     0.50004   0.83506   0.75001   0.00000  Uiso   1.00
C583   C     0.53949   0.77085   0.55910   0.00000  Uiso   1.00
C584   C     0.47627   0.71582   0.94295   0.00000  Uiso   1.00
C585   C     0.53855   0.77075   0.60971   0.00000  Uiso   1.00
C586   C     0.47640   0.71662   0.89224   0.00000  Uiso   1.00
C587   C     0.46144   0.72926   0.59968   0.00000  Uiso   1.00
C588   C     0.52356   0.78338   0.89839   0.00000  Uiso   1.00
C589   C     0.46049   0.72914   0.54882   0.00000  Uiso   1.00
C590   C     0.52366   0.78418   0.94914   0.00000  Uiso   1.00
C591   C     0.49998   0.74999   0.52734   0.00000  Uiso   1.00
C592   C     0.49997   0.74999   0.97266   0.00000  Uiso   1.00
C593   C     0.40123   0.74999   0.73755   0.00000  Uiso   1.00
C594   C     0.59877   0.75002   0.76244   0.00000  Uiso   1.00
C595   C     0.34597   0.75001   0.73067   0.00000  Uiso   1.00
C596   C     0.65403   0.75000   0.76931   0.00000  Uiso   1.00
C597   C     0.51549   0.54765   0.79331   0.00000  Uiso   1.00
C598   C     0.51590   0.95244   0.71097   0.00000  Uiso   1.00
C599   C     0.51511   0.59355   0.79336   0.00000  Uiso   1.00
C600   C     0.51558   0.90653   0.71081   0.00000  Uiso   1.00
C601   C     0.49992   0.61671   0.75001   0.00000  Uiso   1.00
C602   C     0.50007   0.88329   0.75004   0.00000  Uiso   1.00
C603   C     0.48470   0.59346   0.70668   0.00000  Uiso   1.00
C604   C     0.48458   0.90643   0.78929   0.00000  Uiso   1.00
C605   C     0.48437   0.54756   0.70676   0.00000  Uiso   1.00
C606   C     0.48419   0.95234   0.78914   0.00000  Uiso   1.00
C607   C     0.49996   0.52427   0.75004   0.00000  Uiso   1.00
C608   C     0.50002   0.97572   0.75005   0.00000  Uiso   1.00
Cu609  Cu    0.50000   0.75000   0.79821   0.00000  Uiso   1.00
Cu610  Cu    0.50000   0.75001   0.70178   0.00000  Uiso   1.00
H611   H     0.65933   0.75005   0.69360   0.00000  Uiso   1.00
H612   H     0.34067   0.74997   0.80638   0.00000  Uiso   1.00
H613   H     0.52853   0.53048   0.82700   0.00000  Uiso   1.00
H614   H     0.52916   0.96969   0.68081   0.00000  Uiso   1.00
H615   H     0.52740   0.61090   0.82715   0.00000  Uiso   1.00
H616   H     0.52814   0.88925   0.68034   0.00000  Uiso   1.00
H617   H     0.47134   0.53030   0.67308   0.00000  Uiso   1.00
H618   H     0.47092   0.96951   0.81930   0.00000  Uiso   1.00
H619   H     0.57152   0.78675   0.54530   0.00000  Uiso   1.00
H620   H     0.45821   0.68812   0.95857   0.00000  Uiso   1.00
H621   H     0.56903   0.78727   0.63329   0.00000  Uiso   1.00
H622   H     0.45763   0.69024   0.87018   0.00000  Uiso   1.00
N623   N     0.50000   0.75001   0.62934   0.00000  Uiso   1.00
N624   N     0.50000   0.74999   0.87066   0.00000  Uiso   1.00
O625   O     0.50000   0.68573   0.79071   0.00000  Uiso   1.00
O626   O     0.50000   0.81427   0.70928   0.00000  Uiso   1.00
O627   O     0.50000   0.68573   0.70928   0.00000  Uiso   1.00
O628   O     0.50000   0.81427   0.79072   0.00000  Uiso   1.00
O629   O     0.42495   0.74999   0.78132   0.00000  Uiso   1.00
O630   O     0.57505   0.75001   0.71868   0.00000  Uiso   1.00
O631   O     0.42495   0.75000   0.69988   0.00000  Uiso   1.00
O632   O     0.57505   0.75000   0.80011   0.00000  Uiso   1.00
H633   H     0.47238   0.61074   0.67288   0.00000  Uiso   1.00
H634   H     0.47207   0.88908   0.81977   0.00000  Uiso   1.00
H635   H     0.43097   0.71277   0.61535   0.00000  Uiso   1.00
H636   H     0.54230   0.80978   0.88123   0.00000  Uiso   1.00
H637   H     0.42846   0.71323   0.52668   0.00000  Uiso   1.00
H638   H     0.54170   0.81189   0.96946   0.00000  Uiso   1.00
C639   C     0.83329   0.66494   0.74999   0.00000  Uiso   1.00
C640   C     0.83337   0.83506   0.75001   0.00000  Uiso   1.00
C641   C     0.87283   0.77085   0.55910   0.00000  Uiso   1.00
C642   C     0.80960   0.71582   0.94295   0.00000  Uiso   1.00
C643   C     0.87189   0.77075   0.60971   0.00000  Uiso   1.00
C644   C     0.80973   0.71662   0.89224   0.00000  Uiso   1.00
C645   C     0.79477   0.72926   0.59968   0.00000  Uiso   1.00
C646   C     0.85689   0.78338   0.89839   0.00000  Uiso   1.00
C647   C     0.79382   0.72914   0.54882   0.00000  Uiso   1.00
C648   C     0.85699   0.78418   0.94914   0.00000  Uiso   1.00
C649   C     0.83332   0.74999   0.52734   0.00000  Uiso   1.00
C650   C     0.83330   0.74999   0.97266   0.00000  Uiso   1.00
C651   C     0.73456   0.74999   0.73755   0.00000  Uiso   1.00
C652   C     0.93210   0.75002   0.76244   0.00000  Uiso   1.00
C653   C     0.67930   0.75001   0.73067   0.00000  Uiso   1.00
C654   C     0.98737   0.75000   0.76931   0.00000  Uiso   1.00
C655   C     0.84882   0.54765   0.79331   0.00000  Uiso   1.00
C656   C     0.84923   0.95244   0.71097   0.00000  Uiso   1.00
C657   C     0.84845   0.59355   0.79336   0.00000  Uiso   1.00
C658   C     0.84891   0.90653   0.71081   0.00000  Uiso   1.00
C659   C     0.83326   0.61671   0.75001   0.00000  Uiso   1.00
C660   C     0.83340   0.88329   0.75004   0.00000  Uiso   1.00
C661   C     0.81803   0.59346   0.70668   0.00000  Uiso   1.00
C662   C     0.81791   0.90643   0.78929   0.00000  Uiso   1.00
C663   C     0.81770   0.54756   0.70676   0.00000  Uiso   1.00
C664   C     0.81753   0.95234   0.78914   0.00000  Uiso   1.00
C665   C     0.83329   0.52427   0.75004   0.00000  Uiso   1.00
C666   C     0.83335   0.97572   0.75005   0.00000  Uiso   1.00
Cu667  Cu    0.83333   0.75000   0.79821   0.00000  Uiso   1.00
Cu668  Cu    0.83333   0.75001   0.70178   0.00000  Uiso   1.00
H669   H     0.99266   0.75005   0.69360   0.00000  Uiso   1.00
H670   H     0.67401   0.74997   0.80638   0.00000  Uiso   1.00
H671   H     0.86186   0.53048   0.82700   0.00000  Uiso   1.00
H672   H     0.86249   0.96969   0.68081   0.00000  Uiso   1.00
H673   H     0.86073   0.61090   0.82715   0.00000  Uiso   1.00
H674   H     0.86147   0.88925   0.68034   0.00000  Uiso   1.00
H675   H     0.80467   0.53030   0.67308   0.00000  Uiso   1.00
H676   H     0.80425   0.96951   0.81930   0.00000  Uiso   1.00
H677   H     0.90485   0.78675   0.54530   0.00000  Uiso   1.00
H678   H     0.79154   0.68812   0.95857   0.00000  Uiso   1.00
H679   H     0.90237   0.78727   0.63329   0.00000  Uiso   1.00
H680   H     0.79096   0.69024   0.87018   0.00000  Uiso   1.00
N681   N     0.83333   0.75001   0.62934   0.00000  Uiso   1.00
N682   N     0.83333   0.74999   0.87066   0.00000  Uiso   1.00
O683   O     0.83334   0.68573   0.79071   0.00000  Uiso   1.00
O684   O     0.83333   0.81427   0.70928   0.00000  Uiso   1.00
O685   O     0.83334   0.68573   0.70928   0.00000  Uiso   1.00
O686   O     0.83333   0.81427   0.79072   0.00000  Uiso   1.00
O687   O     0.75828   0.74999   0.78132   0.00000  Uiso   1.00
O688   O     0.90839   0.75001   0.71868   0.00000  Uiso   1.00
O689   O     0.75828   0.75000   0.69988   0.00000  Uiso   1.00
O690   O     0.90839   0.75000   0.80011   0.00000  Uiso   1.00
H691   H     0.80571   0.61074   0.67288   0.00000  Uiso   1.00
H692   H     0.80540   0.88908   0.81977   0.00000  Uiso   1.00
H693   H     0.76430   0.71277   0.61535   0.00000  Uiso   1.00
H694   H     0.87564   0.80978   0.88123   0.00000  Uiso   1.00
H695   H     0.76179   0.71323   0.52668   0.00000  Uiso   1.00
H696   H     0.87503   0.81189   0.96946   0.00000  Uiso   1.00
loop_
_geom_bond_atom_site_label_1
_geom_bond_atom_site_label_2
_geom_bond_distance
_geom_bond_site_symmetry_2
_ccdc_geom_bond_type
C1     C21     1.460   .     S
C1     O45     1.293   .     A
C1     O47     1.293   .     A
C2     C22     1.460   .     S
C2     O46     1.293   .     A
C2     O48     1.293   .     A
C3     H39     1.081   .     S
C3     C11     1.411   .     A
C3     C5      1.407   .     A
C4     C6      1.407   .     A
C4     C12     1.411   .     A
C4     H40     1.081   .     S
C5     N43     1.364   .     A
C5     H41     1.081   .     S
C6     N44     1.364   .     A
C6     H42     1.081   .     S
C7     N43     1.364   .     A
C7     H55     1.081   .     S
C7     C9      1.407   .     A
C8     H56     1.081   .     S
C8     C10     1.407   .     A
C8     N44     1.364   .     A
C9     C11     1.411   .     A
C9     H57     1.081   .     S
C10    C12     1.411   .     A
C10    H58     1.081   .     S
C11    C360    1.516   1_554 S
C12    C359    1.516   .     S
C13    C15     1.434   .     S
C13    O49     1.285   .     A
C13    O51     1.287   .     A
C14    O50     1.285   .     A
C14    C16     1.434   .     S
C14    O52     1.287   .     A
C15    C132    1.335   1_455 S
C15    H147    1.087   1_455 S
C16    C73     1.335   .     S
C16    H90     1.087   .     S
C17    H33     1.083   .     S
C17    C27     1.404   .     A
C17    C19     1.390   .     A
C18    C28     1.404   .     A
C18    H34     1.083   .     S
C18    C20     1.390   .     A
C19    C21     1.402   .     A
C19    H35     1.083   .     S
C20    C22     1.402   .     A
C20    H36     1.083   .     S
C21    C23     1.402   .     A
C22    C24     1.402   .     A
C23    H53     1.083   .     S
C23    C25     1.390   .     A
C24    C26     1.390   .     A
C24    H54     1.083   .     S
C25    H37     1.083   .     S
C25    C27     1.404   .     A
C26    C28     1.404   .     A
C26    H38     1.083   .     S
C27    C202    1.470   1_545 S
C28    C201    1.470   .     S
Cu29   Cu30    2.674   .     S
Cu29   O49     1.958   .     S
Cu29   N44     2.009   .     S
Cu29   O48     1.957   .     S
Cu29   O45     1.957   .     S
Cu29   O52     1.960   .     S
Cu30   O51     1.960   .     S
Cu30   O50     1.958   .     S
Cu30   N43     2.009   .     S
Cu30   O47     1.957   .     S
Cu30   O46     1.957   .     S
H31    C73     1.087   .     S
H32    C132    1.087   1_455 S
C59    C79     1.460   .     S
C59    O103    1.293   .     A
C59    O105    1.293   .     A
C60    C80     1.460   .     S
C60    O104    1.293   .     A
C60    O106    1.293   .     A
C61    H97     1.081   .     S
C61    C69     1.411   .     A
C61    C63     1.407   .     A
C62    C64     1.407   .     A
C62    C70     1.411   .     A
C62    H98     1.081   .     S
C63    N101    1.364   .     A
C63    H99     1.081   .     S
C64    N102    1.364   .     A
C64    H100    1.081   .     S
C65    N101    1.364   .     A
C65    H113    1.081   .     S
C65    C67     1.407   .     A
C66    H114    1.081   .     S
C66    C68     1.407   .     A
C66    N102    1.364   .     A
C67    C69     1.411   .     A
C67    H115    1.081   .     S
C68    C70     1.411   .     A
C68    H116    1.081   .     S
C69    C418    1.516   1_554 S
C70    C417    1.516   .     S
C71    C73     1.434   .     S
C71    O107    1.285   .     A
C71    O109    1.287   .     A
C72    O108    1.285   .     A
C72    C74     1.434   .     S
C72    O110    1.287   .     A
C74    C131    1.335   .     S
C74    H148    1.087   .     S
C75    H91     1.083   .     S
C75    C85     1.404   .     A
C75    C77     1.390   .     A
C76    C86     1.404   .     A
C76    H92     1.083   .     S
C76    C78     1.390   .     A
C77    C79     1.402   .     A
C77    H93     1.083   .     S
C78    C80     1.402   .     A
C78    H94     1.083   .     S
C79    C81     1.402   .     A
C80    C82     1.402   .     A
C81    H111    1.083   .     S
C81    C83     1.390   .     A
C82    C84     1.390   .     A
C82    H112    1.083   .     S
C83    H95     1.083   .     S
C83    C85     1.404   .     A
C84    C86     1.404   .     A
C84    H96     1.083   .     S
C85    C260    1.470   1_545 S
C86    C259    1.470   .     S
Cu87   Cu88    2.674   .     S
Cu87   O107    1.958   .     S
Cu87   N102    2.009   .     S
Cu87   O106    1.957   .     S
Cu87   O103    1.957   .     S
Cu87   O110    1.960   .     S
Cu88   O109    1.960   .     S
Cu88   O108    1.958   .     S
Cu88   N101    2.009   .     S
Cu88   O105    1.957   .     S
Cu88   O104    1.957   .     S
H89    C131    1.087   .     S
C117   C137    1.460   .     S
C117   O161    1.293   .     A
C117   O163    1.293   .     A
C118   C138    1.460   .     S
C118   O162    1.293   .     A
C118   O164    1.293   .     A
C119   H155    1.081   .     S
C119   C127    1.411   .     A
C119   C121    1.407   .     A
C120   C122    1.407   .     A
C120   C128    1.411   .     A
C120   H156    1.081   .     S
C121   N159    1.364   .     A
C121   H157    1.081   .     S
C122   N160    1.364   .     A
C122   H158    1.081   .     S
C123   N159    1.364   .     A
C123   H171    1.081   .     S
C123   C125    1.407   .     A
C124   H172    1.081   .     S
C124   C126    1.407   .     A
C124   N160    1.364   .     A
C125   C127    1.411   .     A
C125   H173    1.081   .     S
C126   C128    1.411   .     A
C126   H174    1.081   .     S
C127   C476    1.516   1_554 S
C128   C475    1.516   .     S
C129   C131    1.434   .     S
C129   O165    1.285   .     A
C129   O167    1.287   .     A
C130   O166    1.285   .     A
C130   C132    1.434   .     S
C130   O168    1.287   .     A
C132   C15     1.335   1_655 S
C132   H32     1.087   1_655 S
C133   H149    1.083   .     S
C133   C143    1.404   .     A
C133   C135    1.390   .     A
C134   C144    1.404   .     A
C134   H150    1.083   .     S
C134   C136    1.390   .     A
C135   C137    1.402   .     A
C135   H151    1.083   .     S
C136   C138    1.402   .     A
C136   H152    1.083   .     S
C137   C139    1.402   .     A
C138   C140    1.402   .     A
C139   H169    1.083   .     S
C139   C141    1.390   .     A
C140   C142    1.390   .     A
C140   H170    1.083   .     S
C141   H153    1.083   .     S
C141   C143    1.404   .     A
C142   C144    1.404   .     A
C142   H154    1.083   .     S
C143   C318    1.470   1_545 S
C144   C317    1.470   .     S
Cu145  Cu146   2.674   .     S
Cu145  O165    1.958   .     S
Cu145  N160    2.009   .     S
Cu145  O164    1.957   .     S
Cu145  O161    1.957   .     S
Cu145  O168    1.960   .     S
Cu146  O167    1.960   .     S
Cu146  O166    1.958   .     S
Cu146  N159    2.009   .     S
Cu146  O163    1.957   .     S
Cu146  O162    1.957   .     S
H147   C15     1.087   1_655 S
C175   C195    1.460   .     S
C175   O219    1.293   .     A
C175   O221    1.293   .     A
C176   C196    1.460   .     S
C176   O220    1.293   .     A
C176   O222    1.293   .     A
C177   H213    1.081   .     S
C177   C185    1.411   .     A
C177   C179    1.407   .     A
C178   C180    1.407   .     A
C178   C186    1.411   .     A
C178   H214    1.081   .     S
C179   N217    1.364   .     A
C179   H215    1.081   .     S
C180   N218    1.364   .     A
C180   H216    1.081   .     S
C181   N217    1.364   .     A
C181   H229    1.081   .     S
C181   C183    1.407   .     A
C182   H230    1.081   .     S
C182   C184    1.407   .     A
C182   N218    1.364   .     A
C183   C185    1.411   .     A
C183   H231    1.081   .     S
C184   C186    1.411   .     A
C184   H232    1.081   .     S
C185   C534    1.516   1_554 S
C186   C533    1.516   .     S
C187   C189    1.434   .     S
C187   O223    1.285   .     A
C187   O225    1.287   .     A
C188   O224    1.285   .     A
C188   C190    1.434   .     S
C188   O226    1.287   .     A
C189   C306    1.335   1_455 S
C189   H321    1.087   1_455 S
C190   C247    1.335   .     S
C190   H264    1.087   .     S
C191   H207    1.083   .     S
C191   C201    1.404   .     A
C191   C193    1.390   .     A
C192   C202    1.404   .     A
C192   H208    1.083   .     S
C192   C194    1.390   .     A
C193   C195    1.402   .     A
C193   H209    1.083   .     S
C194   C196    1.402   .     A
C194   H210    1.083   .     S
C195   C197    1.402   .     A
C196   C198    1.402   .     A
C197   H227    1.083   .     S
C197   C199    1.390   .     A
C198   C200    1.390   .     A
C198   H228    1.083   .     S
C199   H211    1.083   .     S
C199   C201    1.404   .     A
C200   C202    1.404   .     A
C200   H212    1.083   .     S
C202   C27     1.470   1_565 S
Cu203  Cu204   2.674   .     S
Cu203  O223    1.958   .     S
Cu203  N218    2.009   .     S
Cu203  O222    1.957   .     S
Cu203  O219    1.957   .     S
Cu203  O226    1.960   .     S
Cu204  O225    1.960   .     S
Cu204  O224    1.958   .     S
Cu204  N217    2.009   .     S
Cu204  O221    1.957   .     S
Cu204  O220    1.957   .     S
H205   C247    1.087   .     S
H206   C306    1.087   1_455 S
C233   C253    1.460   .     S
C233   O277    1.293   .     A
C233   O279    1.293   .     A
C234   C254    1.460   .     S
C234   O278    1.293   .     A
C234   O280    1.293   .     A
C235   H271    1.081   .     S
C235   C243    1.411   .     A
C235   C237    1.407   .     A
C236   C238    1.407   .     A
C236   C244    1.411   .     A
C236   H272    1.081   .     S
C237   N275    1.364   .     A
C237   H273    1.081   .     S
C238   N276    1.364   .     A
C238   H274    1.081   .     S
C239   N275    1.364   .     A
C239   H287    1.081   .     S
C239   C241    1.407   .     A
C240   H288    1.081   .     S
C240   C242    1.407   .     A
C240   N276    1.364   .     A
C241   C243    1.411   .     A
C241   H289    1.081   .     S
C242   C244    1.411   .     A
C242   H290    1.081   .     S
C243   C592    1.516   1_554 S
C244   C591    1.516   .     S
C245   C247    1.434   .     S
C245   O281    1.285   .     A
C245   O283    1.287   .     A
C246   O282    1.285   .     A
C246   C248    1.434   .     S
C246   O284    1.287   .     A
C248   C305    1.335   .     S
C248   H322    1.087   .     S
C249   H265    1.083   .     S
C249   C259    1.404   .     A
C249   C251    1.390   .     A
C250   C260    1.404   .     A
C250   H266    1.083   .     S
C250   C252    1.390   .     A
C251   C253    1.402   .     A
C251   H267    1.083   .     S
C252   C254    1.402   .     A
C252   H268    1.083   .     S
C253   C255    1.402   .     A
C254   C256    1.402   .     A
C255   H285    1.083   .     S
C255   C257    1.390   .     A
C256   C258    1.390   .     A
C256   H286    1.083   .     S
C257   H269    1.083   .     S
C257   C259    1.404   .     A
C258   C260    1.404   .     A
C258   H270    1.083   .     S
C260   C85     1.470   1_565 S
Cu261  Cu262   2.674   .     S
Cu261  O281    1.958   .     S
Cu261  N276    2.009   .     S
Cu261  O280    1.957   .     S
Cu261  O277    1.957   .     S
Cu261  O284    1.960   .     S
Cu262  O283    1.960   .     S
Cu262  O282    1.958   .     S
Cu262  N275    2.009   .     S
Cu262  O279    1.957   .     S
Cu262  O278    1.957   .     S
H263   C305    1.087   .     S
C291   C311    1.460   .     S
C291   O335    1.293   .     A
C291   O337    1.293   .     A
C292   C312    1.460   .     S
C292   O336    1.293   .     A
C292   O338    1.293   .     A
C293   H329    1.081   .     S
C293   C301    1.411   .     A
C293   C295    1.407   .     A
C294   C296    1.407   .     A
C294   C302    1.411   .     A
C294   H330    1.081   .     S
C295   N333    1.364   .     A
C295   H331    1.081   .     S
C296   N334    1.364   .     A
C296   H332    1.081   .     S
C297   N333    1.364   .     A
C297   H345    1.081   .     S
C297   C299    1.407   .     A
C298   H346    1.081   .     S
C298   C300    1.407   .     A
C298   N334    1.364   .     A
C299   C301    1.411   .     A
C299   H347    1.081   .     S
C300   C302    1.411   .     A
C300   H348    1.081   .     S
C301   C650    1.516   1_554 S
C302   C649    1.516   .     S
C303   C305    1.434   .     S
C303   O339    1.285   .     A
C303   O341    1.287   .     A
C304   O340    1.285   .     A
C304   C306    1.434   .     S
C304   O342    1.287   .     A
C306   C189    1.335   1_655 S
C306   H206    1.087   1_655 S
C307   H323    1.083   .     S
C307   C317    1.404   .     A
C307   C309    1.390   .     A
C308   C318    1.404   .     A
C308   H324    1.083   .     S
C308   C310    1.390   .     A
C309   C311    1.402   .     A
C309   H325    1.083   .     S
C310   C312    1.402   .     A
C310   H326    1.083   .     S
C311   C313    1.402   .     A
C312   C314    1.402   .     A
C313   H343    1.083   .     S
C313   C315    1.390   .     A
C314   C316    1.390   .     A
C314   H344    1.083   .     S
C315   H327    1.083   .     S
C315   C317    1.404   .     A
C316   C318    1.404   .     A
C316   H328    1.083   .     S
C318   C143    1.470   1_565 S
Cu319  Cu320   2.674   .     S
Cu319  O339    1.958   .     S
Cu319  N334    2.009   .     S
Cu319  O338    1.957   .     S
Cu319  O335    1.957   .     S
Cu319  O342    1.960   .     S
Cu320  O341    1.960   .     S
Cu320  O340    1.958   .     S
Cu320  N333    2.009   .     S
Cu320  O337    1.957   .     S
Cu320  O336    1.957   .     S
H321   C189    1.087   1_655 S
C349   C369    1.460   .     S
C349   O393    1.293   .     A
C349   O395    1.293   .     A
C350   C370    1.460   .     S
C350   O394    1.293   .     A
C350   O396    1.293   .     A
C351   H387    1.081   .     S
C351   C359    1.411   .     A
C351   C353    1.407   .     A
C352   C354    1.407   .     A
C352   C360    1.411   .     A
C352   H388    1.081   .     S
C353   N391    1.364   .     A
C353   H389    1.081   .     S
C354   N392    1.364   .     A
C354   H390    1.081   .     S
C355   N391    1.364   .     A
C355   H403    1.081   .     S
C355   C357    1.407   .     A
C356   H404    1.081   .     S
C356   C358    1.407   .     A
C356   N392    1.364   .     A
C357   C359    1.411   .     A
C357   H405    1.081   .     S
C358   C360    1.411   .     A
C358   H406    1.081   .     S
C360   C11     1.516   1_556 S
C361   C363    1.434   .     S
C361   O397    1.285   .     A
C361   O399    1.287   .     A
C362   O398    1.285   .     A
C362   C364    1.434   .     S
C362   O400    1.287   .     A
C363   C480    1.335   1_455 S
C363   H495    1.087   1_455 S
C364   C421    1.335   .     S
C364   H438    1.087   .     S
C365   H381    1.083   .     S
C365   C375    1.404   .     A
C365   C367    1.390   .     A
C366   C376    1.404   .     A
C366   H382    1.083   .     S
C366   C368    1.390   .     A
C367   C369    1.402   .     A
C367   H383    1.083   .     S
C368   C370    1.402   .     A
C368   H384    1.083   .     S
C369   C371    1.402   .     A
C370   C372    1.402   .     A
C371   H401    1.083   .     S
C371   C373    1.390   .     A
C372   C374    1.390   .     A
C372   H402    1.083   .     S
C373   H385    1.083   .     S
C373   C375    1.404   .     A
C374   C376    1.404   .     A
C374   H386    1.083   .     S
C375   C550    1.470   1_545 S
C376   C549    1.470   .     S
Cu377  Cu378   2.674   .     S
Cu377  O397    1.958   .     S
Cu377  N392    2.009   .     S
Cu377  O396    1.957   .     S
Cu377  O393    1.957   .     S
Cu377  O400    1.960   .     S
Cu378  O399    1.960   .     S
Cu378  O398    1.958   .     S
Cu378  N391    2.009   .     S
Cu378  O395    1.957   .     S
Cu378  O394    1.957   .     S
H379   C421    1.087   .     S
H380   C480    1.087   1_455 S
C407   C427    1.460   .     S
C407   O451    1.293   .     A
C407   O453    1.293   .     A
C408   C428    1.460   .     S
C408   O452    1.293   .     A
C408   O454    1.293   .     A
C409   H445    1.081   .     S
C409   C417    1.411   .     A
C409   C411    1.407   .     A
C410   C412    1.407   .     A
C410   C418    1.411   .     A
C410   H446    1.081   .     S
C411   N449    1.364   .     A
C411   H447    1.081   .     S
C412   N450    1.364   .     A
C412   H448    1.081   .     S
C413   N449    1.364   .     A
C413   H461    1.081   .     S
C413   C415    1.407   .     A
C414   H462    1.081   .     S
C414   C416    1.407   .     A
C414   N450    1.364   .     A
C415   C417    1.411   .     A
C415   H463    1.081   .     S
C416   C418    1.411   .     A
C416   H464    1.081   .     S
C418   C69     1.516   1_556 S
C419   C421    1.434   .     S
C419   O455    1.285   .     A
C419   O457    1.287   .     A
C420   O456    1.285   .     A
C420   C422    1.434   .     S
C420   O458    1.287   .     A
C422   C479    1.335   .     S
C422   H496    1.087   .     S
C423   H439    1.083   .     S
C423   C433    1.404   .     A
C423   C425    1.390   .     A
C424   C434    1.404   .     A
C424   H440    1.083   .     S
C424   C426    1.390   .     A
C425   C427    1.402   .     A
C425   H441    1.083   .     S
C426   C428    1.402   .     A
C426   H442    1.083   .     S
C427   C429    1.402   .     A
C428   C430    1.402   .     A
C429   H459    1.083   .     S
C429   C431    1.390   .     A
C430   C432    1.390   .     A
C430   H460    1.083   .     S
C431   H443    1.083   .     S
C431   C433    1.404   .     A
C432   C434    1.404   .     A
C432   H444    1.083   .     S
C433   C608    1.470   1_545 S
C434   C607    1.470   .     S
Cu435  Cu436   2.674   .     S
Cu435  O455    1.958   .     S
Cu435  N450    2.009   .     S
Cu435  O454    1.957   .     S
Cu435  O451    1.957   .     S
Cu435  O458    1.960   .     S
Cu436  O457    1.960   .     S
Cu436  O456    1.958   .     S
Cu436  N449    2.009   .     S
Cu436  O453    1.957   .     S
Cu436  O452    1.957   .     S
H437   C479    1.087   .     S
C465   C485    1.460   .     S
C465   O509    1.293   .     A
C465   O511    1.293   .     A
C466   C486    1.460   .     S
C466   O510    1.293   .     A
C466   O512    1.293   .     A
C467   H503    1.081   .     S
C467   C475    1.411   .     A
C467   C469    1.407   .     A
C468   C470    1.407   .     A
C468   C476    1.411   .     A
C468   H504    1.081   .     S
C469   N507    1.364   .     A
C469   H505    1.081   .     S
C470   N508    1.364   .     A
C470   H506    1.081   .     S
C471   N507    1.364   .     A
C471   H519    1.081   .     S
C471   C473    1.407   .     A
C472   H520    1.081   .     S
C472   C474    1.407   .     A
C472   N508    1.364   .     A
C473   C475    1.411   .     A
C473   H521    1.081   .     S
C474   C476    1.411   .     A
C474   H522    1.081   .     S
C476   C127    1.516   1_556 S
C477   C479    1.434   .     S
C477   O513    1.285   .     A
C477   O515    1.287   .     A
C478   O514    1.285   .     A
C478   C480    1.434   .     S
C478   O516    1.287   .     A
C480   C363    1.335   1_655 S
C480   H380    1.087   1_655 S
C481   H497    1.083   .     S
C481   C491    1.404   .     A
C481   C483    1.390   .     A
C482   C492    1.404   .     A
C482   H498    1.083   .     S
C482   C484    1.390   .     A
C483   C485    1.402   .     A
C483   H499    1.083   .     S
C484   C486    1.402   .     A
C484   H500    1.083   .     S
C485   C487    1.402   .     A
C486   C488    1.402   .     A
C487   H517    1.083   .     S
C487   C489    1.390   .     A
C488   C490    1.390   .     A
C488   H518    1.083   .     S
C489   H501    1.083   .     S
C489   C491    1.404   .     A
C490   C492    1.404   .     A
C490   H502    1.083   .     S
C491   C666    1.470   1_545 S
C492   C665    1.470   .     S
Cu493  Cu494   2.674   .     S
Cu493  O513    1.958   .     S
Cu493  N508    2.009   .     S
Cu493  O512    1.957   .     S
Cu493  O509    1.957   .     S
Cu493  O516    1.960   .     S
Cu494  O515    1.960   .     S
Cu494  O514    1.958   .     S
Cu494  N507    2.009   .     S
Cu494  O511    1.957   .     S
Cu494  O510    1.957   .     S
H495   C363    1.087   1_655 S
C523   C543    1.460   .     S
C523   O567    1.293   .     A
C523   O569    1.293   .     A
C524   C544    1.460   .     S
C524   O568    1.293   .     A
C524   O570    1.293   .     A
C525   H561    1.081   .     S
C525   C533    1.411   .     A
C525   C527    1.407   .     A
C526   C528    1.407   .     A
C526   C534    1.411   .     A
C526   H562    1.081   .     S
C527   N565    1.364   .     A
C527   H563    1.081   .     S
C528   N566    1.364   .     A
C528   H564    1.081   .     S
C529   N565    1.364   .     A
C529   H577    1.081   .     S
C529   C531    1.407   .     A
C530   H578    1.081   .     S
C530   C532    1.407   .     A
C530   N566    1.364   .     A
C531   C533    1.411   .     A
C531   H579    1.081   .     S
C532   C534    1.411   .     A
C532   H580    1.081   .     S
C534   C185    1.516   1_556 S
C535   C537    1.434   .     S
C535   O571    1.285   .     A
C535   O573    1.287   .     A
C536   O572    1.285   .     A
C536   C538    1.434   .     S
C536   O574    1.287   .     A
C537   C654    1.335   1_455 S
C537   H669    1.087   1_455 S
C538   C595    1.335   .     S
C538   H612    1.087   .     S
C539   H555    1.083   .     S
C539   C549    1.404   .     A
C539   C541    1.390   .     A
C540   C550    1.404   .     A
C540   H556    1.083   .     S
C540   C542    1.390   .     A
C541   C543    1.402   .     A
C541   H557    1.083   .     S
C542   C544    1.402   .     A
C542   H558    1.083   .     S
C543   C545    1.402   .     A
C544   C546    1.402   .     A
C545   H575    1.083   .     S
C545   C547    1.390   .     A
C546   C548    1.390   .     A
C546   H576    1.083   .     S
C547   H559    1.083   .     S
C547   C549    1.404   .     A
C548   C550    1.404   .     A
C548   H560    1.083   .     S
C550   C375    1.470   1_565 S
Cu551  Cu552   2.674   .     S
Cu551  O571    1.958   .     S
Cu551  N566    2.009   .     S
Cu551  O570    1.957   .     S
Cu551  O567    1.957   .     S
Cu551  O574    1.960   .     S
Cu552  O573    1.960   .     S
Cu552  O572    1.958   .     S
Cu552  N565    2.009   .     S
Cu552  O569    1.957   .     S
Cu552  O568    1.957   .     S
H553   C595    1.087   .     S
H554   C654    1.087   1_455 S
C581   C601    1.460   .     S
C581   O625    1.293   .     A
C581   O627    1.293   .     A
C582   C602    1.460   .     S
C582   O626    1.293   .     A
C582   O628    1.293   .     A
C583   H619    1.081   .     S
C583   C591    1.411   .     A
C583   C585    1.407   .     A
C584   C586    1.407   .     A
C584   C592    1.411   .     A
C584   H620    1.081   .     S
C585   N623    1.364   .     A
C585   H621    1.081   .     S
C586   N624    1.364   .     A
C586   H622    1.081   .     S
C587   N623    1.364   .     A
C587   H635    1.081   .     S
C587   C589    1.407   .     A
C588   H636    1.081   .     S
C588   C590    1.407   .     A
C588   N624    1.364   .     A
C589   C591    1.411   .     A
C589   H637    1.081   .     S
C590   C592    1.411   .     A
C590   H638    1.081   .     S
C592   C243    1.516   1_556 S
C593   C595    1.434   .     S
C593   O629    1.285   .     A
C593   O631    1.287   .     A
C594   O630    1.285   .     A
C594   C596    1.434   .     S
C594   O632    1.287   .     A
C596   C653    1.335   .     S
C596   H670    1.087   .     S
C597   H613    1.083   .     S
C597   C607    1.404   .     A
C597   C599    1.390   .     A
C598   C608    1.404   .     A
C598   H614    1.083   .     S
C598   C600    1.390   .     A
C599   C601    1.402   .     A
C599   H615    1.083   .     S
C600   C602    1.402   .     A
C600   H616    1.083   .     S
C601   C603    1.402   .     A
C602   C604    1.402   .     A
C603   H633    1.083   .     S
C603   C605    1.390   .     A
C604   C606    1.390   .     A
C604   H634    1.083   .     S
C605   H617    1.083   .     S
C605   C607    1.404   .     A
C606   C608    1.404   .     A
C606   H618    1.083   .     S
C608   C433    1.470   1_565 S
Cu609  Cu610   2.674   .     S
Cu609  O629    1.958   .     S
Cu609  N624    2.009   .     S
Cu609  O628    1.957   .     S
Cu609  O625    1.957   .     S
Cu609  O632    1.960   .     S
Cu610  O631    1.960   .     S
Cu610  O630    1.958   .     S
Cu610  N623    2.009   .     S
Cu610  O627    1.957   .     S
Cu610  O626    1.957   .     S
H611   C653    1.087   .     S
C639   C659    1.460   .     S
C639   O683    1.293   .     A
C639   O685    1.293   .     A
C640   C660    1.460   .     S
C640   O684    1.293   .     A
C640   O686    1.293   .     A
C641   H677    1.081   .     S
C641   C649    1.411   .     A
C641   C643    1.407   .     A
C642   C644    1.407   .     A
C642   C650    1.411   .     A
C642   H678    1.081   .     S
C643   N681    1.364   .     A
C643   H679    1.081   .     S
C644   N682    1.364   .     A
C644   H680    1.081   .     S
C645   N681    1.364   .     A
C645   H693    1.081   .     S
C645   C647    1.407   .     A
C646   H694    1.081   .     S
C646   C648    1.407   .     A
C646   N682    1.364   .     A
C647   C649    1.411   .     A
C647   H695    1.081   .     S
C648   C650    1.411   .     A
C648   H696    1.081   .     S
C650   C301    1.516   1_556 S
C651   C653    1.434   .     S
C651   O687    1.285   .     A
C651   O689    1.287   .     A
C652   O688    1.285   .     A
C652   C654    1.434   .     S
C652   O690    1.287   .     A
C654   C537    1.335   1_655 S
C654   H554    1.087   1_655 S
C655   H671    1.083   .     S
C655   C665    1.404   .     A
C655   C657    1.390   .     A
C656   C666    1.404   .     A
C656   H672    1.083   .     S
C656   C658    1.390   .     A
C657   C659    1.402   .     A
C657   H673    1.083   .     S
C658   C660    1.402   .     A
C658   H674    1.083   .     S
C659   C661    1.402   .     A
C660   C662    1.402   .     A
C661   H691    1.083   .     S
C661   C663    1.390   .     A
C662   C664    1.390   .     A
C662   H692    1.083   .     S
C663   H675    1.083   .     S
C663   C665    1.404   .     A
C664   C666    1.404   .     A
C664   H676    1.083   .     S
C666   C491    1.470   1_565 S
Cu667  Cu668   2.674   .     S
Cu667  O687    1.958   .     S
Cu667  N682    2.009   .     S
Cu667  O686    1.957   .     S
Cu667  O683    1.957   .     S
Cu667  O690    1.960   .     S
Cu668  O689    1.960   .     S
Cu668  O688    1.958   .     S
Cu668  N681    2.009   .     S
Cu668  O685    1.957   .     S
Cu668  O684    1.957   .     S
H669   C537    1.087   1_655 S
