data_str_m2_o10_o16_pcu_sym.152
_audit_creation_date              2020-01-03
_audit_creation_method            'Materials Studio'
_symmetry_space_group_name_H-M    'P1'
_symmetry_Int_Tables_number       1
_symmetry_cell_setting            triclinic
loop_
_symmetry_equiv_pos_as_xyz
  x,y,z
_cell_length_a                    22.2943
_cell_length_b                    26.2184
_cell_length_c                    26.6684
_cell_angle_alpha                 94.0417
_cell_angle_beta                  77.3315
_cell_angle_gamma                 103.1533
loop_
_atom_site_label
_atom_site_type_symbol
_atom_site_fract_x
_atom_site_fract_y
_atom_site_fract_z
_atom_site_U_iso_or_equiv
_atom_site_adp_type
_atom_site_occupancy
C1     C     0.18142   0.26655   0.25267   0.00000  Uiso   1.00
C2     C     0.13606   0.17362   0.48994   0.00000  Uiso   1.00
C3     C     0.15303   0.18706   0.43715   0.00000  Uiso   1.00
C4     C     0.18423   0.18629   0.01923   0.00000  Uiso   1.00
C5     C     0.24190   0.22167   0.49965   0.00000  Uiso   1.00
C6     C     0.25314   0.24112   0.45047   0.00000  Uiso   1.00
C7     C     0.20992   0.22352   0.41937   0.00000  Uiso   1.00
C8     C     0.17828   0.16325   0.06640   0.00000  Uiso   1.00
C9     C     0.27625   0.21910   0.07948   0.00000  Uiso   1.00
C10    C     0.11171   0.16504   0.40385   0.00000  Uiso   1.00
C11    C     0.18969   0.32229   0.25712   0.00000  Uiso   1.00
C12    C     0.13304   0.16566   0.34739   0.00000  Uiso   1.00
C13    C     0.14441   0.01091   0.24823   0.00000  Uiso   1.00
C14    C     0.15160   0.06667   0.24909   0.00000  Uiso   1.00
C15    C     0.20064   0.17085   0.15287   0.00000  Uiso   1.00
C16    C     0.28758   0.23751   0.02977   0.00000  Uiso   1.00
C17    C     0.22114   0.18211   0.09805   0.00000  Uiso   1.00
C18    C     0.05037   0.13827   0.42467   0.00000  Uiso   1.00
C19    C     0.03006   0.13261   0.47735   0.00000  Uiso   1.00
C20    C     0.07142   0.14983   0.01051   0.00000  Uiso   1.00
Cu21   Cu    0.10710   0.16105   0.24435   0.00000  Uiso   1.00
Cu22   Cu    0.22623   0.17228   0.25565   0.00000  Uiso   1.00
H23    H     0.10134   0.32062   0.23878   0.00000  Uiso   1.00
H24    H     0.32969   0.12745   0.21029   0.00000  Uiso   1.00
H25    H     0.29625   0.26914   0.43547   0.00000  Uiso   1.00
H26    H     0.33108   0.26538   0.01546   0.00000  Uiso   1.00
H27    H     0.14007   0.13083   0.07985   0.00000  Uiso   1.00
H28    H     0.01755   0.12200   0.40015   0.00000  Uiso   1.00
H29    H     0.31452   0.11475   0.49276   0.00000  Uiso   1.00
H30    H     0.22080   0.24055   0.38183   0.00000  Uiso   1.00
N31    N     0.31574   0.18074   0.26416   0.00000  Uiso   1.00
N32    N     0.01759   0.15259   0.23584   0.00000  Uiso   1.00
O33    O     0.12797   0.23807   0.24633   0.00000  Uiso   1.00
O34    O     0.22858   0.24755   0.25587   0.00000  Uiso   1.00
O35    O     0.09181   0.15960   0.31839   0.00000  Uiso   1.00
O36    O     0.19242   0.16908   0.32793   0.00000  Uiso   1.00
O37    O     0.10476   0.08578   0.24414   0.00000  Uiso   1.00
O38    O     0.20536   0.09526   0.25367   0.00000  Uiso   1.00
O39    O     0.14092   0.16425   0.17207   0.00000  Uiso   1.00
O40    O     0.24152   0.17373   0.18161   0.00000  Uiso   1.00
H41    H     0.30952   0.23475   0.10378   0.00000  Uiso   1.00
H42    H     0.00364   0.20589   0.28971   0.00000  Uiso   1.00
N43    N     0.04302   0.15009   0.06427   0.00000  Uiso   1.00
H44    H     0.04089   0.11420   0.08004   0.00000  Uiso   1.00
H45    H     0.06597   0.18187   0.08388   0.00000  Uiso   1.00
N46    N     0.24609   0.01908   0.27181   0.00000  Uiso   1.00
H47    H     0.24873   0.00573   0.30713   0.00000  Uiso   1.00
H48    H     0.28508   0.01250   0.24431   0.00000  Uiso   1.00
C49    C     0.51476   0.26655   0.25267   0.00000  Uiso   1.00
C50    C     0.46940   0.17362   0.48994   0.00000  Uiso   1.00
C51    C     0.48636   0.18706   0.43715   0.00000  Uiso   1.00
C52    C     0.51756   0.18629   0.01923   0.00000  Uiso   1.00
C53    C     0.57523   0.22167   0.49965   0.00000  Uiso   1.00
C54    C     0.58647   0.24112   0.45047   0.00000  Uiso   1.00
C55    C     0.54326   0.22352   0.41937   0.00000  Uiso   1.00
C56    C     0.51162   0.16325   0.06640   0.00000  Uiso   1.00
C57    C     0.60959   0.21910   0.07948   0.00000  Uiso   1.00
C58    C     0.44505   0.16504   0.40385   0.00000  Uiso   1.00
C59    C     0.52303   0.32229   0.25712   0.00000  Uiso   1.00
C60    C     0.46638   0.16566   0.34739   0.00000  Uiso   1.00
C61    C     0.47775   0.01091   0.24823   0.00000  Uiso   1.00
C62    C     0.48493   0.06667   0.24909   0.00000  Uiso   1.00
C63    C     0.53397   0.17085   0.15287   0.00000  Uiso   1.00
C64    C     0.62091   0.23751   0.02977   0.00000  Uiso   1.00
C65    C     0.55447   0.18211   0.09805   0.00000  Uiso   1.00
C66    C     0.38370   0.13827   0.42467   0.00000  Uiso   1.00
C67    C     0.36340   0.13261   0.47735   0.00000  Uiso   1.00
C68    C     0.40475   0.14983   0.01051   0.00000  Uiso   1.00
Cu69   Cu    0.44043   0.16105   0.24435   0.00000  Uiso   1.00
Cu70   Cu    0.55957   0.17228   0.25565   0.00000  Uiso   1.00
H71    H     0.43467   0.32062   0.23878   0.00000  Uiso   1.00
H72    H     0.66302   0.12745   0.21029   0.00000  Uiso   1.00
H73    H     0.62958   0.26914   0.43547   0.00000  Uiso   1.00
H74    H     0.66442   0.26538   0.01546   0.00000  Uiso   1.00
H75    H     0.47341   0.13083   0.07985   0.00000  Uiso   1.00
H76    H     0.35088   0.12200   0.40015   0.00000  Uiso   1.00
H77    H     0.64785   0.11475   0.49276   0.00000  Uiso   1.00
H78    H     0.55413   0.24055   0.38183   0.00000  Uiso   1.00
N79    N     0.64908   0.18074   0.26416   0.00000  Uiso   1.00
N80    N     0.35092   0.15259   0.23584   0.00000  Uiso   1.00
O81    O     0.46131   0.23807   0.24633   0.00000  Uiso   1.00
O82    O     0.56191   0.24755   0.25587   0.00000  Uiso   1.00
O83    O     0.42515   0.15960   0.31839   0.00000  Uiso   1.00
O84    O     0.52575   0.16908   0.32793   0.00000  Uiso   1.00
O85    O     0.43809   0.08578   0.24414   0.00000  Uiso   1.00
O86    O     0.53869   0.09526   0.25367   0.00000  Uiso   1.00
O87    O     0.47425   0.16425   0.17207   0.00000  Uiso   1.00
O88    O     0.57485   0.17373   0.18161   0.00000  Uiso   1.00
H89    H     0.64285   0.23475   0.10378   0.00000  Uiso   1.00
H90    H     0.33697   0.20589   0.28971   0.00000  Uiso   1.00
N91    N     0.37635   0.15009   0.06427   0.00000  Uiso   1.00
H92    H     0.37423   0.11420   0.08004   0.00000  Uiso   1.00
H93    H     0.39931   0.18187   0.08388   0.00000  Uiso   1.00
N94    N     0.57942   0.01908   0.27181   0.00000  Uiso   1.00
H95    H     0.58206   0.00573   0.30713   0.00000  Uiso   1.00
H96    H     0.61842   0.01250   0.24431   0.00000  Uiso   1.00
C97    C     0.84809   0.26655   0.25267   0.00000  Uiso   1.00
C98    C     0.80273   0.17362   0.48994   0.00000  Uiso   1.00
C99    C     0.81970   0.18706   0.43715   0.00000  Uiso   1.00
C100   C     0.85090   0.18629   0.01923   0.00000  Uiso   1.00
C101   C     0.90856   0.22167   0.49965   0.00000  Uiso   1.00
C102   C     0.91981   0.24112   0.45047   0.00000  Uiso   1.00
C103   C     0.87659   0.22352   0.41937   0.00000  Uiso   1.00
C104   C     0.84495   0.16325   0.06640   0.00000  Uiso   1.00
C105   C     0.94292   0.21910   0.07948   0.00000  Uiso   1.00
C106   C     0.77838   0.16504   0.40385   0.00000  Uiso   1.00
C107   C     0.85636   0.32229   0.25712   0.00000  Uiso   1.00
C108   C     0.79971   0.16566   0.34739   0.00000  Uiso   1.00
C109   C     0.81108   0.01091   0.24823   0.00000  Uiso   1.00
C110   C     0.81827   0.06667   0.24909   0.00000  Uiso   1.00
C111   C     0.86730   0.17085   0.15287   0.00000  Uiso   1.00
C112   C     0.95424   0.23751   0.02977   0.00000  Uiso   1.00
C113   C     0.88780   0.18211   0.09805   0.00000  Uiso   1.00
C114   C     0.71703   0.13827   0.42467   0.00000  Uiso   1.00
C115   C     0.69673   0.13261   0.47735   0.00000  Uiso   1.00
C116   C     0.73809   0.14983   0.01051   0.00000  Uiso   1.00
Cu117  Cu    0.77377   0.16105   0.24435   0.00000  Uiso   1.00
Cu118  Cu    0.89290   0.17228   0.25565   0.00000  Uiso   1.00
H119   H     0.76800   0.32062   0.23878   0.00000  Uiso   1.00
H120   H     0.99635   0.12745   0.21029   0.00000  Uiso   1.00
H121   H     0.96292   0.26914   0.43547   0.00000  Uiso   1.00
H122   H     0.99775   0.26538   0.01546   0.00000  Uiso   1.00
H123   H     0.80674   0.13083   0.07985   0.00000  Uiso   1.00
H124   H     0.68421   0.12200   0.40015   0.00000  Uiso   1.00
H125   H     0.98119   0.11475   0.49276   0.00000  Uiso   1.00
H126   H     0.88746   0.24055   0.38183   0.00000  Uiso   1.00
N127   N     0.98241   0.18074   0.26416   0.00000  Uiso   1.00
N128   N     0.68426   0.15259   0.23584   0.00000  Uiso   1.00
O129   O     0.79464   0.23807   0.24633   0.00000  Uiso   1.00
O130   O     0.89524   0.24755   0.25587   0.00000  Uiso   1.00
O131   O     0.75848   0.15960   0.31839   0.00000  Uiso   1.00
O132   O     0.85908   0.16908   0.32793   0.00000  Uiso   1.00
O133   O     0.77142   0.08578   0.24414   0.00000  Uiso   1.00
O134   O     0.87203   0.09526   0.25367   0.00000  Uiso   1.00
O135   O     0.80758   0.16425   0.17207   0.00000  Uiso   1.00
O136   O     0.90819   0.17373   0.18161   0.00000  Uiso   1.00
H137   H     0.97619   0.23475   0.10378   0.00000  Uiso   1.00
H138   H     0.67030   0.20589   0.28971   0.00000  Uiso   1.00
N139   N     0.70969   0.15009   0.06427   0.00000  Uiso   1.00
H140   H     0.70756   0.11420   0.08004   0.00000  Uiso   1.00
H141   H     0.73264   0.18187   0.08388   0.00000  Uiso   1.00
N142   N     0.91275   0.01908   0.27181   0.00000  Uiso   1.00
H143   H     0.91540   0.00573   0.30713   0.00000  Uiso   1.00
H144   H     0.95175   0.01250   0.24431   0.00000  Uiso   1.00
C145   C     0.18142   0.59988   0.25267   0.00000  Uiso   1.00
C146   C     0.13606   0.50695   0.48994   0.00000  Uiso   1.00
C147   C     0.15303   0.52039   0.43715   0.00000  Uiso   1.00
C148   C     0.18423   0.51962   0.01923   0.00000  Uiso   1.00
C149   C     0.24190   0.55500   0.49965   0.00000  Uiso   1.00
C150   C     0.25314   0.57445   0.45047   0.00000  Uiso   1.00
C151   C     0.20992   0.55686   0.41937   0.00000  Uiso   1.00
C152   C     0.17828   0.49658   0.06640   0.00000  Uiso   1.00
C153   C     0.27625   0.55243   0.07948   0.00000  Uiso   1.00
C154   C     0.11171   0.49837   0.40385   0.00000  Uiso   1.00
C155   C     0.18969   0.65562   0.25712   0.00000  Uiso   1.00
C156   C     0.13304   0.49900   0.34739   0.00000  Uiso   1.00
C157   C     0.14441   0.34424   0.24823   0.00000  Uiso   1.00
C158   C     0.15160   0.40001   0.24909   0.00000  Uiso   1.00
C159   C     0.20064   0.50418   0.15287   0.00000  Uiso   1.00
C160   C     0.28758   0.57084   0.02977   0.00000  Uiso   1.00
C161   C     0.22114   0.51544   0.09805   0.00000  Uiso   1.00
C162   C     0.05037   0.47161   0.42467   0.00000  Uiso   1.00
C163   C     0.03006   0.46595   0.47735   0.00000  Uiso   1.00
C164   C     0.07142   0.48316   0.01051   0.00000  Uiso   1.00
Cu165  Cu    0.10710   0.49439   0.24435   0.00000  Uiso   1.00
Cu166  Cu    0.22623   0.50561   0.25565   0.00000  Uiso   1.00
H167   H     0.10134   0.65395   0.23878   0.00000  Uiso   1.00
H168   H     0.32969   0.46078   0.21029   0.00000  Uiso   1.00
H169   H     0.29625   0.60248   0.43547   0.00000  Uiso   1.00
H170   H     0.33108   0.59871   0.01546   0.00000  Uiso   1.00
H171   H     0.14007   0.46416   0.07985   0.00000  Uiso   1.00
H172   H     0.01755   0.45534   0.40015   0.00000  Uiso   1.00
H173   H     0.31452   0.44808   0.49276   0.00000  Uiso   1.00
H174   H     0.22080   0.57389   0.38183   0.00000  Uiso   1.00
N175   N     0.31574   0.51407   0.26416   0.00000  Uiso   1.00
N176   N     0.01759   0.48593   0.23584   0.00000  Uiso   1.00
O177   O     0.12797   0.57141   0.24633   0.00000  Uiso   1.00
O178   O     0.22858   0.58089   0.25587   0.00000  Uiso   1.00
O179   O     0.09181   0.49293   0.31839   0.00000  Uiso   1.00
O180   O     0.19242   0.50241   0.32793   0.00000  Uiso   1.00
O181   O     0.10476   0.41911   0.24414   0.00000  Uiso   1.00
O182   O     0.20536   0.42859   0.25367   0.00000  Uiso   1.00
O183   O     0.14092   0.49759   0.17207   0.00000  Uiso   1.00
O184   O     0.24152   0.50707   0.18161   0.00000  Uiso   1.00
H185   H     0.30952   0.56808   0.10378   0.00000  Uiso   1.00
H186   H     0.00364   0.53922   0.28971   0.00000  Uiso   1.00
N187   N     0.04302   0.48342   0.06427   0.00000  Uiso   1.00
H188   H     0.04089   0.44753   0.08004   0.00000  Uiso   1.00
H189   H     0.06597   0.51520   0.08388   0.00000  Uiso   1.00
N190   N     0.24609   0.35241   0.27181   0.00000  Uiso   1.00
H191   H     0.24873   0.33906   0.30713   0.00000  Uiso   1.00
H192   H     0.28508   0.34584   0.24431   0.00000  Uiso   1.00
C193   C     0.51476   0.59988   0.25267   0.00000  Uiso   1.00
C194   C     0.46940   0.50695   0.48994   0.00000  Uiso   1.00
C195   C     0.48636   0.52039   0.43715   0.00000  Uiso   1.00
C196   C     0.51756   0.51962   0.01923   0.00000  Uiso   1.00
C197   C     0.57523   0.55500   0.49965   0.00000  Uiso   1.00
C198   C     0.58647   0.57445   0.45047   0.00000  Uiso   1.00
C199   C     0.54326   0.55686   0.41937   0.00000  Uiso   1.00
C200   C     0.51162   0.49658   0.06640   0.00000  Uiso   1.00
C201   C     0.60959   0.55243   0.07948   0.00000  Uiso   1.00
C202   C     0.44505   0.49837   0.40385   0.00000  Uiso   1.00
C203   C     0.52303   0.65562   0.25712   0.00000  Uiso   1.00
C204   C     0.46638   0.49900   0.34739   0.00000  Uiso   1.00
C205   C     0.47775   0.34424   0.24823   0.00000  Uiso   1.00
C206   C     0.48493   0.40001   0.24909   0.00000  Uiso   1.00
C207   C     0.53397   0.50418   0.15287   0.00000  Uiso   1.00
C208   C     0.62091   0.57084   0.02977   0.00000  Uiso   1.00
C209   C     0.55447   0.51544   0.09805   0.00000  Uiso   1.00
C210   C     0.38370   0.47161   0.42467   0.00000  Uiso   1.00
C211   C     0.36340   0.46595   0.47735   0.00000  Uiso   1.00
C212   C     0.40475   0.48316   0.01051   0.00000  Uiso   1.00
Cu213  Cu    0.44043   0.49439   0.24435   0.00000  Uiso   1.00
Cu214  Cu    0.55957   0.50561   0.25565   0.00000  Uiso   1.00
H215   H     0.43467   0.65395   0.23878   0.00000  Uiso   1.00
H216   H     0.66302   0.46078   0.21029   0.00000  Uiso   1.00
H217   H     0.62958   0.60248   0.43547   0.00000  Uiso   1.00
H218   H     0.66442   0.59871   0.01546   0.00000  Uiso   1.00
H219   H     0.47341   0.46416   0.07985   0.00000  Uiso   1.00
H220   H     0.35088   0.45534   0.40015   0.00000  Uiso   1.00
H221   H     0.64785   0.44808   0.49276   0.00000  Uiso   1.00
H222   H     0.55413   0.57389   0.38183   0.00000  Uiso   1.00
N223   N     0.64908   0.51407   0.26416   0.00000  Uiso   1.00
N224   N     0.35092   0.48593   0.23584   0.00000  Uiso   1.00
O225   O     0.46131   0.57141   0.24633   0.00000  Uiso   1.00
O226   O     0.56191   0.58089   0.25587   0.00000  Uiso   1.00
O227   O     0.42515   0.49293   0.31839   0.00000  Uiso   1.00
O228   O     0.52575   0.50241   0.32793   0.00000  Uiso   1.00
O229   O     0.43809   0.41911   0.24414   0.00000  Uiso   1.00
O230   O     0.53869   0.42859   0.25367   0.00000  Uiso   1.00
O231   O     0.47425   0.49759   0.17207   0.00000  Uiso   1.00
O232   O     0.57485   0.50707   0.18161   0.00000  Uiso   1.00
H233   H     0.64285   0.56808   0.10378   0.00000  Uiso   1.00
H234   H     0.33697   0.53922   0.28971   0.00000  Uiso   1.00
N235   N     0.37635   0.48342   0.06427   0.00000  Uiso   1.00
H236   H     0.37423   0.44753   0.08004   0.00000  Uiso   1.00
H237   H     0.39931   0.51520   0.08388   0.00000  Uiso   1.00
N238   N     0.57942   0.35241   0.27181   0.00000  Uiso   1.00
H239   H     0.58206   0.33906   0.30713   0.00000  Uiso   1.00
H240   H     0.61842   0.34584   0.24431   0.00000  Uiso   1.00
C241   C     0.84809   0.59988   0.25267   0.00000  Uiso   1.00
C242   C     0.80273   0.50695   0.48994   0.00000  Uiso   1.00
C243   C     0.81970   0.52039   0.43715   0.00000  Uiso   1.00
C244   C     0.85090   0.51962   0.01923   0.00000  Uiso   1.00
C245   C     0.90856   0.55500   0.49965   0.00000  Uiso   1.00
C246   C     0.91981   0.57445   0.45047   0.00000  Uiso   1.00
C247   C     0.87659   0.55686   0.41937   0.00000  Uiso   1.00
C248   C     0.84495   0.49658   0.06640   0.00000  Uiso   1.00
C249   C     0.94292   0.55243   0.07948   0.00000  Uiso   1.00
C250   C     0.77838   0.49837   0.40385   0.00000  Uiso   1.00
C251   C     0.85636   0.65562   0.25712   0.00000  Uiso   1.00
C252   C     0.79971   0.49900   0.34739   0.00000  Uiso   1.00
C253   C     0.81108   0.34424   0.24823   0.00000  Uiso   1.00
C254   C     0.81827   0.40001   0.24909   0.00000  Uiso   1.00
C255   C     0.86730   0.50418   0.15287   0.00000  Uiso   1.00
C256   C     0.95424   0.57084   0.02977   0.00000  Uiso   1.00
C257   C     0.88780   0.51544   0.09805   0.00000  Uiso   1.00
C258   C     0.71703   0.47161   0.42467   0.00000  Uiso   1.00
C259   C     0.69673   0.46595   0.47735   0.00000  Uiso   1.00
C260   C     0.73809   0.48316   0.01051   0.00000  Uiso   1.00
Cu261  Cu    0.77377   0.49439   0.24435   0.00000  Uiso   1.00
Cu262  Cu    0.89290   0.50561   0.25565   0.00000  Uiso   1.00
H263   H     0.76800   0.65395   0.23878   0.00000  Uiso   1.00
H264   H     0.99635   0.46078   0.21029   0.00000  Uiso   1.00
H265   H     0.96292   0.60248   0.43547   0.00000  Uiso   1.00
H266   H     0.99775   0.59871   0.01546   0.00000  Uiso   1.00
H267   H     0.80674   0.46416   0.07985   0.00000  Uiso   1.00
H268   H     0.68421   0.45534   0.40015   0.00000  Uiso   1.00
H269   H     0.98119   0.44808   0.49276   0.00000  Uiso   1.00
H270   H     0.88746   0.57389   0.38183   0.00000  Uiso   1.00
N271   N     0.98241   0.51407   0.26416   0.00000  Uiso   1.00
N272   N     0.68426   0.48593   0.23584   0.00000  Uiso   1.00
O273   O     0.79464   0.57141   0.24633   0.00000  Uiso   1.00
O274   O     0.89524   0.58089   0.25587   0.00000  Uiso   1.00
O275   O     0.75848   0.49293   0.31839   0.00000  Uiso   1.00
O276   O     0.85908   0.50241   0.32793   0.00000  Uiso   1.00
O277   O     0.77142   0.41911   0.24414   0.00000  Uiso   1.00
O278   O     0.87203   0.42859   0.25367   0.00000  Uiso   1.00
O279   O     0.80758   0.49759   0.17207   0.00000  Uiso   1.00
O280   O     0.90819   0.50707   0.18161   0.00000  Uiso   1.00
H281   H     0.97619   0.56808   0.10378   0.00000  Uiso   1.00
H282   H     0.67030   0.53922   0.28971   0.00000  Uiso   1.00
N283   N     0.70969   0.48342   0.06427   0.00000  Uiso   1.00
H284   H     0.70756   0.44753   0.08004   0.00000  Uiso   1.00
H285   H     0.73264   0.51520   0.08388   0.00000  Uiso   1.00
N286   N     0.91275   0.35241   0.27181   0.00000  Uiso   1.00
H287   H     0.91540   0.33906   0.30713   0.00000  Uiso   1.00
H288   H     0.95175   0.34584   0.24431   0.00000  Uiso   1.00
C289   C     0.18142   0.93321   0.25267   0.00000  Uiso   1.00
C290   C     0.13606   0.84028   0.48994   0.00000  Uiso   1.00
C291   C     0.15303   0.85373   0.43715   0.00000  Uiso   1.00
C292   C     0.18423   0.85296   0.01923   0.00000  Uiso   1.00
C293   C     0.24190   0.88833   0.49965   0.00000  Uiso   1.00
C294   C     0.25314   0.90778   0.45047   0.00000  Uiso   1.00
C295   C     0.20992   0.89019   0.41937   0.00000  Uiso   1.00
C296   C     0.17828   0.82992   0.06640   0.00000  Uiso   1.00
C297   C     0.27625   0.88576   0.07948   0.00000  Uiso   1.00
C298   C     0.11171   0.83170   0.40385   0.00000  Uiso   1.00
C299   C     0.18969   0.98896   0.25712   0.00000  Uiso   1.00
C300   C     0.13304   0.83233   0.34739   0.00000  Uiso   1.00
C301   C     0.14441   0.67757   0.24823   0.00000  Uiso   1.00
C302   C     0.15160   0.73334   0.24909   0.00000  Uiso   1.00
C303   C     0.20064   0.83751   0.15287   0.00000  Uiso   1.00
C304   C     0.28758   0.90417   0.02977   0.00000  Uiso   1.00
C305   C     0.22114   0.84878   0.09805   0.00000  Uiso   1.00
C306   C     0.05037   0.80494   0.42467   0.00000  Uiso   1.00
C307   C     0.03006   0.79928   0.47735   0.00000  Uiso   1.00
C308   C     0.07142   0.81649   0.01051   0.00000  Uiso   1.00
Cu309  Cu    0.10710   0.82772   0.24435   0.00000  Uiso   1.00
Cu310  Cu    0.22623   0.83895   0.25565   0.00000  Uiso   1.00
H311   H     0.10134   0.98728   0.23878   0.00000  Uiso   1.00
H312   H     0.32969   0.79411   0.21029   0.00000  Uiso   1.00
H313   H     0.29625   0.93581   0.43547   0.00000  Uiso   1.00
H314   H     0.33108   0.93204   0.01546   0.00000  Uiso   1.00
H315   H     0.14007   0.79750   0.07985   0.00000  Uiso   1.00
H316   H     0.01755   0.78867   0.40015   0.00000  Uiso   1.00
H317   H     0.31452   0.78141   0.49276   0.00000  Uiso   1.00
H318   H     0.22080   0.90722   0.38183   0.00000  Uiso   1.00
N319   N     0.31574   0.84741   0.26416   0.00000  Uiso   1.00
N320   N     0.01759   0.81926   0.23584   0.00000  Uiso   1.00
O321   O     0.12797   0.90474   0.24633   0.00000  Uiso   1.00
O322   O     0.22858   0.91422   0.25587   0.00000  Uiso   1.00
O323   O     0.09181   0.82627   0.31839   0.00000  Uiso   1.00
O324   O     0.19242   0.83575   0.32793   0.00000  Uiso   1.00
O325   O     0.10476   0.75245   0.24414   0.00000  Uiso   1.00
O326   O     0.20536   0.76193   0.25367   0.00000  Uiso   1.00
O327   O     0.14092   0.83092   0.17207   0.00000  Uiso   1.00
O328   O     0.24152   0.84040   0.18161   0.00000  Uiso   1.00
H329   H     0.30952   0.90141   0.10378   0.00000  Uiso   1.00
H330   H     0.00364   0.87255   0.28971   0.00000  Uiso   1.00
N331   N     0.04302   0.81675   0.06427   0.00000  Uiso   1.00
H332   H     0.04089   0.78086   0.08004   0.00000  Uiso   1.00
H333   H     0.06597   0.84854   0.08388   0.00000  Uiso   1.00
N334   N     0.24609   0.68575   0.27181   0.00000  Uiso   1.00
H335   H     0.24873   0.67239   0.30713   0.00000  Uiso   1.00
H336   H     0.28508   0.67917   0.24431   0.00000  Uiso   1.00
C337   C     0.51476   0.93321   0.25267   0.00000  Uiso   1.00
C338   C     0.46940   0.84028   0.48994   0.00000  Uiso   1.00
C339   C     0.48636   0.85373   0.43715   0.00000  Uiso   1.00
C340   C     0.51756   0.85296   0.01923   0.00000  Uiso   1.00
C341   C     0.57523   0.88833   0.49965   0.00000  Uiso   1.00
C342   C     0.58647   0.90778   0.45047   0.00000  Uiso   1.00
C343   C     0.54326   0.89019   0.41937   0.00000  Uiso   1.00
C344   C     0.51162   0.82992   0.06640   0.00000  Uiso   1.00
C345   C     0.60959   0.88576   0.07948   0.00000  Uiso   1.00
C346   C     0.44505   0.83170   0.40385   0.00000  Uiso   1.00
C347   C     0.52303   0.98896   0.25712   0.00000  Uiso   1.00
C348   C     0.46638   0.83233   0.34739   0.00000  Uiso   1.00
C349   C     0.47775   0.67757   0.24823   0.00000  Uiso   1.00
C350   C     0.48493   0.73334   0.24909   0.00000  Uiso   1.00
C351   C     0.53397   0.83751   0.15287   0.00000  Uiso   1.00
C352   C     0.62091   0.90417   0.02977   0.00000  Uiso   1.00
C353   C     0.55447   0.84878   0.09805   0.00000  Uiso   1.00
C354   C     0.38370   0.80494   0.42467   0.00000  Uiso   1.00
C355   C     0.36340   0.79928   0.47735   0.00000  Uiso   1.00
C356   C     0.40475   0.81649   0.01051   0.00000  Uiso   1.00
Cu357  Cu    0.44043   0.82772   0.24435   0.00000  Uiso   1.00
Cu358  Cu    0.55957   0.83895   0.25565   0.00000  Uiso   1.00
H359   H     0.43467   0.98728   0.23878   0.00000  Uiso   1.00
H360   H     0.66302   0.79411   0.21029   0.00000  Uiso   1.00
H361   H     0.62958   0.93581   0.43547   0.00000  Uiso   1.00
H362   H     0.66442   0.93204   0.01546   0.00000  Uiso   1.00
H363   H     0.47341   0.79750   0.07985   0.00000  Uiso   1.00
H364   H     0.35088   0.78867   0.40015   0.00000  Uiso   1.00
H365   H     0.64785   0.78141   0.49276   0.00000  Uiso   1.00
H366   H     0.55413   0.90722   0.38183   0.00000  Uiso   1.00
N367   N     0.64908   0.84741   0.26416   0.00000  Uiso   1.00
N368   N     0.35092   0.81926   0.23584   0.00000  Uiso   1.00
O369   O     0.46131   0.90474   0.24633   0.00000  Uiso   1.00
O370   O     0.56191   0.91422   0.25587   0.00000  Uiso   1.00
O371   O     0.42515   0.82627   0.31839   0.00000  Uiso   1.00
O372   O     0.52575   0.83575   0.32793   0.00000  Uiso   1.00
O373   O     0.43809   0.75245   0.24414   0.00000  Uiso   1.00
O374   O     0.53869   0.76193   0.25367   0.00000  Uiso   1.00
O375   O     0.47425   0.83092   0.17207   0.00000  Uiso   1.00
O376   O     0.57485   0.84040   0.18161   0.00000  Uiso   1.00
H377   H     0.64285   0.90141   0.10378   0.00000  Uiso   1.00
H378   H     0.33697   0.87255   0.28971   0.00000  Uiso   1.00
N379   N     0.37635   0.81675   0.06427   0.00000  Uiso   1.00
H380   H     0.37423   0.78086   0.08004   0.00000  Uiso   1.00
H381   H     0.39931   0.84854   0.08388   0.00000  Uiso   1.00
N382   N     0.57942   0.68575   0.27181   0.00000  Uiso   1.00
H383   H     0.58206   0.67239   0.30713   0.00000  Uiso   1.00
H384   H     0.61842   0.67917   0.24431   0.00000  Uiso   1.00
C385   C     0.84809   0.93321   0.25267   0.00000  Uiso   1.00
C386   C     0.80273   0.84028   0.48994   0.00000  Uiso   1.00
C387   C     0.81970   0.85373   0.43715   0.00000  Uiso   1.00
C388   C     0.85090   0.85296   0.01923   0.00000  Uiso   1.00
C389   C     0.90856   0.88833   0.49965   0.00000  Uiso   1.00
C390   C     0.91981   0.90778   0.45047   0.00000  Uiso   1.00
C391   C     0.87659   0.89019   0.41937   0.00000  Uiso   1.00
C392   C     0.84495   0.82992   0.06640   0.00000  Uiso   1.00
C393   C     0.94292   0.88576   0.07948   0.00000  Uiso   1.00
C394   C     0.77838   0.83170   0.40385   0.00000  Uiso   1.00
C395   C     0.85636   0.98896   0.25712   0.00000  Uiso   1.00
C396   C     0.79971   0.83233   0.34739   0.00000  Uiso   1.00
C397   C     0.81108   0.67757   0.24823   0.00000  Uiso   1.00
C398   C     0.81827   0.73334   0.24909   0.00000  Uiso   1.00
C399   C     0.86730   0.83751   0.15287   0.00000  Uiso   1.00
C400   C     0.95424   0.90417   0.02977   0.00000  Uiso   1.00
C401   C     0.88780   0.84878   0.09805   0.00000  Uiso   1.00
C402   C     0.71703   0.80494   0.42467   0.00000  Uiso   1.00
C403   C     0.69673   0.79928   0.47735   0.00000  Uiso   1.00
C404   C     0.73809   0.81649   0.01051   0.00000  Uiso   1.00
Cu405  Cu    0.77377   0.82772   0.24435   0.00000  Uiso   1.00
Cu406  Cu    0.89290   0.83895   0.25565   0.00000  Uiso   1.00
H407   H     0.76800   0.98728   0.23878   0.00000  Uiso   1.00
H408   H     0.99635   0.79411   0.21029   0.00000  Uiso   1.00
H409   H     0.96292   0.93581   0.43547   0.00000  Uiso   1.00
H410   H     0.99775   0.93204   0.01546   0.00000  Uiso   1.00
H411   H     0.80674   0.79750   0.07985   0.00000  Uiso   1.00
H412   H     0.68421   0.78867   0.40015   0.00000  Uiso   1.00
H413   H     0.98119   0.78141   0.49276   0.00000  Uiso   1.00
H414   H     0.88746   0.90722   0.38183   0.00000  Uiso   1.00
N415   N     0.98241   0.84741   0.26416   0.00000  Uiso   1.00
N416   N     0.68426   0.81926   0.23584   0.00000  Uiso   1.00
O417   O     0.79464   0.90474   0.24633   0.00000  Uiso   1.00
O418   O     0.89524   0.91422   0.25587   0.00000  Uiso   1.00
O419   O     0.75848   0.82627   0.31839   0.00000  Uiso   1.00
O420   O     0.85908   0.83575   0.32793   0.00000  Uiso   1.00
O421   O     0.77142   0.75245   0.24414   0.00000  Uiso   1.00
O422   O     0.87203   0.76193   0.25367   0.00000  Uiso   1.00
O423   O     0.80758   0.83092   0.17207   0.00000  Uiso   1.00
O424   O     0.90819   0.84040   0.18161   0.00000  Uiso   1.00
H425   H     0.97619   0.90141   0.10378   0.00000  Uiso   1.00
H426   H     0.67030   0.87255   0.28971   0.00000  Uiso   1.00
N427   N     0.70969   0.81675   0.06427   0.00000  Uiso   1.00
H428   H     0.70756   0.78086   0.08004   0.00000  Uiso   1.00
H429   H     0.73264   0.84854   0.08388   0.00000  Uiso   1.00
N430   N     0.91275   0.68575   0.27181   0.00000  Uiso   1.00
H431   H     0.91540   0.67239   0.30713   0.00000  Uiso   1.00
H432   H     0.95175   0.67917   0.24431   0.00000  Uiso   1.00
C433   C     0.18142   0.26655   0.75267   0.00000  Uiso   1.00
C434   C     0.13606   0.17362   0.98994   0.00000  Uiso   1.00
C435   C     0.15303   0.18706   0.93715   0.00000  Uiso   1.00
C436   C     0.18423   0.18629   0.51923   0.00000  Uiso   1.00
C437   C     0.24190   0.22167   0.99965   0.00000  Uiso   1.00
C438   C     0.25314   0.24112   0.95047   0.00000  Uiso   1.00
C439   C     0.20992   0.22352   0.91937   0.00000  Uiso   1.00
C440   C     0.17828   0.16325   0.56640   0.00000  Uiso   1.00
C441   C     0.27625   0.21910   0.57948   0.00000  Uiso   1.00
C442   C     0.11171   0.16504   0.90385   0.00000  Uiso   1.00
C443   C     0.18969   0.32229   0.75712   0.00000  Uiso   1.00
C444   C     0.13304   0.16566   0.84739   0.00000  Uiso   1.00
C445   C     0.14441   0.01091   0.74823   0.00000  Uiso   1.00
C446   C     0.15160   0.06667   0.74909   0.00000  Uiso   1.00
C447   C     0.20064   0.17085   0.65287   0.00000  Uiso   1.00
C448   C     0.28758   0.23751   0.52977   0.00000  Uiso   1.00
C449   C     0.22114   0.18211   0.59805   0.00000  Uiso   1.00
C450   C     0.05037   0.13827   0.92467   0.00000  Uiso   1.00
C451   C     0.03006   0.13261   0.97735   0.00000  Uiso   1.00
C452   C     0.07142   0.14983   0.51051   0.00000  Uiso   1.00
Cu453  Cu    0.10710   0.16105   0.74435   0.00000  Uiso   1.00
Cu454  Cu    0.22623   0.17228   0.75565   0.00000  Uiso   1.00
H455   H     0.10134   0.32062   0.73878   0.00000  Uiso   1.00
H456   H     0.32969   0.12745   0.71029   0.00000  Uiso   1.00
H457   H     0.29625   0.26914   0.93547   0.00000  Uiso   1.00
H458   H     0.33108   0.26538   0.51546   0.00000  Uiso   1.00
H459   H     0.14007   0.13083   0.57985   0.00000  Uiso   1.00
H460   H     0.01755   0.12200   0.90015   0.00000  Uiso   1.00
H461   H     0.31452   0.11475   0.99276   0.00000  Uiso   1.00
H462   H     0.22080   0.24055   0.88183   0.00000  Uiso   1.00
N463   N     0.31574   0.18074   0.76416   0.00000  Uiso   1.00
N464   N     0.01759   0.15259   0.73584   0.00000  Uiso   1.00
O465   O     0.12797   0.23807   0.74633   0.00000  Uiso   1.00
O466   O     0.22858   0.24755   0.75587   0.00000  Uiso   1.00
O467   O     0.09181   0.15960   0.81839   0.00000  Uiso   1.00
O468   O     0.19242   0.16908   0.82793   0.00000  Uiso   1.00
O469   O     0.10476   0.08578   0.74414   0.00000  Uiso   1.00
O470   O     0.20536   0.09526   0.75367   0.00000  Uiso   1.00
O471   O     0.14092   0.16425   0.67207   0.00000  Uiso   1.00
O472   O     0.24152   0.17373   0.68161   0.00000  Uiso   1.00
H473   H     0.30952   0.23475   0.60378   0.00000  Uiso   1.00
H474   H     0.00364   0.20589   0.78971   0.00000  Uiso   1.00
N475   N     0.04302   0.15009   0.56427   0.00000  Uiso   1.00
H476   H     0.04089   0.11420   0.58004   0.00000  Uiso   1.00
H477   H     0.06597   0.18187   0.58388   0.00000  Uiso   1.00
N478   N     0.24609   0.01908   0.77181   0.00000  Uiso   1.00
H479   H     0.24873   0.00573   0.80713   0.00000  Uiso   1.00
H480   H     0.28508   0.01250   0.74431   0.00000  Uiso   1.00
C481   C     0.51476   0.26655   0.75267   0.00000  Uiso   1.00
C482   C     0.46940   0.17362   0.98994   0.00000  Uiso   1.00
C483   C     0.48636   0.18706   0.93715   0.00000  Uiso   1.00
C484   C     0.51756   0.18629   0.51923   0.00000  Uiso   1.00
C485   C     0.57523   0.22167   0.99965   0.00000  Uiso   1.00
C486   C     0.58647   0.24112   0.95047   0.00000  Uiso   1.00
C487   C     0.54326   0.22352   0.91937   0.00000  Uiso   1.00
C488   C     0.51162   0.16325   0.56640   0.00000  Uiso   1.00
C489   C     0.60959   0.21910   0.57948   0.00000  Uiso   1.00
C490   C     0.44505   0.16504   0.90385   0.00000  Uiso   1.00
C491   C     0.52303   0.32229   0.75712   0.00000  Uiso   1.00
C492   C     0.46638   0.16566   0.84739   0.00000  Uiso   1.00
C493   C     0.47775   0.01091   0.74823   0.00000  Uiso   1.00
C494   C     0.48493   0.06667   0.74909   0.00000  Uiso   1.00
C495   C     0.53397   0.17085   0.65287   0.00000  Uiso   1.00
C496   C     0.62091   0.23751   0.52977   0.00000  Uiso   1.00
C497   C     0.55447   0.18211   0.59805   0.00000  Uiso   1.00
C498   C     0.38370   0.13827   0.92467   0.00000  Uiso   1.00
C499   C     0.36340   0.13261   0.97735   0.00000  Uiso   1.00
C500   C     0.40475   0.14983   0.51051   0.00000  Uiso   1.00
Cu501  Cu    0.44043   0.16105   0.74435   0.00000  Uiso   1.00
Cu502  Cu    0.55957   0.17228   0.75565   0.00000  Uiso   1.00
H503   H     0.43467   0.32062   0.73878   0.00000  Uiso   1.00
H504   H     0.66302   0.12745   0.71029   0.00000  Uiso   1.00
H505   H     0.62958   0.26914   0.93547   0.00000  Uiso   1.00
H506   H     0.66442   0.26538   0.51546   0.00000  Uiso   1.00
H507   H     0.47341   0.13083   0.57985   0.00000  Uiso   1.00
H508   H     0.35088   0.12200   0.90015   0.00000  Uiso   1.00
H509   H     0.64785   0.11475   0.99276   0.00000  Uiso   1.00
H510   H     0.55413   0.24055   0.88183   0.00000  Uiso   1.00
N511   N     0.64908   0.18074   0.76416   0.00000  Uiso   1.00
N512   N     0.35092   0.15259   0.73584   0.00000  Uiso   1.00
O513   O     0.46131   0.23807   0.74633   0.00000  Uiso   1.00
O514   O     0.56191   0.24755   0.75587   0.00000  Uiso   1.00
O515   O     0.42515   0.15960   0.81839   0.00000  Uiso   1.00
O516   O     0.52575   0.16908   0.82793   0.00000  Uiso   1.00
O517   O     0.43809   0.08578   0.74414   0.00000  Uiso   1.00
O518   O     0.53869   0.09526   0.75367   0.00000  Uiso   1.00
O519   O     0.47425   0.16425   0.67207   0.00000  Uiso   1.00
O520   O     0.57485   0.17373   0.68161   0.00000  Uiso   1.00
H521   H     0.64285   0.23475   0.60378   0.00000  Uiso   1.00
H522   H     0.33697   0.20589   0.78971   0.00000  Uiso   1.00
N523   N     0.37635   0.15009   0.56427   0.00000  Uiso   1.00
H524   H     0.37423   0.11420   0.58004   0.00000  Uiso   1.00
H525   H     0.39931   0.18187   0.58388   0.00000  Uiso   1.00
N526   N     0.57942   0.01908   0.77181   0.00000  Uiso   1.00
H527   H     0.58206   0.00573   0.80713   0.00000  Uiso   1.00
H528   H     0.61842   0.01250   0.74431   0.00000  Uiso   1.00
C529   C     0.84809   0.26655   0.75267   0.00000  Uiso   1.00
C530   C     0.80273   0.17362   0.98994   0.00000  Uiso   1.00
C531   C     0.81970   0.18706   0.93715   0.00000  Uiso   1.00
C532   C     0.85090   0.18629   0.51923   0.00000  Uiso   1.00
C533   C     0.90856   0.22167   0.99965   0.00000  Uiso   1.00
C534   C     0.91981   0.24112   0.95047   0.00000  Uiso   1.00
C535   C     0.87659   0.22352   0.91937   0.00000  Uiso   1.00
C536   C     0.84495   0.16325   0.56640   0.00000  Uiso   1.00
C537   C     0.94292   0.21910   0.57948   0.00000  Uiso   1.00
C538   C     0.77838   0.16504   0.90385   0.00000  Uiso   1.00
C539   C     0.85636   0.32229   0.75712   0.00000  Uiso   1.00
C540   C     0.79971   0.16566   0.84739   0.00000  Uiso   1.00
C541   C     0.81108   0.01091   0.74823   0.00000  Uiso   1.00
C542   C     0.81827   0.06667   0.74909   0.00000  Uiso   1.00
C543   C     0.86730   0.17085   0.65287   0.00000  Uiso   1.00
C544   C     0.95424   0.23751   0.52977   0.00000  Uiso   1.00
C545   C     0.88780   0.18211   0.59805   0.00000  Uiso   1.00
C546   C     0.71703   0.13827   0.92467   0.00000  Uiso   1.00
C547   C     0.69673   0.13261   0.97735   0.00000  Uiso   1.00
C548   C     0.73809   0.14983   0.51051   0.00000  Uiso   1.00
Cu549  Cu    0.77377   0.16105   0.74435   0.00000  Uiso   1.00
Cu550  Cu    0.89290   0.17228   0.75565   0.00000  Uiso   1.00
H551   H     0.76800   0.32062   0.73878   0.00000  Uiso   1.00
H552   H     0.99635   0.12745   0.71029   0.00000  Uiso   1.00
H553   H     0.96292   0.26914   0.93547   0.00000  Uiso   1.00
H554   H     0.99775   0.26538   0.51546   0.00000  Uiso   1.00
H555   H     0.80674   0.13083   0.57985   0.00000  Uiso   1.00
H556   H     0.68421   0.12200   0.90015   0.00000  Uiso   1.00
H557   H     0.98119   0.11475   0.99276   0.00000  Uiso   1.00
H558   H     0.88746   0.24055   0.88183   0.00000  Uiso   1.00
N559   N     0.98241   0.18074   0.76416   0.00000  Uiso   1.00
N560   N     0.68426   0.15259   0.73584   0.00000  Uiso   1.00
O561   O     0.79464   0.23807   0.74633   0.00000  Uiso   1.00
O562   O     0.89524   0.24755   0.75587   0.00000  Uiso   1.00
O563   O     0.75848   0.15960   0.81839   0.00000  Uiso   1.00
O564   O     0.85908   0.16908   0.82793   0.00000  Uiso   1.00
O565   O     0.77142   0.08578   0.74414   0.00000  Uiso   1.00
O566   O     0.87203   0.09526   0.75367   0.00000  Uiso   1.00
O567   O     0.80758   0.16425   0.67207   0.00000  Uiso   1.00
O568   O     0.90819   0.17373   0.68161   0.00000  Uiso   1.00
H569   H     0.97619   0.23475   0.60378   0.00000  Uiso   1.00
H570   H     0.67030   0.20589   0.78971   0.00000  Uiso   1.00
N571   N     0.70969   0.15009   0.56427   0.00000  Uiso   1.00
H572   H     0.70756   0.11420   0.58004   0.00000  Uiso   1.00
H573   H     0.73264   0.18187   0.58388   0.00000  Uiso   1.00
N574   N     0.91275   0.01908   0.77181   0.00000  Uiso   1.00
H575   H     0.91540   0.00573   0.80713   0.00000  Uiso   1.00
H576   H     0.95175   0.01250   0.74431   0.00000  Uiso   1.00
C577   C     0.18142   0.59988   0.75267   0.00000  Uiso   1.00
C578   C     0.13606   0.50695   0.98994   0.00000  Uiso   1.00
C579   C     0.15303   0.52039   0.93715   0.00000  Uiso   1.00
C580   C     0.18423   0.51962   0.51923   0.00000  Uiso   1.00
C581   C     0.24190   0.55500   0.99965   0.00000  Uiso   1.00
C582   C     0.25314   0.57445   0.95047   0.00000  Uiso   1.00
C583   C     0.20992   0.55686   0.91937   0.00000  Uiso   1.00
C584   C     0.17828   0.49658   0.56640   0.00000  Uiso   1.00
C585   C     0.27625   0.55243   0.57948   0.00000  Uiso   1.00
C586   C     0.11171   0.49837   0.90385   0.00000  Uiso   1.00
C587   C     0.18969   0.65562   0.75712   0.00000  Uiso   1.00
C588   C     0.13304   0.49900   0.84739   0.00000  Uiso   1.00
C589   C     0.14441   0.34424   0.74823   0.00000  Uiso   1.00
C590   C     0.15160   0.40001   0.74909   0.00000  Uiso   1.00
C591   C     0.20064   0.50418   0.65287   0.00000  Uiso   1.00
C592   C     0.28758   0.57084   0.52977   0.00000  Uiso   1.00
C593   C     0.22114   0.51544   0.59805   0.00000  Uiso   1.00
C594   C     0.05037   0.47161   0.92467   0.00000  Uiso   1.00
C595   C     0.03006   0.46595   0.97735   0.00000  Uiso   1.00
C596   C     0.07142   0.48316   0.51051   0.00000  Uiso   1.00
Cu597  Cu    0.10710   0.49439   0.74435   0.00000  Uiso   1.00
Cu598  Cu    0.22623   0.50561   0.75565   0.00000  Uiso   1.00
H599   H     0.10134   0.65395   0.73878   0.00000  Uiso   1.00
H600   H     0.32969   0.46078   0.71029   0.00000  Uiso   1.00
H601   H     0.29625   0.60248   0.93547   0.00000  Uiso   1.00
H602   H     0.33108   0.59871   0.51546   0.00000  Uiso   1.00
H603   H     0.14007   0.46416   0.57985   0.00000  Uiso   1.00
H604   H     0.01755   0.45534   0.90015   0.00000  Uiso   1.00
H605   H     0.31452   0.44808   0.99276   0.00000  Uiso   1.00
H606   H     0.22080   0.57389   0.88183   0.00000  Uiso   1.00
N607   N     0.31574   0.51407   0.76416   0.00000  Uiso   1.00
N608   N     0.01759   0.48593   0.73584   0.00000  Uiso   1.00
O609   O     0.12797   0.57141   0.74633   0.00000  Uiso   1.00
O610   O     0.22858   0.58089   0.75587   0.00000  Uiso   1.00
O611   O     0.09181   0.49293   0.81839   0.00000  Uiso   1.00
O612   O     0.19242   0.50241   0.82793   0.00000  Uiso   1.00
O613   O     0.10476   0.41911   0.74414   0.00000  Uiso   1.00
O614   O     0.20536   0.42859   0.75367   0.00000  Uiso   1.00
O615   O     0.14092   0.49759   0.67207   0.00000  Uiso   1.00
O616   O     0.24152   0.50707   0.68161   0.00000  Uiso   1.00
H617   H     0.30952   0.56808   0.60378   0.00000  Uiso   1.00
H618   H     0.00364   0.53922   0.78971   0.00000  Uiso   1.00
N619   N     0.04302   0.48342   0.56427   0.00000  Uiso   1.00
H620   H     0.04089   0.44753   0.58004   0.00000  Uiso   1.00
H621   H     0.06597   0.51520   0.58388   0.00000  Uiso   1.00
N622   N     0.24609   0.35241   0.77181   0.00000  Uiso   1.00
H623   H     0.24873   0.33906   0.80713   0.00000  Uiso   1.00
H624   H     0.28508   0.34584   0.74431   0.00000  Uiso   1.00
C625   C     0.51476   0.59988   0.75267   0.00000  Uiso   1.00
C626   C     0.46940   0.50695   0.98994   0.00000  Uiso   1.00
C627   C     0.48636   0.52039   0.93715   0.00000  Uiso   1.00
C628   C     0.51756   0.51962   0.51923   0.00000  Uiso   1.00
C629   C     0.57523   0.55500   0.99965   0.00000  Uiso   1.00
C630   C     0.58647   0.57445   0.95047   0.00000  Uiso   1.00
C631   C     0.54326   0.55686   0.91937   0.00000  Uiso   1.00
C632   C     0.51162   0.49658   0.56640   0.00000  Uiso   1.00
C633   C     0.60959   0.55243   0.57948   0.00000  Uiso   1.00
C634   C     0.44505   0.49837   0.90385   0.00000  Uiso   1.00
C635   C     0.52303   0.65562   0.75712   0.00000  Uiso   1.00
C636   C     0.46638   0.49900   0.84739   0.00000  Uiso   1.00
C637   C     0.47775   0.34424   0.74823   0.00000  Uiso   1.00
C638   C     0.48493   0.40001   0.74909   0.00000  Uiso   1.00
C639   C     0.53397   0.50418   0.65287   0.00000  Uiso   1.00
C640   C     0.62091   0.57084   0.52977   0.00000  Uiso   1.00
C641   C     0.55447   0.51544   0.59805   0.00000  Uiso   1.00
C642   C     0.38370   0.47161   0.92467   0.00000  Uiso   1.00
C643   C     0.36340   0.46595   0.97735   0.00000  Uiso   1.00
C644   C     0.40475   0.48316   0.51051   0.00000  Uiso   1.00
Cu645  Cu    0.44043   0.49439   0.74435   0.00000  Uiso   1.00
Cu646  Cu    0.55957   0.50561   0.75565   0.00000  Uiso   1.00
H647   H     0.43467   0.65395   0.73878   0.00000  Uiso   1.00
H648   H     0.66302   0.46078   0.71029   0.00000  Uiso   1.00
H649   H     0.62958   0.60248   0.93547   0.00000  Uiso   1.00
H650   H     0.66442   0.59871   0.51546   0.00000  Uiso   1.00
H651   H     0.47341   0.46416   0.57985   0.00000  Uiso   1.00
H652   H     0.35088   0.45534   0.90015   0.00000  Uiso   1.00
H653   H     0.64785   0.44808   0.99276   0.00000  Uiso   1.00
H654   H     0.55413   0.57389   0.88183   0.00000  Uiso   1.00
N655   N     0.64908   0.51407   0.76416   0.00000  Uiso   1.00
N656   N     0.35092   0.48593   0.73584   0.00000  Uiso   1.00
O657   O     0.46131   0.57141   0.74633   0.00000  Uiso   1.00
O658   O     0.56191   0.58089   0.75587   0.00000  Uiso   1.00
O659   O     0.42515   0.49293   0.81839   0.00000  Uiso   1.00
O660   O     0.52575   0.50241   0.82793   0.00000  Uiso   1.00
O661   O     0.43809   0.41911   0.74414   0.00000  Uiso   1.00
O662   O     0.53869   0.42859   0.75367   0.00000  Uiso   1.00
O663   O     0.47425   0.49759   0.67207   0.00000  Uiso   1.00
O664   O     0.57485   0.50707   0.68161   0.00000  Uiso   1.00
H665   H     0.64285   0.56808   0.60378   0.00000  Uiso   1.00
H666   H     0.33697   0.53922   0.78971   0.00000  Uiso   1.00
N667   N     0.37635   0.48342   0.56427   0.00000  Uiso   1.00
H668   H     0.37423   0.44753   0.58004   0.00000  Uiso   1.00
H669   H     0.39931   0.51520   0.58388   0.00000  Uiso   1.00
N670   N     0.57942   0.35241   0.77181   0.00000  Uiso   1.00
H671   H     0.58206   0.33906   0.80713   0.00000  Uiso   1.00
H672   H     0.61842   0.34584   0.74431   0.00000  Uiso   1.00
C673   C     0.84809   0.59988   0.75267   0.00000  Uiso   1.00
C674   C     0.80273   0.50695   0.98994   0.00000  Uiso   1.00
C675   C     0.81970   0.52039   0.93715   0.00000  Uiso   1.00
C676   C     0.85090   0.51962   0.51923   0.00000  Uiso   1.00
C677   C     0.90856   0.55500   0.99965   0.00000  Uiso   1.00
C678   C     0.91981   0.57445   0.95047   0.00000  Uiso   1.00
C679   C     0.87659   0.55686   0.91937   0.00000  Uiso   1.00
C680   C     0.84495   0.49658   0.56640   0.00000  Uiso   1.00
C681   C     0.94292   0.55243   0.57948   0.00000  Uiso   1.00
C682   C     0.77838   0.49837   0.90385   0.00000  Uiso   1.00
C683   C     0.85636   0.65562   0.75712   0.00000  Uiso   1.00
C684   C     0.79971   0.49900   0.84739   0.00000  Uiso   1.00
C685   C     0.81108   0.34424   0.74823   0.00000  Uiso   1.00
C686   C     0.81827   0.40001   0.74909   0.00000  Uiso   1.00
C687   C     0.86730   0.50418   0.65287   0.00000  Uiso   1.00
C688   C     0.95424   0.57084   0.52977   0.00000  Uiso   1.00
C689   C     0.88780   0.51544   0.59805   0.00000  Uiso   1.00
C690   C     0.71703   0.47161   0.92467   0.00000  Uiso   1.00
C691   C     0.69673   0.46595   0.97735   0.00000  Uiso   1.00
C692   C     0.73809   0.48316   0.51051   0.00000  Uiso   1.00
Cu693  Cu    0.77377   0.49439   0.74435   0.00000  Uiso   1.00
Cu694  Cu    0.89290   0.50561   0.75565   0.00000  Uiso   1.00
H695   H     0.76800   0.65395   0.73878   0.00000  Uiso   1.00
H696   H     0.99635   0.46078   0.71029   0.00000  Uiso   1.00
H697   H     0.96292   0.60248   0.93547   0.00000  Uiso   1.00
H698   H     0.99775   0.59871   0.51546   0.00000  Uiso   1.00
H699   H     0.80674   0.46416   0.57985   0.00000  Uiso   1.00
H700   H     0.68421   0.45534   0.90015   0.00000  Uiso   1.00
H701   H     0.98119   0.44808   0.99276   0.00000  Uiso   1.00
H702   H     0.88746   0.57389   0.88183   0.00000  Uiso   1.00
N703   N     0.98241   0.51407   0.76416   0.00000  Uiso   1.00
N704   N     0.68426   0.48593   0.73584   0.00000  Uiso   1.00
O705   O     0.79464   0.57141   0.74633   0.00000  Uiso   1.00
O706   O     0.89524   0.58089   0.75587   0.00000  Uiso   1.00
O707   O     0.75848   0.49293   0.81839   0.00000  Uiso   1.00
O708   O     0.85908   0.50241   0.82793   0.00000  Uiso   1.00
O709   O     0.77142   0.41911   0.74414   0.00000  Uiso   1.00
O710   O     0.87203   0.42859   0.75367   0.00000  Uiso   1.00
O711   O     0.80758   0.49759   0.67207   0.00000  Uiso   1.00
O712   O     0.90819   0.50707   0.68161   0.00000  Uiso   1.00
H713   H     0.97619   0.56808   0.60378   0.00000  Uiso   1.00
H714   H     0.67030   0.53922   0.78971   0.00000  Uiso   1.00
N715   N     0.70969   0.48342   0.56427   0.00000  Uiso   1.00
H716   H     0.70756   0.44753   0.58004   0.00000  Uiso   1.00
H717   H     0.73264   0.51520   0.58388   0.00000  Uiso   1.00
N718   N     0.91275   0.35241   0.77181   0.00000  Uiso   1.00
H719   H     0.91540   0.33906   0.80713   0.00000  Uiso   1.00
H720   H     0.95175   0.34584   0.74431   0.00000  Uiso   1.00
C721   C     0.18142   0.93321   0.75267   0.00000  Uiso   1.00
C722   C     0.13606   0.84028   0.98994   0.00000  Uiso   1.00
C723   C     0.15303   0.85373   0.93715   0.00000  Uiso   1.00
C724   C     0.18423   0.85296   0.51923   0.00000  Uiso   1.00
C725   C     0.24190   0.88833   0.99965   0.00000  Uiso   1.00
C726   C     0.25314   0.90778   0.95047   0.00000  Uiso   1.00
C727   C     0.20992   0.89019   0.91937   0.00000  Uiso   1.00
C728   C     0.17828   0.82992   0.56640   0.00000  Uiso   1.00
C729   C     0.27625   0.88576   0.57948   0.00000  Uiso   1.00
C730   C     0.11171   0.83170   0.90385   0.00000  Uiso   1.00
C731   C     0.18969   0.98896   0.75712   0.00000  Uiso   1.00
C732   C     0.13304   0.83233   0.84739   0.00000  Uiso   1.00
C733   C     0.14441   0.67757   0.74823   0.00000  Uiso   1.00
C734   C     0.15160   0.73334   0.74909   0.00000  Uiso   1.00
C735   C     0.20064   0.83751   0.65287   0.00000  Uiso   1.00
C736   C     0.28758   0.90417   0.52977   0.00000  Uiso   1.00
C737   C     0.22114   0.84878   0.59805   0.00000  Uiso   1.00
C738   C     0.05037   0.80494   0.92467   0.00000  Uiso   1.00
C739   C     0.03006   0.79928   0.97735   0.00000  Uiso   1.00
C740   C     0.07142   0.81649   0.51051   0.00000  Uiso   1.00
Cu741  Cu    0.10710   0.82772   0.74435   0.00000  Uiso   1.00
Cu742  Cu    0.22623   0.83895   0.75565   0.00000  Uiso   1.00
H743   H     0.10134   0.98728   0.73878   0.00000  Uiso   1.00
H744   H     0.32969   0.79411   0.71029   0.00000  Uiso   1.00
H745   H     0.29625   0.93581   0.93547   0.00000  Uiso   1.00
H746   H     0.33108   0.93204   0.51546   0.00000  Uiso   1.00
H747   H     0.14007   0.79750   0.57985   0.00000  Uiso   1.00
H748   H     0.01755   0.78867   0.90015   0.00000  Uiso   1.00
H749   H     0.31452   0.78141   0.99276   0.00000  Uiso   1.00
H750   H     0.22080   0.90722   0.88183   0.00000  Uiso   1.00
N751   N     0.31574   0.84741   0.76416   0.00000  Uiso   1.00
N752   N     0.01759   0.81926   0.73584   0.00000  Uiso   1.00
O753   O     0.12797   0.90474   0.74633   0.00000  Uiso   1.00
O754   O     0.22858   0.91422   0.75587   0.00000  Uiso   1.00
O755   O     0.09181   0.82627   0.81839   0.00000  Uiso   1.00
O756   O     0.19242   0.83575   0.82793   0.00000  Uiso   1.00
O757   O     0.10476   0.75245   0.74414   0.00000  Uiso   1.00
O758   O     0.20536   0.76193   0.75367   0.00000  Uiso   1.00
O759   O     0.14092   0.83092   0.67207   0.00000  Uiso   1.00
O760   O     0.24152   0.84040   0.68161   0.00000  Uiso   1.00
H761   H     0.30952   0.90141   0.60378   0.00000  Uiso   1.00
H762   H     0.00364   0.87255   0.78971   0.00000  Uiso   1.00
N763   N     0.04302   0.81675   0.56427   0.00000  Uiso   1.00
H764   H     0.04089   0.78086   0.58004   0.00000  Uiso   1.00
H765   H     0.06597   0.84854   0.58388   0.00000  Uiso   1.00
N766   N     0.24609   0.68575   0.77181   0.00000  Uiso   1.00
H767   H     0.24873   0.67239   0.80713   0.00000  Uiso   1.00
H768   H     0.28508   0.67917   0.74431   0.00000  Uiso   1.00
C769   C     0.51476   0.93321   0.75267   0.00000  Uiso   1.00
C770   C     0.46940   0.84028   0.98994   0.00000  Uiso   1.00
C771   C     0.48636   0.85373   0.93715   0.00000  Uiso   1.00
C772   C     0.51756   0.85296   0.51923   0.00000  Uiso   1.00
C773   C     0.57523   0.88833   0.99965   0.00000  Uiso   1.00
C774   C     0.58647   0.90778   0.95047   0.00000  Uiso   1.00
C775   C     0.54326   0.89019   0.91937   0.00000  Uiso   1.00
C776   C     0.51162   0.82992   0.56640   0.00000  Uiso   1.00
C777   C     0.60959   0.88576   0.57948   0.00000  Uiso   1.00
C778   C     0.44505   0.83170   0.90385   0.00000  Uiso   1.00
C779   C     0.52303   0.98896   0.75712   0.00000  Uiso   1.00
C780   C     0.46638   0.83233   0.84739   0.00000  Uiso   1.00
C781   C     0.47775   0.67757   0.74823   0.00000  Uiso   1.00
C782   C     0.48493   0.73334   0.74909   0.00000  Uiso   1.00
C783   C     0.53397   0.83751   0.65287   0.00000  Uiso   1.00
C784   C     0.62091   0.90417   0.52977   0.00000  Uiso   1.00
C785   C     0.55447   0.84878   0.59805   0.00000  Uiso   1.00
C786   C     0.38370   0.80494   0.92467   0.00000  Uiso   1.00
C787   C     0.36340   0.79928   0.97735   0.00000  Uiso   1.00
C788   C     0.40475   0.81649   0.51051   0.00000  Uiso   1.00
Cu789  Cu    0.44043   0.82772   0.74435   0.00000  Uiso   1.00
Cu790  Cu    0.55957   0.83895   0.75565   0.00000  Uiso   1.00
H791   H     0.43467   0.98728   0.73878   0.00000  Uiso   1.00
H792   H     0.66302   0.79411   0.71029   0.00000  Uiso   1.00
H793   H     0.62958   0.93581   0.93547   0.00000  Uiso   1.00
H794   H     0.66442   0.93204   0.51546   0.00000  Uiso   1.00
H795   H     0.47341   0.79750   0.57985   0.00000  Uiso   1.00
H796   H     0.35088   0.78867   0.90015   0.00000  Uiso   1.00
H797   H     0.64785   0.78141   0.99276   0.00000  Uiso   1.00
H798   H     0.55413   0.90722   0.88183   0.00000  Uiso   1.00
N799   N     0.64908   0.84741   0.76416   0.00000  Uiso   1.00
N800   N     0.35092   0.81926   0.73584   0.00000  Uiso   1.00
O801   O     0.46131   0.90474   0.74633   0.00000  Uiso   1.00
O802   O     0.56191   0.91422   0.75587   0.00000  Uiso   1.00
O803   O     0.42515   0.82627   0.81839   0.00000  Uiso   1.00
O804   O     0.52575   0.83575   0.82793   0.00000  Uiso   1.00
O805   O     0.43809   0.75245   0.74414   0.00000  Uiso   1.00
O806   O     0.53869   0.76193   0.75367   0.00000  Uiso   1.00
O807   O     0.47425   0.83092   0.67207   0.00000  Uiso   1.00
O808   O     0.57485   0.84040   0.68161   0.00000  Uiso   1.00
H809   H     0.64285   0.90141   0.60378   0.00000  Uiso   1.00
H810   H     0.33697   0.87255   0.78971   0.00000  Uiso   1.00
N811   N     0.37635   0.81675   0.56427   0.00000  Uiso   1.00
H812   H     0.37423   0.78086   0.58004   0.00000  Uiso   1.00
H813   H     0.39931   0.84854   0.58388   0.00000  Uiso   1.00
N814   N     0.57942   0.68575   0.77181   0.00000  Uiso   1.00
H815   H     0.58206   0.67239   0.80713   0.00000  Uiso   1.00
H816   H     0.61842   0.67917   0.74431   0.00000  Uiso   1.00
C817   C     0.84809   0.93321   0.75267   0.00000  Uiso   1.00
C818   C     0.80273   0.84028   0.98994   0.00000  Uiso   1.00
C819   C     0.81970   0.85373   0.93715   0.00000  Uiso   1.00
C820   C     0.85090   0.85296   0.51923   0.00000  Uiso   1.00
C821   C     0.90856   0.88833   0.99965   0.00000  Uiso   1.00
C822   C     0.91981   0.90778   0.95047   0.00000  Uiso   1.00
C823   C     0.87659   0.89019   0.91937   0.00000  Uiso   1.00
C824   C     0.84495   0.82992   0.56640   0.00000  Uiso   1.00
C825   C     0.94292   0.88576   0.57948   0.00000  Uiso   1.00
C826   C     0.77838   0.83170   0.90385   0.00000  Uiso   1.00
C827   C     0.85636   0.98896   0.75712   0.00000  Uiso   1.00
C828   C     0.79971   0.83233   0.84739   0.00000  Uiso   1.00
C829   C     0.81108   0.67757   0.74823   0.00000  Uiso   1.00
C830   C     0.81827   0.73334   0.74909   0.00000  Uiso   1.00
C831   C     0.86730   0.83751   0.65287   0.00000  Uiso   1.00
C832   C     0.95424   0.90417   0.52977   0.00000  Uiso   1.00
C833   C     0.88780   0.84878   0.59805   0.00000  Uiso   1.00
C834   C     0.71703   0.80494   0.92467   0.00000  Uiso   1.00
C835   C     0.69673   0.79928   0.97735   0.00000  Uiso   1.00
C836   C     0.73809   0.81649   0.51051   0.00000  Uiso   1.00
Cu837  Cu    0.77377   0.82772   0.74435   0.00000  Uiso   1.00
Cu838  Cu    0.89290   0.83895   0.75565   0.00000  Uiso   1.00
H839   H     0.76800   0.98728   0.73878   0.00000  Uiso   1.00
H840   H     0.99635   0.79411   0.71029   0.00000  Uiso   1.00
H841   H     0.96292   0.93581   0.93547   0.00000  Uiso   1.00
H842   H     0.99775   0.93204   0.51546   0.00000  Uiso   1.00
H843   H     0.80674   0.79750   0.57985   0.00000  Uiso   1.00
H844   H     0.68421   0.78867   0.90015   0.00000  Uiso   1.00
H845   H     0.98119   0.78141   0.99276   0.00000  Uiso   1.00
H846   H     0.88746   0.90722   0.88183   0.00000  Uiso   1.00
N847   N     0.98241   0.84741   0.76416   0.00000  Uiso   1.00
N848   N     0.68426   0.81926   0.73584   0.00000  Uiso   1.00
O849   O     0.79464   0.90474   0.74633   0.00000  Uiso   1.00
O850   O     0.89524   0.91422   0.75587   0.00000  Uiso   1.00
O851   O     0.75848   0.82627   0.81839   0.00000  Uiso   1.00
O852   O     0.85908   0.83575   0.82793   0.00000  Uiso   1.00
O853   O     0.77142   0.75245   0.74414   0.00000  Uiso   1.00
O854   O     0.87203   0.76193   0.75367   0.00000  Uiso   1.00
O855   O     0.80758   0.83092   0.67207   0.00000  Uiso   1.00
O856   O     0.90819   0.84040   0.68161   0.00000  Uiso   1.00
H857   H     0.97619   0.90141   0.60378   0.00000  Uiso   1.00
H858   H     0.67030   0.87255   0.78971   0.00000  Uiso   1.00
N859   N     0.70969   0.81675   0.56427   0.00000  Uiso   1.00
H860   H     0.70756   0.78086   0.58004   0.00000  Uiso   1.00
H861   H     0.73264   0.84854   0.58388   0.00000  Uiso   1.00
N862   N     0.91275   0.68575   0.77181   0.00000  Uiso   1.00
H863   H     0.91540   0.67239   0.80713   0.00000  Uiso   1.00
H864   H     0.95175   0.67917   0.74431   0.00000  Uiso   1.00
loop_
_geom_bond_atom_site_label_1
_geom_bond_atom_site_label_2
_geom_bond_distance
_geom_bond_site_symmetry_2
_ccdc_geom_bond_type
C1     O33     1.293   .     A
C1     O34     1.282   .     A
C1     C11     1.431   .     S
C2     C3      1.423   .     A
C2     C436    1.429   .     S
C2     C452    1.435   .     S
C3     C10     1.420   .     A
C3     C7      1.413   .     A
C4     C8      1.401   .     A
C4     C434    1.429   1_554 S
C4     C437    1.420   1_554 S
C5     C6      1.391   .     A
C5     C436    1.420   .     S
C5     C448    1.405   .     S
C6     C7      1.387   .     A
C6     H25     1.084   .     S
C7     H30     1.080   .     S
C8     C17     1.396   .     A
C8     H27     1.075   .     S
C9     H41     1.083   .     S
C9     C17     1.398   .     A
C9     C16     1.394   .     A
C10    C12     1.476   .     S
C10    C18     1.399   .     A
C11    C157    1.340   .     S
C11    N190    1.442   .     S
C12    O36     1.296   .     A
C12    O35     1.302   .     A
C13    C14     1.433   .     S
C13    C299    1.340   1_545 S
C13    H311    1.088   1_545 S
C14    O37     1.291   .     A
C14    O38     1.287   .     A
C15    O39     1.294   .     A
C15    O40     1.300   .     A
C15    C17     1.463   .     S
C16    H26     1.084   .     S
C16    C437    1.405   1_554 S
C18    H28     1.083   .     S
C18    C19     1.386   .     A
C19    C452    1.396   .     S
C19    H125    1.084   1_455 S
C20    N43     1.435   .     S
C20    C434    1.435   1_554 S
C20    C451    1.396   1_554 S
Cu21   O35     1.930   .     S
Cu21   O39     1.910   .     S
Cu21   N32     2.018   .     S
Cu21   O33     1.966   .     S
Cu21   O37     1.962   .     S
Cu21   Cu22    2.686   .     S
Cu22   O40     1.930   .     S
Cu22   O34     1.962   .     S
Cu22   N31     2.018   .     S
Cu22   O36     1.910   .     S
Cu22   O38     1.966   .     S
H23    C157    1.088   .     S
H24    N80     1.029   .     S
H29    C67     1.084   .     S
N31    N80     1.287   .     S
N31    H90     1.029   .     S
N32    N127    1.287   1_455 S
N32    H120    1.029   1_455 S
H42    N127    1.029   1_455 S
N43    H44     1.045   .     S
N43    H45     1.045   .     S
N46    H48     1.046   .     S
N46    H47     1.046   .     S
N46    C299    1.442   1_545 S
C49    O81     1.293   .     A
C49    O82     1.282   .     A
C49    C59     1.431   .     S
C50    C51     1.423   .     A
C50    C484    1.429   .     S
C50    C500    1.435   .     S
C51    C58     1.420   .     A
C51    C55     1.413   .     A
C52    C56     1.401   .     A
C52    C482    1.429   1_554 S
C52    C485    1.420   1_554 S
C53    C54     1.391   .     A
C53    C484    1.420   .     S
C53    C496    1.405   .     S
C54    C55     1.387   .     A
C54    H73     1.084   .     S
C55    H78     1.080   .     S
C56    C65     1.396   .     A
C56    H75     1.075   .     S
C57    H89     1.083   .     S
C57    C65     1.398   .     A
C57    C64     1.394   .     A
C58    C60     1.476   .     S
C58    C66     1.399   .     A
C59    C205    1.340   .     S
C59    N238    1.442   .     S
C60    O84     1.296   .     A
C60    O83     1.302   .     A
C61    C62     1.433   .     S
C61    C347    1.340   1_545 S
C61    H359    1.088   1_545 S
C62    O85     1.291   .     A
C62    O86     1.287   .     A
C63    O87     1.294   .     A
C63    O88     1.300   .     A
C63    C65     1.463   .     S
C64    H74     1.084   .     S
C64    C485    1.405   1_554 S
C66    H76     1.083   .     S
C66    C67     1.386   .     A
C67    C500    1.396   .     S
C68    N91     1.435   .     S
C68    C482    1.435   1_554 S
C68    C499    1.396   1_554 S
Cu69   O83     1.930   .     S
Cu69   O87     1.910   .     S
Cu69   N80     2.018   .     S
Cu69   O81     1.966   .     S
Cu69   O85     1.962   .     S
Cu69   Cu70    2.686   .     S
Cu70   O88     1.930   .     S
Cu70   O82     1.962   .     S
Cu70   N79     2.018   .     S
Cu70   O84     1.910   .     S
Cu70   O86     1.966   .     S
H71    C205    1.088   .     S
H72    N128    1.029   .     S
H77    C115    1.084   .     S
N79    N128    1.287   .     S
N79    H138    1.029   .     S
N91    H92     1.045   .     S
N91    H93     1.045   .     S
N94    H96     1.046   .     S
N94    H95     1.046   .     S
N94    C347    1.442   1_545 S
C97    O129    1.293   .     A
C97    O130    1.282   .     A
C97    C107    1.431   .     S
C98    C99     1.423   .     A
C98    C532    1.429   .     S
C98    C548    1.435   .     S
C99    C106    1.420   .     A
C99    C103    1.413   .     A
C100   C104    1.401   .     A
C100   C530    1.429   1_554 S
C100   C533    1.420   1_554 S
C101   C102    1.391   .     A
C101   C532    1.420   .     S
C101   C544    1.405   .     S
C102   C103    1.387   .     A
C102   H121    1.084   .     S
C103   H126    1.080   .     S
C104   C113    1.396   .     A
C104   H123    1.075   .     S
C105   H137    1.083   .     S
C105   C113    1.398   .     A
C105   C112    1.394   .     A
C106   C108    1.476   .     S
C106   C114    1.399   .     A
C107   C253    1.340   .     S
C107   N286    1.442   .     S
C108   O132    1.296   .     A
C108   O131    1.302   .     A
C109   C110    1.433   .     S
C109   C395    1.340   1_545 S
C109   H407    1.088   1_545 S
C110   O133    1.291   .     A
C110   O134    1.287   .     A
C111   O135    1.294   .     A
C111   O136    1.300   .     A
C111   C113    1.463   .     S
C112   H122    1.084   .     S
C112   C533    1.405   1_554 S
C114   H124    1.083   .     S
C114   C115    1.386   .     A
C115   C548    1.396   .     S
C116   N139    1.435   .     S
C116   C530    1.435   1_554 S
C116   C547    1.396   1_554 S
Cu117  O131    1.930   .     S
Cu117  O135    1.910   .     S
Cu117  N128    2.018   .     S
Cu117  O129    1.966   .     S
Cu117  O133    1.962   .     S
Cu117  Cu118   2.686   .     S
Cu118  O136    1.930   .     S
Cu118  O130    1.962   .     S
Cu118  N127    2.018   .     S
Cu118  O132    1.910   .     S
Cu118  O134    1.966   .     S
H119   C253    1.088   .     S
H120   N32     1.029   1_655 S
H125   C19     1.084   1_655 S
N127   N32     1.287   1_655 S
N127   H42     1.029   1_655 S
N139   H140    1.045   .     S
N139   H141    1.045   .     S
N142   H144    1.046   .     S
N142   H143    1.046   .     S
N142   C395    1.442   1_545 S
C145   O177    1.293   .     A
C145   O178    1.282   .     A
C145   C155    1.431   .     S
C146   C147    1.423   .     A
C146   C580    1.429   .     S
C146   C596    1.435   .     S
C147   C154    1.420   .     A
C147   C151    1.413   .     A
C148   C152    1.401   .     A
C148   C578    1.429   1_554 S
C148   C581    1.420   1_554 S
C149   C150    1.391   .     A
C149   C580    1.420   .     S
C149   C592    1.405   .     S
C150   C151    1.387   .     A
C150   H169    1.084   .     S
C151   H174    1.080   .     S
C152   C161    1.396   .     A
C152   H171    1.075   .     S
C153   H185    1.083   .     S
C153   C161    1.398   .     A
C153   C160    1.394   .     A
C154   C156    1.476   .     S
C154   C162    1.399   .     A
C155   C301    1.340   .     S
C155   N334    1.442   .     S
C156   O180    1.296   .     A
C156   O179    1.302   .     A
C157   C158    1.433   .     S
C158   O181    1.291   .     A
C158   O182    1.287   .     A
C159   O183    1.294   .     A
C159   O184    1.300   .     A
C159   C161    1.463   .     S
C160   H170    1.084   .     S
C160   C581    1.405   1_554 S
C162   H172    1.083   .     S
C162   C163    1.386   .     A
C163   C596    1.396   .     S
C163   H269    1.084   1_455 S
C164   N187    1.435   .     S
C164   C578    1.435   1_554 S
C164   C595    1.396   1_554 S
Cu165  O179    1.930   .     S
Cu165  O183    1.910   .     S
Cu165  N176    2.018   .     S
Cu165  O177    1.966   .     S
Cu165  O181    1.962   .     S
Cu165  Cu166   2.686   .     S
Cu166  O184    1.930   .     S
Cu166  O178    1.962   .     S
Cu166  N175    2.018   .     S
Cu166  O180    1.910   .     S
Cu166  O182    1.966   .     S
H167   C301    1.088   .     S
H168   N224    1.029   .     S
H173   C211    1.084   .     S
N175   N224    1.287   .     S
N175   H234    1.029   .     S
N176   N271    1.287   1_455 S
N176   H264    1.029   1_455 S
H186   N271    1.029   1_455 S
N187   H188    1.045   .     S
N187   H189    1.045   .     S
N190   H192    1.046   .     S
N190   H191    1.046   .     S
C193   O225    1.293   .     A
C193   O226    1.282   .     A
C193   C203    1.431   .     S
C194   C195    1.423   .     A
C194   C628    1.429   .     S
C194   C644    1.435   .     S
C195   C202    1.420   .     A
C195   C199    1.413   .     A
C196   C200    1.401   .     A
C196   C626    1.429   1_554 S
C196   C629    1.420   1_554 S
C197   C198    1.391   .     A
C197   C628    1.420   .     S
C197   C640    1.405   .     S
C198   C199    1.387   .     A
C198   H217    1.084   .     S
C199   H222    1.080   .     S
C200   C209    1.396   .     A
C200   H219    1.075   .     S
C201   H233    1.083   .     S
C201   C209    1.398   .     A
C201   C208    1.394   .     A
C202   C204    1.476   .     S
C202   C210    1.399   .     A
C203   C349    1.340   .     S
C203   N382    1.442   .     S
C204   O228    1.296   .     A
C204   O227    1.302   .     A
C205   C206    1.433   .     S
C206   O229    1.291   .     A
C206   O230    1.287   .     A
C207   O231    1.294   .     A
C207   O232    1.300   .     A
C207   C209    1.463   .     S
C208   H218    1.084   .     S
C208   C629    1.405   1_554 S
C210   H220    1.083   .     S
C210   C211    1.386   .     A
C211   C644    1.396   .     S
C212   N235    1.435   .     S
C212   C626    1.435   1_554 S
C212   C643    1.396   1_554 S
Cu213  O227    1.930   .     S
Cu213  O231    1.910   .     S
Cu213  N224    2.018   .     S
Cu213  O225    1.966   .     S
Cu213  O229    1.962   .     S
Cu213  Cu214   2.686   .     S
Cu214  O232    1.930   .     S
Cu214  O226    1.962   .     S
Cu214  N223    2.018   .     S
Cu214  O228    1.910   .     S
Cu214  O230    1.966   .     S
H215   C349    1.088   .     S
H216   N272    1.029   .     S
H221   C259    1.084   .     S
N223   N272    1.287   .     S
N223   H282    1.029   .     S
N235   H236    1.045   .     S
N235   H237    1.045   .     S
N238   H240    1.046   .     S
N238   H239    1.046   .     S
C241   O273    1.293   .     A
C241   O274    1.282   .     A
C241   C251    1.431   .     S
C242   C243    1.423   .     A
C242   C676    1.429   .     S
C242   C692    1.435   .     S
C243   C250    1.420   .     A
C243   C247    1.413   .     A
C244   C248    1.401   .     A
C244   C674    1.429   1_554 S
C244   C677    1.420   1_554 S
C245   C246    1.391   .     A
C245   C676    1.420   .     S
C245   C688    1.405   .     S
C246   C247    1.387   .     A
C246   H265    1.084   .     S
C247   H270    1.080   .     S
C248   C257    1.396   .     A
C248   H267    1.075   .     S
C249   H281    1.083   .     S
C249   C257    1.398   .     A
C249   C256    1.394   .     A
C250   C252    1.476   .     S
C250   C258    1.399   .     A
C251   C397    1.340   .     S
C251   N430    1.442   .     S
C252   O276    1.296   .     A
C252   O275    1.302   .     A
C253   C254    1.433   .     S
C254   O277    1.291   .     A
C254   O278    1.287   .     A
C255   O279    1.294   .     A
C255   O280    1.300   .     A
C255   C257    1.463   .     S
C256   H266    1.084   .     S
C256   C677    1.405   1_554 S
C258   H268    1.083   .     S
C258   C259    1.386   .     A
C259   C692    1.396   .     S
C260   N283    1.435   .     S
C260   C674    1.435   1_554 S
C260   C691    1.396   1_554 S
Cu261  O275    1.930   .     S
Cu261  O279    1.910   .     S
Cu261  N272    2.018   .     S
Cu261  O273    1.966   .     S
Cu261  O277    1.962   .     S
Cu261  Cu262   2.686   .     S
Cu262  O280    1.930   .     S
Cu262  O274    1.962   .     S
Cu262  N271    2.018   .     S
Cu262  O276    1.910   .     S
Cu262  O278    1.966   .     S
H263   C397    1.088   .     S
H264   N176    1.029   1_655 S
H269   C163    1.084   1_655 S
N271   N176    1.287   1_655 S
N271   H186    1.029   1_655 S
N283   H284    1.045   .     S
N283   H285    1.045   .     S
N286   H288    1.046   .     S
N286   H287    1.046   .     S
C289   O321    1.293   .     A
C289   O322    1.282   .     A
C289   C299    1.431   .     S
C290   C291    1.423   .     A
C290   C724    1.429   .     S
C290   C740    1.435   .     S
C291   C298    1.420   .     A
C291   C295    1.413   .     A
C292   C296    1.401   .     A
C292   C722    1.429   1_554 S
C292   C725    1.420   1_554 S
C293   C294    1.391   .     A
C293   C724    1.420   .     S
C293   C736    1.405   .     S
C294   C295    1.387   .     A
C294   H313    1.084   .     S
C295   H318    1.080   .     S
C296   C305    1.396   .     A
C296   H315    1.075   .     S
C297   H329    1.083   .     S
C297   C305    1.398   .     A
C297   C304    1.394   .     A
C298   C300    1.476   .     S
C298   C306    1.399   .     A
C299   C13     1.340   1_565 S
C299   N46     1.442   1_565 S
C300   O324    1.296   .     A
C300   O323    1.302   .     A
C301   C302    1.433   .     S
C302   O325    1.291   .     A
C302   O326    1.287   .     A
C303   O327    1.294   .     A
C303   O328    1.300   .     A
C303   C305    1.463   .     S
C304   H314    1.084   .     S
C304   C725    1.405   1_554 S
C306   H316    1.083   .     S
C306   C307    1.386   .     A
C307   C740    1.396   .     S
C307   H413    1.084   1_455 S
C308   N331    1.435   .     S
C308   C722    1.435   1_554 S
C308   C739    1.396   1_554 S
Cu309  O323    1.930   .     S
Cu309  O327    1.910   .     S
Cu309  N320    2.018   .     S
Cu309  O321    1.966   .     S
Cu309  O325    1.962   .     S
Cu309  Cu310   2.686   .     S
Cu310  O328    1.930   .     S
Cu310  O322    1.962   .     S
Cu310  N319    2.018   .     S
Cu310  O324    1.910   .     S
Cu310  O326    1.966   .     S
H311   C13     1.088   1_565 S
H312   N368    1.029   .     S
H317   C355    1.084   .     S
N319   N368    1.287   .     S
N319   H378    1.029   .     S
N320   N415    1.287   1_455 S
N320   H408    1.029   1_455 S
H330   N415    1.029   1_455 S
N331   H332    1.045   .     S
N331   H333    1.045   .     S
N334   H336    1.046   .     S
N334   H335    1.046   .     S
C337   O369    1.293   .     A
C337   O370    1.282   .     A
C337   C347    1.431   .     S
C338   C339    1.423   .     A
C338   C772    1.429   .     S
C338   C788    1.435   .     S
C339   C346    1.420   .     A
C339   C343    1.413   .     A
C340   C344    1.401   .     A
C340   C770    1.429   1_554 S
C340   C773    1.420   1_554 S
C341   C342    1.391   .     A
C341   C772    1.420   .     S
C341   C784    1.405   .     S
C342   C343    1.387   .     A
C342   H361    1.084   .     S
C343   H366    1.080   .     S
C344   C353    1.396   .     A
C344   H363    1.075   .     S
C345   H377    1.083   .     S
C345   C353    1.398   .     A
C345   C352    1.394   .     A
C346   C348    1.476   .     S
C346   C354    1.399   .     A
C347   C61     1.340   1_565 S
C347   N94     1.442   1_565 S
C348   O372    1.296   .     A
C348   O371    1.302   .     A
C349   C350    1.433   .     S
C350   O373    1.291   .     A
C350   O374    1.287   .     A
C351   O375    1.294   .     A
C351   O376    1.300   .     A
C351   C353    1.463   .     S
C352   H362    1.084   .     S
C352   C773    1.405   1_554 S
C354   H364    1.083   .     S
C354   C355    1.386   .     A
C355   C788    1.396   .     S
C356   N379    1.435   .     S
C356   C770    1.435   1_554 S
C356   C787    1.396   1_554 S
Cu357  O371    1.930   .     S
Cu357  O375    1.910   .     S
Cu357  N368    2.018   .     S
Cu357  O369    1.966   .     S
Cu357  O373    1.962   .     S
Cu357  Cu358   2.686   .     S
Cu358  O376    1.930   .     S
Cu358  O370    1.962   .     S
Cu358  N367    2.018   .     S
Cu358  O372    1.910   .     S
Cu358  O374    1.966   .     S
H359   C61     1.088   1_565 S
H360   N416    1.029   .     S
H365   C403    1.084   .     S
N367   N416    1.287   .     S
N367   H426    1.029   .     S
N379   H380    1.045   .     S
N379   H381    1.045   .     S
N382   H384    1.046   .     S
N382   H383    1.046   .     S
C385   O417    1.293   .     A
C385   O418    1.282   .     A
C385   C395    1.431   .     S
C386   C387    1.423   .     A
C386   C820    1.429   .     S
C386   C836    1.435   .     S
C387   C394    1.420   .     A
C387   C391    1.413   .     A
C388   C392    1.401   .     A
C388   C818    1.429   1_554 S
C388   C821    1.420   1_554 S
C389   C390    1.391   .     A
C389   C820    1.420   .     S
C389   C832    1.405   .     S
C390   C391    1.387   .     A
C390   H409    1.084   .     S
C391   H414    1.080   .     S
C392   C401    1.396   .     A
C392   H411    1.075   .     S
C393   H425    1.083   .     S
C393   C401    1.398   .     A
C393   C400    1.394   .     A
C394   C396    1.476   .     S
C394   C402    1.399   .     A
C395   C109    1.340   1_565 S
C395   N142    1.442   1_565 S
C396   O420    1.296   .     A
C396   O419    1.302   .     A
C397   C398    1.433   .     S
C398   O421    1.291   .     A
C398   O422    1.287   .     A
C399   O423    1.294   .     A
C399   O424    1.300   .     A
C399   C401    1.463   .     S
C400   H410    1.084   .     S
C400   C821    1.405   1_554 S
C402   H412    1.083   .     S
C402   C403    1.386   .     A
C403   C836    1.396   .     S
C404   N427    1.435   .     S
C404   C818    1.435   1_554 S
C404   C835    1.396   1_554 S
Cu405  O419    1.930   .     S
Cu405  O423    1.910   .     S
Cu405  N416    2.018   .     S
Cu405  O417    1.966   .     S
Cu405  O421    1.962   .     S
Cu405  Cu406   2.686   .     S
Cu406  O424    1.930   .     S
Cu406  O418    1.962   .     S
Cu406  N415    2.018   .     S
Cu406  O420    1.910   .     S
Cu406  O422    1.966   .     S
H407   C109    1.088   1_565 S
H408   N320    1.029   1_655 S
H413   C307    1.084   1_655 S
N415   N320    1.287   1_655 S
N415   H330    1.029   1_655 S
N427   H428    1.045   .     S
N427   H429    1.045   .     S
N430   H432    1.046   .     S
N430   H431    1.046   .     S
C433   O465    1.293   .     A
C433   O466    1.282   .     A
C433   C443    1.431   .     S
C434   C435    1.423   .     A
C434   C4      1.429   1_556 S
C434   C20     1.435   1_556 S
C435   C442    1.420   .     A
C435   C439    1.413   .     A
C436   C440    1.401   .     A
C437   C438    1.391   .     A
C437   C4      1.420   1_556 S
C437   C16     1.405   1_556 S
C438   C439    1.387   .     A
C438   H457    1.084   .     S
C439   H462    1.080   .     S
C440   C449    1.396   .     A
C440   H459    1.075   .     S
C441   H473    1.083   .     S
C441   C449    1.398   .     A
C441   C448    1.394   .     A
C442   C444    1.476   .     S
C442   C450    1.399   .     A
C443   C589    1.340   .     S
C443   N622    1.442   .     S
C444   O468    1.296   .     A
C444   O467    1.302   .     A
C445   C446    1.433   .     S
C445   C731    1.340   1_545 S
C445   H743    1.088   1_545 S
C446   O469    1.291   .     A
C446   O470    1.287   .     A
C447   O471    1.294   .     A
C447   O472    1.300   .     A
C447   C449    1.463   .     S
C448   H458    1.084   .     S
C450   H460    1.083   .     S
C450   C451    1.386   .     A
C451   C20     1.396   1_556 S
C451   H557    1.084   1_455 S
C452   N475    1.435   .     S
Cu453  O467    1.930   .     S
Cu453  O471    1.910   .     S
Cu453  N464    2.018   .     S
Cu453  O465    1.966   .     S
Cu453  O469    1.962   .     S
Cu453  Cu454   2.686   .     S
Cu454  O472    1.930   .     S
Cu454  O466    1.962   .     S
Cu454  N463    2.018   .     S
Cu454  O468    1.910   .     S
Cu454  O470    1.966   .     S
H455   C589    1.088   .     S
H456   N512    1.029   .     S
H461   C499    1.084   .     S
N463   N512    1.287   .     S
N463   H522    1.029   .     S
N464   N559    1.287   1_455 S
N464   H552    1.029   1_455 S
H474   N559    1.029   1_455 S
N475   H476    1.045   .     S
N475   H477    1.045   .     S
N478   H480    1.046   .     S
N478   H479    1.046   .     S
N478   C731    1.442   1_545 S
C481   O513    1.293   .     A
C481   O514    1.282   .     A
C481   C491    1.431   .     S
C482   C483    1.423   .     A
C482   C52     1.429   1_556 S
C482   C68     1.435   1_556 S
C483   C490    1.420   .     A
C483   C487    1.413   .     A
C484   C488    1.401   .     A
C485   C486    1.391   .     A
C485   C52     1.420   1_556 S
C485   C64     1.405   1_556 S
C486   C487    1.387   .     A
C486   H505    1.084   .     S
C487   H510    1.080   .     S
C488   C497    1.396   .     A
C488   H507    1.075   .     S
C489   H521    1.083   .     S
C489   C497    1.398   .     A
C489   C496    1.394   .     A
C490   C492    1.476   .     S
C490   C498    1.399   .     A
C491   C637    1.340   .     S
C491   N670    1.442   .     S
C492   O516    1.296   .     A
C492   O515    1.302   .     A
C493   C494    1.433   .     S
C493   C779    1.340   1_545 S
C493   H791    1.088   1_545 S
C494   O517    1.291   .     A
C494   O518    1.287   .     A
C495   O519    1.294   .     A
C495   O520    1.300   .     A
C495   C497    1.463   .     S
C496   H506    1.084   .     S
C498   H508    1.083   .     S
C498   C499    1.386   .     A
C499   C68     1.396   1_556 S
C500   N523    1.435   .     S
Cu501  O515    1.930   .     S
Cu501  O519    1.910   .     S
Cu501  N512    2.018   .     S
Cu501  O513    1.966   .     S
Cu501  O517    1.962   .     S
Cu501  Cu502   2.686   .     S
Cu502  O520    1.930   .     S
Cu502  O514    1.962   .     S
Cu502  N511    2.018   .     S
Cu502  O516    1.910   .     S
Cu502  O518    1.966   .     S
H503   C637    1.088   .     S
H504   N560    1.029   .     S
H509   C547    1.084   .     S
N511   N560    1.287   .     S
N511   H570    1.029   .     S
N523   H524    1.045   .     S
N523   H525    1.045   .     S
N526   H528    1.046   .     S
N526   H527    1.046   .     S
N526   C779    1.442   1_545 S
C529   O561    1.293   .     A
C529   O562    1.282   .     A
C529   C539    1.431   .     S
C530   C531    1.423   .     A
C530   C100    1.429   1_556 S
C530   C116    1.435   1_556 S
C531   C538    1.420   .     A
C531   C535    1.413   .     A
C532   C536    1.401   .     A
C533   C534    1.391   .     A
C533   C100    1.420   1_556 S
C533   C112    1.405   1_556 S
C534   C535    1.387   .     A
C534   H553    1.084   .     S
C535   H558    1.080   .     S
C536   C545    1.396   .     A
C536   H555    1.075   .     S
C537   H569    1.083   .     S
C537   C545    1.398   .     A
C537   C544    1.394   .     A
C538   C540    1.476   .     S
C538   C546    1.399   .     A
C539   C685    1.340   .     S
C539   N718    1.442   .     S
C540   O564    1.296   .     A
C540   O563    1.302   .     A
C541   C542    1.433   .     S
C541   C827    1.340   1_545 S
C541   H839    1.088   1_545 S
C542   O565    1.291   .     A
C542   O566    1.287   .     A
C543   O567    1.294   .     A
C543   O568    1.300   .     A
C543   C545    1.463   .     S
C544   H554    1.084   .     S
C546   H556    1.083   .     S
C546   C547    1.386   .     A
C547   C116    1.396   1_556 S
C548   N571    1.435   .     S
Cu549  O563    1.930   .     S
Cu549  O567    1.910   .     S
Cu549  N560    2.018   .     S
Cu549  O561    1.966   .     S
Cu549  O565    1.962   .     S
Cu549  Cu550   2.686   .     S
Cu550  O568    1.930   .     S
Cu550  O562    1.962   .     S
Cu550  N559    2.018   .     S
Cu550  O564    1.910   .     S
Cu550  O566    1.966   .     S
H551   C685    1.088   .     S
H552   N464    1.029   1_655 S
H557   C451    1.084   1_655 S
N559   N464    1.287   1_655 S
N559   H474    1.029   1_655 S
N571   H572    1.045   .     S
N571   H573    1.045   .     S
N574   H576    1.046   .     S
N574   H575    1.046   .     S
N574   C827    1.442   1_545 S
C577   O609    1.293   .     A
C577   O610    1.282   .     A
C577   C587    1.431   .     S
C578   C579    1.423   .     A
C578   C148    1.429   1_556 S
C578   C164    1.435   1_556 S
C579   C586    1.420   .     A
C579   C583    1.413   .     A
C580   C584    1.401   .     A
C581   C582    1.391   .     A
C581   C148    1.420   1_556 S
C581   C160    1.405   1_556 S
C582   C583    1.387   .     A
C582   H601    1.084   .     S
C583   H606    1.080   .     S
C584   C593    1.396   .     A
C584   H603    1.075   .     S
C585   H617    1.083   .     S
C585   C593    1.398   .     A
C585   C592    1.394   .     A
C586   C588    1.476   .     S
C586   C594    1.399   .     A
C587   C733    1.340   .     S
C587   N766    1.442   .     S
C588   O612    1.296   .     A
C588   O611    1.302   .     A
C589   C590    1.433   .     S
C590   O613    1.291   .     A
C590   O614    1.287   .     A
C591   O615    1.294   .     A
C591   O616    1.300   .     A
C591   C593    1.463   .     S
C592   H602    1.084   .     S
C594   H604    1.083   .     S
C594   C595    1.386   .     A
C595   C164    1.396   1_556 S
C595   H701    1.084   1_455 S
C596   N619    1.435   .     S
Cu597  O611    1.930   .     S
Cu597  O615    1.910   .     S
Cu597  N608    2.018   .     S
Cu597  O609    1.966   .     S
Cu597  O613    1.962   .     S
Cu597  Cu598   2.686   .     S
Cu598  O616    1.930   .     S
Cu598  O610    1.962   .     S
Cu598  N607    2.018   .     S
Cu598  O612    1.910   .     S
Cu598  O614    1.966   .     S
H599   C733    1.088   .     S
H600   N656    1.029   .     S
H605   C643    1.084   .     S
N607   N656    1.287   .     S
N607   H666    1.029   .     S
N608   N703    1.287   1_455 S
N608   H696    1.029   1_455 S
H618   N703    1.029   1_455 S
N619   H620    1.045   .     S
N619   H621    1.045   .     S
N622   H624    1.046   .     S
N622   H623    1.046   .     S
C625   O657    1.293   .     A
C625   O658    1.282   .     A
C625   C635    1.431   .     S
C626   C627    1.423   .     A
C626   C196    1.429   1_556 S
C626   C212    1.435   1_556 S
C627   C634    1.420   .     A
C627   C631    1.413   .     A
C628   C632    1.401   .     A
C629   C630    1.391   .     A
C629   C196    1.420   1_556 S
C629   C208    1.405   1_556 S
C630   C631    1.387   .     A
C630   H649    1.084   .     S
C631   H654    1.080   .     S
C632   C641    1.396   .     A
C632   H651    1.075   .     S
C633   H665    1.083   .     S
C633   C641    1.398   .     A
C633   C640    1.394   .     A
C634   C636    1.476   .     S
C634   C642    1.399   .     A
C635   C781    1.340   .     S
C635   N814    1.442   .     S
C636   O660    1.296   .     A
C636   O659    1.302   .     A
C637   C638    1.433   .     S
C638   O661    1.291   .     A
C638   O662    1.287   .     A
C639   O663    1.294   .     A
C639   O664    1.300   .     A
C639   C641    1.463   .     S
C640   H650    1.084   .     S
C642   H652    1.083   .     S
C642   C643    1.386   .     A
C643   C212    1.396   1_556 S
C644   N667    1.435   .     S
Cu645  O659    1.930   .     S
Cu645  O663    1.910   .     S
Cu645  N656    2.018   .     S
Cu645  O657    1.966   .     S
Cu645  O661    1.962   .     S
Cu645  Cu646   2.686   .     S
Cu646  O664    1.930   .     S
Cu646  O658    1.962   .     S
Cu646  N655    2.018   .     S
Cu646  O660    1.910   .     S
Cu646  O662    1.966   .     S
H647   C781    1.088   .     S
H648   N704    1.029   .     S
H653   C691    1.084   .     S
N655   N704    1.287   .     S
N655   H714    1.029   .     S
N667   H668    1.045   .     S
N667   H669    1.045   .     S
N670   H672    1.046   .     S
N670   H671    1.046   .     S
C673   O705    1.293   .     A
C673   O706    1.282   .     A
C673   C683    1.431   .     S
C674   C675    1.423   .     A
C674   C244    1.429   1_556 S
C674   C260    1.435   1_556 S
C675   C682    1.420   .     A
C675   C679    1.413   .     A
C676   C680    1.401   .     A
C677   C678    1.391   .     A
C677   C244    1.420   1_556 S
C677   C256    1.405   1_556 S
C678   C679    1.387   .     A
C678   H697    1.084   .     S
C679   H702    1.080   .     S
C680   C689    1.396   .     A
C680   H699    1.075   .     S
C681   H713    1.083   .     S
C681   C689    1.398   .     A
C681   C688    1.394   .     A
C682   C684    1.476   .     S
C682   C690    1.399   .     A
C683   C829    1.340   .     S
C683   N862    1.442   .     S
C684   O708    1.296   .     A
C684   O707    1.302   .     A
C685   C686    1.433   .     S
C686   O709    1.291   .     A
C686   O710    1.287   .     A
C687   O711    1.294   .     A
C687   O712    1.300   .     A
C687   C689    1.463   .     S
C688   H698    1.084   .     S
C690   H700    1.083   .     S
C690   C691    1.386   .     A
C691   C260    1.396   1_556 S
C692   N715    1.435   .     S
Cu693  O707    1.930   .     S
Cu693  O711    1.910   .     S
Cu693  N704    2.018   .     S
Cu693  O705    1.966   .     S
Cu693  O709    1.962   .     S
Cu693  Cu694   2.686   .     S
Cu694  O712    1.930   .     S
Cu694  O706    1.962   .     S
Cu694  N703    2.018   .     S
Cu694  O708    1.910   .     S
Cu694  O710    1.966   .     S
H695   C829    1.088   .     S
H696   N608    1.029   1_655 S
H701   C595    1.084   1_655 S
N703   N608    1.287   1_655 S
N703   H618    1.029   1_655 S
N715   H716    1.045   .     S
N715   H717    1.045   .     S
N718   H720    1.046   .     S
N718   H719    1.046   .     S
C721   O753    1.293   .     A
C721   O754    1.282   .     A
C721   C731    1.431   .     S
C722   C723    1.423   .     A
C722   C292    1.429   1_556 S
C722   C308    1.435   1_556 S
C723   C730    1.420   .     A
C723   C727    1.413   .     A
C724   C728    1.401   .     A
C725   C726    1.391   .     A
C725   C292    1.420   1_556 S
C725   C304    1.405   1_556 S
C726   C727    1.387   .     A
C726   H745    1.084   .     S
C727   H750    1.080   .     S
C728   C737    1.396   .     A
C728   H747    1.075   .     S
C729   H761    1.083   .     S
C729   C737    1.398   .     A
C729   C736    1.394   .     A
C730   C732    1.476   .     S
C730   C738    1.399   .     A
C731   C445    1.340   1_565 S
C731   N478    1.442   1_565 S
C732   O756    1.296   .     A
C732   O755    1.302   .     A
C733   C734    1.433   .     S
C734   O757    1.291   .     A
C734   O758    1.287   .     A
C735   O759    1.294   .     A
C735   O760    1.300   .     A
C735   C737    1.463   .     S
C736   H746    1.084   .     S
C738   H748    1.083   .     S
C738   C739    1.386   .     A
C739   C308    1.396   1_556 S
C739   H845    1.084   1_455 S
C740   N763    1.435   .     S
Cu741  O755    1.930   .     S
Cu741  O759    1.910   .     S
Cu741  N752    2.018   .     S
Cu741  O753    1.966   .     S
Cu741  O757    1.962   .     S
Cu741  Cu742   2.686   .     S
Cu742  O760    1.930   .     S
Cu742  O754    1.962   .     S
Cu742  N751    2.018   .     S
Cu742  O756    1.910   .     S
Cu742  O758    1.966   .     S
H743   C445    1.088   1_565 S
H744   N800    1.029   .     S
H749   C787    1.084   .     S
N751   N800    1.287   .     S
N751   H810    1.029   .     S
N752   N847    1.287   1_455 S
N752   H840    1.029   1_455 S
H762   N847    1.029   1_455 S
N763   H764    1.045   .     S
N763   H765    1.045   .     S
N766   H768    1.046   .     S
N766   H767    1.046   .     S
C769   O801    1.293   .     A
C769   O802    1.282   .     A
C769   C779    1.431   .     S
C770   C771    1.423   .     A
C770   C340    1.429   1_556 S
C770   C356    1.435   1_556 S
C771   C778    1.420   .     A
C771   C775    1.413   .     A
C772   C776    1.401   .     A
C773   C774    1.391   .     A
C773   C340    1.420   1_556 S
C773   C352    1.405   1_556 S
C774   C775    1.387   .     A
C774   H793    1.084   .     S
C775   H798    1.080   .     S
C776   C785    1.396   .     A
C776   H795    1.075   .     S
C777   H809    1.083   .     S
C777   C785    1.398   .     A
C777   C784    1.394   .     A
C778   C780    1.476   .     S
C778   C786    1.399   .     A
C779   C493    1.340   1_565 S
C779   N526    1.442   1_565 S
C780   O804    1.296   .     A
C780   O803    1.302   .     A
C781   C782    1.433   .     S
C782   O805    1.291   .     A
C782   O806    1.287   .     A
C783   O807    1.294   .     A
C783   O808    1.300   .     A
C783   C785    1.463   .     S
C784   H794    1.084   .     S
C786   H796    1.083   .     S
C786   C787    1.386   .     A
C787   C356    1.396   1_556 S
C788   N811    1.435   .     S
Cu789  O803    1.930   .     S
Cu789  O807    1.910   .     S
Cu789  N800    2.018   .     S
Cu789  O801    1.966   .     S
Cu789  O805    1.962   .     S
Cu789  Cu790   2.686   .     S
Cu790  O808    1.930   .     S
Cu790  O802    1.962   .     S
Cu790  N799    2.018   .     S
Cu790  O804    1.910   .     S
Cu790  O806    1.966   .     S
H791   C493    1.088   1_565 S
H792   N848    1.029   .     S
H797   C835    1.084   .     S
N799   N848    1.287   .     S
N799   H858    1.029   .     S
N811   H812    1.045   .     S
N811   H813    1.045   .     S
N814   H816    1.046   .     S
N814   H815    1.046   .     S
C817   O849    1.293   .     A
C817   O850    1.282   .     A
C817   C827    1.431   .     S
C818   C819    1.423   .     A
C818   C388    1.429   1_556 S
C818   C404    1.435   1_556 S
C819   C826    1.420   .     A
C819   C823    1.413   .     A
C820   C824    1.401   .     A
C821   C822    1.391   .     A
C821   C388    1.420   1_556 S
C821   C400    1.405   1_556 S
C822   C823    1.387   .     A
C822   H841    1.084   .     S
C823   H846    1.080   .     S
C824   C833    1.396   .     A
C824   H843    1.075   .     S
C825   H857    1.083   .     S
C825   C833    1.398   .     A
C825   C832    1.394   .     A
C826   C828    1.476   .     S
C826   C834    1.399   .     A
C827   C541    1.340   1_565 S
C827   N574    1.442   1_565 S
C828   O852    1.296   .     A
C828   O851    1.302   .     A
C829   C830    1.433   .     S
C830   O853    1.291   .     A
C830   O854    1.287   .     A
C831   O855    1.294   .     A
C831   O856    1.300   .     A
C831   C833    1.463   .     S
C832   H842    1.084   .     S
C834   H844    1.083   .     S
C834   C835    1.386   .     A
C835   C404    1.396   1_556 S
C836   N859    1.435   .     S
Cu837  O851    1.930   .     S
Cu837  O855    1.910   .     S
Cu837  N848    2.018   .     S
Cu837  O849    1.966   .     S
Cu837  O853    1.962   .     S
Cu837  Cu838   2.686   .     S
Cu838  O856    1.930   .     S
Cu838  O850    1.962   .     S
Cu838  N847    2.018   .     S
Cu838  O852    1.910   .     S
Cu838  O854    1.966   .     S
H839   C541    1.088   1_565 S
H840   N752    1.029   1_655 S
H845   C739    1.084   1_655 S
N847   N752    1.287   1_655 S
N847   H762    1.029   1_655 S
N859   H860    1.045   .     S
N859   H861    1.045   .     S
N862   H864    1.046   .     S
N862   H863    1.046   .     S
