data_str_m2_o1_o10_pcu_sym.151
_audit_creation_date              2020-01-03
_audit_creation_method            'Materials Studio'
_symmetry_space_group_name_H-M    'P1'
_symmetry_Int_Tables_number       1
_symmetry_cell_setting            triclinic
loop_
_symmetry_equiv_pos_as_xyz
  x,y,z
_cell_length_a                    26.1872
_cell_length_b                    32.4004
_cell_length_c                    28.5785
_cell_angle_alpha                 89.7557
_cell_angle_beta                  97.9200
_cell_angle_gamma                 90.2274
loop_
_atom_site_label
_atom_site_type_symbol
_atom_site_fract_x
_atom_site_fract_y
_atom_site_fract_z
_atom_site_U_iso_or_equiv
_atom_site_adp_type
_atom_site_occupancy
C1     C     0.16804   0.08743   0.16698   0.00000  Uiso   1.00
C2     C     0.16530   0.24591   0.16635   0.00000  Uiso   1.00
C3     C     0.06792   0.16667   0.15458   0.00000  Uiso   1.00
C4     C     0.26541   0.16667   0.17875   0.00000  Uiso   1.00
C5     C     0.01264   0.16673   0.14792   0.00000  Uiso   1.00
C6     C     0.32069   0.16661   0.18542   0.00000  Uiso   1.00
C7     C     0.13854   0.02232   0.13000   0.00000  Uiso   1.00
C8     C     0.19479   0.31102   0.20333   0.00000  Uiso   1.00
C9     C     0.13635   0.31291   0.12916   0.00000  Uiso   1.00
C10    C     0.19698   0.02042   0.20417   0.00000  Uiso   1.00
C11    C     0.16499   0.29049   0.16606   0.00000  Uiso   1.00
C12    C     0.16834   0.04284   0.16727   0.00000  Uiso   1.00
C13    C     0.13359   0.14184   0.02074   0.00000  Uiso   1.00
C14    C     0.19974   0.19149   0.31260   0.00000  Uiso   1.00
C15    C     0.13359   0.14186   0.30448   0.00000  Uiso   1.00
C16    C     0.19975   0.19147   0.02885   0.00000  Uiso   1.00
Cu17   Cu    0.16667   0.16667   0.21355   0.00000  Uiso   1.00
Cu18   Cu    0.16667   0.16666   0.11978   0.00000  Uiso   1.00
H19    H     0.32599   0.16688   0.11194   0.00000  Uiso   1.00
H20    H     0.00734   0.16645   0.22140   0.00000  Uiso   1.00
H21    H     0.11591   0.03964   0.10195   0.00000  Uiso   1.00
H22    H     0.21742   0.29370   0.23138   0.00000  Uiso   1.00
H23    H     0.10714   0.12191   0.03616   0.00000  Uiso   1.00
H24    H     0.22619   0.21143   0.29717   0.00000  Uiso   1.00
H25    H     0.10711   0.12195   0.28257   0.00000  Uiso   1.00
H26    H     0.22622   0.21138   0.05077   0.00000  Uiso   1.00
N27    N     0.16668   0.16668   0.28403   0.00000  Uiso   1.00
N28    N     0.16665   0.16666   0.04931   0.00000  Uiso   1.00
O29    O     0.16666   0.10655   0.20625   0.00000  Uiso   1.00
O30    O     0.16667   0.22678   0.12709   0.00000  Uiso   1.00
O31    O     0.16666   0.10654   0.12706   0.00000  Uiso   1.00
O32    O     0.16667   0.22679   0.20628   0.00000  Uiso   1.00
O33    O     0.09161   0.16667   0.19712   0.00000  Uiso   1.00
O34    O     0.24172   0.16666   0.13621   0.00000  Uiso   1.00
O35    O     0.09161   0.16666   0.11793   0.00000  Uiso   1.00
O36    O     0.24172   0.16667   0.21540   0.00000  Uiso   1.00
I37    I     0.08579   0.28544   0.07301   0.00000  Uiso   1.00
I38    I     0.24755   0.04790   0.26032   0.00000  Uiso   1.00
C39    C     0.50137   0.08743   0.16698   0.00000  Uiso   1.00
C40    C     0.49863   0.24591   0.16635   0.00000  Uiso   1.00
C41    C     0.40126   0.16667   0.15458   0.00000  Uiso   1.00
C42    C     0.59874   0.16667   0.17875   0.00000  Uiso   1.00
C43    C     0.34598   0.16673   0.14792   0.00000  Uiso   1.00
C44    C     0.65402   0.16661   0.18542   0.00000  Uiso   1.00
C45    C     0.47187   0.02232   0.13000   0.00000  Uiso   1.00
C46    C     0.52813   0.31102   0.20333   0.00000  Uiso   1.00
C47    C     0.46968   0.31291   0.12916   0.00000  Uiso   1.00
C48    C     0.53032   0.02042   0.20417   0.00000  Uiso   1.00
C49    C     0.49832   0.29049   0.16606   0.00000  Uiso   1.00
C50    C     0.50168   0.04284   0.16727   0.00000  Uiso   1.00
C51    C     0.46692   0.14184   0.02074   0.00000  Uiso   1.00
C52    C     0.53308   0.19149   0.31260   0.00000  Uiso   1.00
C53    C     0.46692   0.14186   0.30448   0.00000  Uiso   1.00
C54    C     0.53308   0.19147   0.02885   0.00000  Uiso   1.00
Cu55   Cu    0.50000   0.16667   0.21355   0.00000  Uiso   1.00
Cu56   Cu    0.50000   0.16666   0.11978   0.00000  Uiso   1.00
H57    H     0.65933   0.16688   0.11194   0.00000  Uiso   1.00
H58    H     0.34067   0.16645   0.22140   0.00000  Uiso   1.00
H59    H     0.44924   0.03964   0.10195   0.00000  Uiso   1.00
H60    H     0.55075   0.29370   0.23138   0.00000  Uiso   1.00
H61    H     0.44048   0.12191   0.03616   0.00000  Uiso   1.00
H62    H     0.55952   0.21143   0.29717   0.00000  Uiso   1.00
H63    H     0.44044   0.12195   0.28257   0.00000  Uiso   1.00
H64    H     0.55955   0.21138   0.05077   0.00000  Uiso   1.00
N65    N     0.50001   0.16668   0.28403   0.00000  Uiso   1.00
N66    N     0.49999   0.16666   0.04931   0.00000  Uiso   1.00
O67    O     0.50000   0.10655   0.20625   0.00000  Uiso   1.00
O68    O     0.50000   0.22678   0.12709   0.00000  Uiso   1.00
O69    O     0.50000   0.10654   0.12706   0.00000  Uiso   1.00
O70    O     0.50000   0.22679   0.20628   0.00000  Uiso   1.00
O71    O     0.42495   0.16667   0.19712   0.00000  Uiso   1.00
O72    O     0.57505   0.16666   0.13621   0.00000  Uiso   1.00
O73    O     0.42494   0.16666   0.11793   0.00000  Uiso   1.00
O74    O     0.57506   0.16667   0.21540   0.00000  Uiso   1.00
I75    I     0.41912   0.28544   0.07301   0.00000  Uiso   1.00
I76    I     0.58088   0.04790   0.26032   0.00000  Uiso   1.00
C77    C     0.83470   0.08743   0.16698   0.00000  Uiso   1.00
C78    C     0.83196   0.24591   0.16635   0.00000  Uiso   1.00
C79    C     0.73459   0.16667   0.15458   0.00000  Uiso   1.00
C80    C     0.93208   0.16667   0.17875   0.00000  Uiso   1.00
C81    C     0.67931   0.16673   0.14792   0.00000  Uiso   1.00
C82    C     0.98736   0.16661   0.18542   0.00000  Uiso   1.00
C83    C     0.80520   0.02232   0.13000   0.00000  Uiso   1.00
C84    C     0.86146   0.31102   0.20333   0.00000  Uiso   1.00
C85    C     0.80301   0.31291   0.12916   0.00000  Uiso   1.00
C86    C     0.86365   0.02042   0.20417   0.00000  Uiso   1.00
C87    C     0.83165   0.29049   0.16606   0.00000  Uiso   1.00
C88    C     0.83501   0.04284   0.16727   0.00000  Uiso   1.00
C89    C     0.80026   0.14184   0.02074   0.00000  Uiso   1.00
C90    C     0.86641   0.19149   0.31260   0.00000  Uiso   1.00
C91    C     0.80025   0.14186   0.30448   0.00000  Uiso   1.00
C92    C     0.86641   0.19147   0.02885   0.00000  Uiso   1.00
Cu93   Cu    0.83333   0.16667   0.21355   0.00000  Uiso   1.00
Cu94   Cu    0.83333   0.16666   0.11978   0.00000  Uiso   1.00
H95    H     0.99266   0.16688   0.11194   0.00000  Uiso   1.00
H96    H     0.67401   0.16645   0.22140   0.00000  Uiso   1.00
H97    H     0.78258   0.03964   0.10195   0.00000  Uiso   1.00
H98    H     0.88409   0.29370   0.23138   0.00000  Uiso   1.00
H99    H     0.77381   0.12191   0.03616   0.00000  Uiso   1.00
H100   H     0.89285   0.21143   0.29717   0.00000  Uiso   1.00
H101   H     0.77378   0.12195   0.28257   0.00000  Uiso   1.00
H102   H     0.89289   0.21138   0.05077   0.00000  Uiso   1.00
N103   N     0.83335   0.16668   0.28403   0.00000  Uiso   1.00
N104   N     0.83332   0.16666   0.04931   0.00000  Uiso   1.00
O105   O     0.83333   0.10655   0.20625   0.00000  Uiso   1.00
O106   O     0.83334   0.22678   0.12709   0.00000  Uiso   1.00
O107   O     0.83333   0.10654   0.12706   0.00000  Uiso   1.00
O108   O     0.83334   0.22679   0.20628   0.00000  Uiso   1.00
O109   O     0.75828   0.16667   0.19712   0.00000  Uiso   1.00
O110   O     0.90839   0.16666   0.13621   0.00000  Uiso   1.00
O111   O     0.75828   0.16666   0.11793   0.00000  Uiso   1.00
O112   O     0.90839   0.16667   0.21540   0.00000  Uiso   1.00
I113   I     0.75245   0.28544   0.07301   0.00000  Uiso   1.00
I114   I     0.91421   0.04790   0.26032   0.00000  Uiso   1.00
C115   C     0.16804   0.42076   0.16698   0.00000  Uiso   1.00
C116   C     0.16530   0.57924   0.16635   0.00000  Uiso   1.00
C117   C     0.06792   0.50000   0.15458   0.00000  Uiso   1.00
C118   C     0.26541   0.50000   0.17875   0.00000  Uiso   1.00
C119   C     0.01264   0.50006   0.14792   0.00000  Uiso   1.00
C120   C     0.32069   0.49994   0.18542   0.00000  Uiso   1.00
C121   C     0.13854   0.35565   0.13000   0.00000  Uiso   1.00
C122   C     0.19479   0.64435   0.20333   0.00000  Uiso   1.00
C123   C     0.13635   0.64624   0.12916   0.00000  Uiso   1.00
C124   C     0.19698   0.35376   0.20417   0.00000  Uiso   1.00
C125   C     0.16499   0.62383   0.16606   0.00000  Uiso   1.00
C126   C     0.16834   0.37617   0.16727   0.00000  Uiso   1.00
C127   C     0.13359   0.47517   0.02074   0.00000  Uiso   1.00
C128   C     0.19974   0.52483   0.31260   0.00000  Uiso   1.00
C129   C     0.13359   0.47519   0.30448   0.00000  Uiso   1.00
C130   C     0.19975   0.52481   0.02885   0.00000  Uiso   1.00
Cu131  Cu    0.16667   0.50001   0.21355   0.00000  Uiso   1.00
Cu132  Cu    0.16667   0.49999   0.11978   0.00000  Uiso   1.00
H133   H     0.32599   0.50022   0.11194   0.00000  Uiso   1.00
H134   H     0.00734   0.49978   0.22140   0.00000  Uiso   1.00
H135   H     0.11591   0.37297   0.10195   0.00000  Uiso   1.00
H136   H     0.21742   0.62703   0.23138   0.00000  Uiso   1.00
H137   H     0.10714   0.45524   0.03616   0.00000  Uiso   1.00
H138   H     0.22619   0.54476   0.29717   0.00000  Uiso   1.00
H139   H     0.10711   0.45529   0.28257   0.00000  Uiso   1.00
H140   H     0.22622   0.54471   0.05077   0.00000  Uiso   1.00
N141   N     0.16668   0.50001   0.28403   0.00000  Uiso   1.00
N142   N     0.16665   0.49999   0.04931   0.00000  Uiso   1.00
O143   O     0.16666   0.43989   0.20625   0.00000  Uiso   1.00
O144   O     0.16667   0.56011   0.12709   0.00000  Uiso   1.00
O145   O     0.16666   0.43988   0.12706   0.00000  Uiso   1.00
O146   O     0.16667   0.56012   0.20628   0.00000  Uiso   1.00
O147   O     0.09161   0.50000   0.19712   0.00000  Uiso   1.00
O148   O     0.24172   0.50000   0.13621   0.00000  Uiso   1.00
O149   O     0.09161   0.49999   0.11793   0.00000  Uiso   1.00
O150   O     0.24172   0.50001   0.21540   0.00000  Uiso   1.00
I151   I     0.08579   0.61877   0.07301   0.00000  Uiso   1.00
I152   I     0.24755   0.38123   0.26032   0.00000  Uiso   1.00
C153   C     0.50137   0.42076   0.16698   0.00000  Uiso   1.00
C154   C     0.49863   0.57924   0.16635   0.00000  Uiso   1.00
C155   C     0.40126   0.50000   0.15458   0.00000  Uiso   1.00
C156   C     0.59874   0.50000   0.17875   0.00000  Uiso   1.00
C157   C     0.34598   0.50006   0.14792   0.00000  Uiso   1.00
C158   C     0.65402   0.49994   0.18542   0.00000  Uiso   1.00
C159   C     0.47187   0.35565   0.13000   0.00000  Uiso   1.00
C160   C     0.52813   0.64435   0.20333   0.00000  Uiso   1.00
C161   C     0.46968   0.64624   0.12916   0.00000  Uiso   1.00
C162   C     0.53032   0.35376   0.20417   0.00000  Uiso   1.00
C163   C     0.49832   0.62383   0.16606   0.00000  Uiso   1.00
C164   C     0.50168   0.37617   0.16727   0.00000  Uiso   1.00
C165   C     0.46692   0.47517   0.02074   0.00000  Uiso   1.00
C166   C     0.53308   0.52483   0.31260   0.00000  Uiso   1.00
C167   C     0.46692   0.47519   0.30448   0.00000  Uiso   1.00
C168   C     0.53308   0.52481   0.02885   0.00000  Uiso   1.00
Cu169  Cu    0.50000   0.50001   0.21355   0.00000  Uiso   1.00
Cu170  Cu    0.50000   0.49999   0.11978   0.00000  Uiso   1.00
H171   H     0.65933   0.50022   0.11194   0.00000  Uiso   1.00
H172   H     0.34067   0.49978   0.22140   0.00000  Uiso   1.00
H173   H     0.44924   0.37297   0.10195   0.00000  Uiso   1.00
H174   H     0.55075   0.62703   0.23138   0.00000  Uiso   1.00
H175   H     0.44048   0.45524   0.03616   0.00000  Uiso   1.00
H176   H     0.55952   0.54476   0.29717   0.00000  Uiso   1.00
H177   H     0.44044   0.45529   0.28257   0.00000  Uiso   1.00
H178   H     0.55955   0.54471   0.05077   0.00000  Uiso   1.00
N179   N     0.50001   0.50001   0.28403   0.00000  Uiso   1.00
N180   N     0.49999   0.49999   0.04931   0.00000  Uiso   1.00
O181   O     0.50000   0.43989   0.20625   0.00000  Uiso   1.00
O182   O     0.50000   0.56011   0.12709   0.00000  Uiso   1.00
O183   O     0.50000   0.43988   0.12706   0.00000  Uiso   1.00
O184   O     0.50000   0.56012   0.20628   0.00000  Uiso   1.00
O185   O     0.42495   0.50000   0.19712   0.00000  Uiso   1.00
O186   O     0.57505   0.50000   0.13621   0.00000  Uiso   1.00
O187   O     0.42494   0.49999   0.11793   0.00000  Uiso   1.00
O188   O     0.57506   0.50001   0.21540   0.00000  Uiso   1.00
I189   I     0.41912   0.61877   0.07301   0.00000  Uiso   1.00
I190   I     0.58088   0.38123   0.26032   0.00000  Uiso   1.00
C191   C     0.83470   0.42076   0.16698   0.00000  Uiso   1.00
C192   C     0.83196   0.57924   0.16635   0.00000  Uiso   1.00
C193   C     0.73459   0.50000   0.15458   0.00000  Uiso   1.00
C194   C     0.93208   0.50000   0.17875   0.00000  Uiso   1.00
C195   C     0.67931   0.50006   0.14792   0.00000  Uiso   1.00
C196   C     0.98736   0.49994   0.18542   0.00000  Uiso   1.00
C197   C     0.80520   0.35565   0.13000   0.00000  Uiso   1.00
C198   C     0.86146   0.64435   0.20333   0.00000  Uiso   1.00
C199   C     0.80301   0.64624   0.12916   0.00000  Uiso   1.00
C200   C     0.86365   0.35376   0.20417   0.00000  Uiso   1.00
C201   C     0.83165   0.62383   0.16606   0.00000  Uiso   1.00
C202   C     0.83501   0.37617   0.16727   0.00000  Uiso   1.00
C203   C     0.80026   0.47517   0.02074   0.00000  Uiso   1.00
C204   C     0.86641   0.52483   0.31260   0.00000  Uiso   1.00
C205   C     0.80025   0.47519   0.30448   0.00000  Uiso   1.00
C206   C     0.86641   0.52481   0.02885   0.00000  Uiso   1.00
Cu207  Cu    0.83333   0.50001   0.21355   0.00000  Uiso   1.00
Cu208  Cu    0.83333   0.49999   0.11978   0.00000  Uiso   1.00
H209   H     0.99266   0.50022   0.11194   0.00000  Uiso   1.00
H210   H     0.67401   0.49978   0.22140   0.00000  Uiso   1.00
H211   H     0.78258   0.37297   0.10195   0.00000  Uiso   1.00
H212   H     0.88409   0.62703   0.23138   0.00000  Uiso   1.00
H213   H     0.77381   0.45524   0.03616   0.00000  Uiso   1.00
H214   H     0.89285   0.54476   0.29717   0.00000  Uiso   1.00
H215   H     0.77378   0.45529   0.28257   0.00000  Uiso   1.00
H216   H     0.89289   0.54471   0.05077   0.00000  Uiso   1.00
N217   N     0.83335   0.50001   0.28403   0.00000  Uiso   1.00
N218   N     0.83332   0.49999   0.04931   0.00000  Uiso   1.00
O219   O     0.83333   0.43989   0.20625   0.00000  Uiso   1.00
O220   O     0.83334   0.56011   0.12709   0.00000  Uiso   1.00
O221   O     0.83333   0.43988   0.12706   0.00000  Uiso   1.00
O222   O     0.83334   0.56012   0.20628   0.00000  Uiso   1.00
O223   O     0.75828   0.50000   0.19712   0.00000  Uiso   1.00
O224   O     0.90839   0.50000   0.13621   0.00000  Uiso   1.00
O225   O     0.75828   0.49999   0.11793   0.00000  Uiso   1.00
O226   O     0.90839   0.50001   0.21540   0.00000  Uiso   1.00
I227   I     0.75245   0.61877   0.07301   0.00000  Uiso   1.00
I228   I     0.91421   0.38123   0.26032   0.00000  Uiso   1.00
C229   C     0.16804   0.75409   0.16698   0.00000  Uiso   1.00
C230   C     0.16530   0.91257   0.16635   0.00000  Uiso   1.00
C231   C     0.06792   0.83333   0.15458   0.00000  Uiso   1.00
C232   C     0.26541   0.83333   0.17875   0.00000  Uiso   1.00
C233   C     0.01264   0.83339   0.14792   0.00000  Uiso   1.00
C234   C     0.32069   0.83327   0.18542   0.00000  Uiso   1.00
C235   C     0.13854   0.68898   0.13000   0.00000  Uiso   1.00
C236   C     0.19479   0.97768   0.20333   0.00000  Uiso   1.00
C237   C     0.13635   0.97958   0.12916   0.00000  Uiso   1.00
C238   C     0.19698   0.68709   0.20417   0.00000  Uiso   1.00
C239   C     0.16499   0.95716   0.16606   0.00000  Uiso   1.00
C240   C     0.16834   0.70951   0.16727   0.00000  Uiso   1.00
C241   C     0.13359   0.80851   0.02074   0.00000  Uiso   1.00
C242   C     0.19974   0.85816   0.31260   0.00000  Uiso   1.00
C243   C     0.13359   0.80853   0.30448   0.00000  Uiso   1.00
C244   C     0.19975   0.85814   0.02885   0.00000  Uiso   1.00
Cu245  Cu    0.16667   0.83334   0.21355   0.00000  Uiso   1.00
Cu246  Cu    0.16667   0.83333   0.11978   0.00000  Uiso   1.00
H247   H     0.32599   0.83355   0.11194   0.00000  Uiso   1.00
H248   H     0.00734   0.83312   0.22140   0.00000  Uiso   1.00
H249   H     0.11591   0.70630   0.10195   0.00000  Uiso   1.00
H250   H     0.21742   0.96036   0.23138   0.00000  Uiso   1.00
H251   H     0.10714   0.78857   0.03616   0.00000  Uiso   1.00
H252   H     0.22619   0.87809   0.29717   0.00000  Uiso   1.00
H253   H     0.10711   0.78862   0.28257   0.00000  Uiso   1.00
H254   H     0.22622   0.87805   0.05077   0.00000  Uiso   1.00
N255   N     0.16668   0.83334   0.28403   0.00000  Uiso   1.00
N256   N     0.16665   0.83332   0.04931   0.00000  Uiso   1.00
O257   O     0.16666   0.77322   0.20625   0.00000  Uiso   1.00
O258   O     0.16667   0.89345   0.12709   0.00000  Uiso   1.00
O259   O     0.16666   0.77321   0.12706   0.00000  Uiso   1.00
O260   O     0.16667   0.89346   0.20628   0.00000  Uiso   1.00
O261   O     0.09161   0.83334   0.19712   0.00000  Uiso   1.00
O262   O     0.24172   0.83333   0.13621   0.00000  Uiso   1.00
O263   O     0.09161   0.83333   0.11793   0.00000  Uiso   1.00
O264   O     0.24172   0.83334   0.21540   0.00000  Uiso   1.00
I265   I     0.08579   0.95210   0.07301   0.00000  Uiso   1.00
I266   I     0.24755   0.71456   0.26032   0.00000  Uiso   1.00
C267   C     0.50137   0.75409   0.16698   0.00000  Uiso   1.00
C268   C     0.49863   0.91257   0.16635   0.00000  Uiso   1.00
C269   C     0.40126   0.83333   0.15458   0.00000  Uiso   1.00
C270   C     0.59874   0.83333   0.17875   0.00000  Uiso   1.00
C271   C     0.34598   0.83339   0.14792   0.00000  Uiso   1.00
C272   C     0.65402   0.83327   0.18542   0.00000  Uiso   1.00
C273   C     0.47187   0.68898   0.13000   0.00000  Uiso   1.00
C274   C     0.52813   0.97768   0.20333   0.00000  Uiso   1.00
C275   C     0.46968   0.97958   0.12916   0.00000  Uiso   1.00
C276   C     0.53032   0.68709   0.20417   0.00000  Uiso   1.00
C277   C     0.49832   0.95716   0.16606   0.00000  Uiso   1.00
C278   C     0.50168   0.70951   0.16727   0.00000  Uiso   1.00
C279   C     0.46692   0.80851   0.02074   0.00000  Uiso   1.00
C280   C     0.53308   0.85816   0.31260   0.00000  Uiso   1.00
C281   C     0.46692   0.80853   0.30448   0.00000  Uiso   1.00
C282   C     0.53308   0.85814   0.02885   0.00000  Uiso   1.00
Cu283  Cu    0.50000   0.83334   0.21355   0.00000  Uiso   1.00
Cu284  Cu    0.50000   0.83333   0.11978   0.00000  Uiso   1.00
H285   H     0.65933   0.83355   0.11194   0.00000  Uiso   1.00
H286   H     0.34067   0.83312   0.22140   0.00000  Uiso   1.00
H287   H     0.44924   0.70630   0.10195   0.00000  Uiso   1.00
H288   H     0.55075   0.96036   0.23138   0.00000  Uiso   1.00
H289   H     0.44048   0.78857   0.03616   0.00000  Uiso   1.00
H290   H     0.55952   0.87809   0.29717   0.00000  Uiso   1.00
H291   H     0.44044   0.78862   0.28257   0.00000  Uiso   1.00
H292   H     0.55955   0.87805   0.05077   0.00000  Uiso   1.00
N293   N     0.50001   0.83334   0.28403   0.00000  Uiso   1.00
N294   N     0.49999   0.83332   0.04931   0.00000  Uiso   1.00
O295   O     0.50000   0.77322   0.20625   0.00000  Uiso   1.00
O296   O     0.50000   0.89345   0.12709   0.00000  Uiso   1.00
O297   O     0.50000   0.77321   0.12706   0.00000  Uiso   1.00
O298   O     0.50000   0.89346   0.20628   0.00000  Uiso   1.00
O299   O     0.42495   0.83334   0.19712   0.00000  Uiso   1.00
O300   O     0.57505   0.83333   0.13621   0.00000  Uiso   1.00
O301   O     0.42494   0.83333   0.11793   0.00000  Uiso   1.00
O302   O     0.57506   0.83334   0.21540   0.00000  Uiso   1.00
I303   I     0.41912   0.95210   0.07301   0.00000  Uiso   1.00
I304   I     0.58088   0.71456   0.26032   0.00000  Uiso   1.00
C305   C     0.83470   0.75409   0.16698   0.00000  Uiso   1.00
C306   C     0.83196   0.91257   0.16635   0.00000  Uiso   1.00
C307   C     0.73459   0.83333   0.15458   0.00000  Uiso   1.00
C308   C     0.93208   0.83333   0.17875   0.00000  Uiso   1.00
C309   C     0.67931   0.83339   0.14792   0.00000  Uiso   1.00
C310   C     0.98736   0.83327   0.18542   0.00000  Uiso   1.00
C311   C     0.80520   0.68898   0.13000   0.00000  Uiso   1.00
C312   C     0.86146   0.97768   0.20333   0.00000  Uiso   1.00
C313   C     0.80301   0.97958   0.12916   0.00000  Uiso   1.00
C314   C     0.86365   0.68709   0.20417   0.00000  Uiso   1.00
C315   C     0.83165   0.95716   0.16606   0.00000  Uiso   1.00
C316   C     0.83501   0.70951   0.16727   0.00000  Uiso   1.00
C317   C     0.80026   0.80851   0.02074   0.00000  Uiso   1.00
C318   C     0.86641   0.85816   0.31260   0.00000  Uiso   1.00
C319   C     0.80025   0.80853   0.30448   0.00000  Uiso   1.00
C320   C     0.86641   0.85814   0.02885   0.00000  Uiso   1.00
Cu321  Cu    0.83333   0.83334   0.21355   0.00000  Uiso   1.00
Cu322  Cu    0.83333   0.83333   0.11978   0.00000  Uiso   1.00
H323   H     0.99266   0.83355   0.11194   0.00000  Uiso   1.00
H324   H     0.67401   0.83312   0.22140   0.00000  Uiso   1.00
H325   H     0.78258   0.70630   0.10195   0.00000  Uiso   1.00
H326   H     0.88409   0.96036   0.23138   0.00000  Uiso   1.00
H327   H     0.77381   0.78857   0.03616   0.00000  Uiso   1.00
H328   H     0.89285   0.87809   0.29717   0.00000  Uiso   1.00
H329   H     0.77378   0.78862   0.28257   0.00000  Uiso   1.00
H330   H     0.89289   0.87805   0.05077   0.00000  Uiso   1.00
N331   N     0.83335   0.83334   0.28403   0.00000  Uiso   1.00
N332   N     0.83332   0.83332   0.04931   0.00000  Uiso   1.00
O333   O     0.83333   0.77322   0.20625   0.00000  Uiso   1.00
O334   O     0.83334   0.89345   0.12709   0.00000  Uiso   1.00
O335   O     0.83333   0.77321   0.12706   0.00000  Uiso   1.00
O336   O     0.83334   0.89346   0.20628   0.00000  Uiso   1.00
O337   O     0.75828   0.83334   0.19712   0.00000  Uiso   1.00
O338   O     0.90839   0.83333   0.13621   0.00000  Uiso   1.00
O339   O     0.75828   0.83333   0.11793   0.00000  Uiso   1.00
O340   O     0.90839   0.83334   0.21540   0.00000  Uiso   1.00
I341   I     0.75245   0.95210   0.07301   0.00000  Uiso   1.00
I342   I     0.91421   0.71456   0.26032   0.00000  Uiso   1.00
C343   C     0.16804   0.08743   0.50031   0.00000  Uiso   1.00
C344   C     0.16530   0.24591   0.49969   0.00000  Uiso   1.00
C345   C     0.06792   0.16667   0.48791   0.00000  Uiso   1.00
C346   C     0.26541   0.16667   0.51209   0.00000  Uiso   1.00
C347   C     0.01264   0.16673   0.48125   0.00000  Uiso   1.00
C348   C     0.32069   0.16661   0.51875   0.00000  Uiso   1.00
C349   C     0.13854   0.02232   0.46333   0.00000  Uiso   1.00
C350   C     0.19479   0.31102   0.53667   0.00000  Uiso   1.00
C351   C     0.13635   0.31291   0.46250   0.00000  Uiso   1.00
C352   C     0.19698   0.02042   0.53750   0.00000  Uiso   1.00
C353   C     0.16499   0.29049   0.49939   0.00000  Uiso   1.00
C354   C     0.16834   0.04284   0.50061   0.00000  Uiso   1.00
C355   C     0.13359   0.14184   0.35407   0.00000  Uiso   1.00
C356   C     0.19974   0.19149   0.64593   0.00000  Uiso   1.00
C357   C     0.13359   0.14186   0.63782   0.00000  Uiso   1.00
C358   C     0.19975   0.19147   0.36218   0.00000  Uiso   1.00
Cu359  Cu    0.16667   0.16667   0.54689   0.00000  Uiso   1.00
Cu360  Cu    0.16667   0.16666   0.45311   0.00000  Uiso   1.00
H361   H     0.32599   0.16688   0.44527   0.00000  Uiso   1.00
H362   H     0.00734   0.16645   0.55473   0.00000  Uiso   1.00
H363   H     0.11591   0.03964   0.43529   0.00000  Uiso   1.00
H364   H     0.21742   0.29370   0.56471   0.00000  Uiso   1.00
H365   H     0.10714   0.12191   0.36950   0.00000  Uiso   1.00
H366   H     0.22619   0.21143   0.63050   0.00000  Uiso   1.00
H367   H     0.10711   0.12195   0.61590   0.00000  Uiso   1.00
H368   H     0.22622   0.21138   0.38410   0.00000  Uiso   1.00
N369   N     0.16668   0.16668   0.61736   0.00000  Uiso   1.00
N370   N     0.16665   0.16666   0.38264   0.00000  Uiso   1.00
O371   O     0.16666   0.10655   0.53958   0.00000  Uiso   1.00
O372   O     0.16667   0.22678   0.46042   0.00000  Uiso   1.00
O373   O     0.16666   0.10654   0.46039   0.00000  Uiso   1.00
O374   O     0.16667   0.22679   0.53961   0.00000  Uiso   1.00
O375   O     0.09161   0.16667   0.53046   0.00000  Uiso   1.00
O376   O     0.24172   0.16666   0.46954   0.00000  Uiso   1.00
O377   O     0.09161   0.16666   0.45127   0.00000  Uiso   1.00
O378   O     0.24172   0.16667   0.54873   0.00000  Uiso   1.00
I379   I     0.08579   0.28544   0.40634   0.00000  Uiso   1.00
I380   I     0.24755   0.04790   0.59365   0.00000  Uiso   1.00
C381   C     0.50137   0.08743   0.50031   0.00000  Uiso   1.00
C382   C     0.49863   0.24591   0.49969   0.00000  Uiso   1.00
C383   C     0.40126   0.16667   0.48791   0.00000  Uiso   1.00
C384   C     0.59874   0.16667   0.51209   0.00000  Uiso   1.00
C385   C     0.34598   0.16673   0.48125   0.00000  Uiso   1.00
C386   C     0.65402   0.16661   0.51875   0.00000  Uiso   1.00
C387   C     0.47187   0.02232   0.46333   0.00000  Uiso   1.00
C388   C     0.52813   0.31102   0.53667   0.00000  Uiso   1.00
C389   C     0.46968   0.31291   0.46250   0.00000  Uiso   1.00
C390   C     0.53032   0.02042   0.53750   0.00000  Uiso   1.00
C391   C     0.49832   0.29049   0.49939   0.00000  Uiso   1.00
C392   C     0.50168   0.04284   0.50061   0.00000  Uiso   1.00
C393   C     0.46692   0.14184   0.35407   0.00000  Uiso   1.00
C394   C     0.53308   0.19149   0.64593   0.00000  Uiso   1.00
C395   C     0.46692   0.14186   0.63782   0.00000  Uiso   1.00
C396   C     0.53308   0.19147   0.36218   0.00000  Uiso   1.00
Cu397  Cu    0.50000   0.16667   0.54689   0.00000  Uiso   1.00
Cu398  Cu    0.50000   0.16666   0.45311   0.00000  Uiso   1.00
H399   H     0.65933   0.16688   0.44527   0.00000  Uiso   1.00
H400   H     0.34067   0.16645   0.55473   0.00000  Uiso   1.00
H401   H     0.44924   0.03964   0.43529   0.00000  Uiso   1.00
H402   H     0.55075   0.29370   0.56471   0.00000  Uiso   1.00
H403   H     0.44048   0.12191   0.36950   0.00000  Uiso   1.00
H404   H     0.55952   0.21143   0.63050   0.00000  Uiso   1.00
H405   H     0.44044   0.12195   0.61590   0.00000  Uiso   1.00
H406   H     0.55955   0.21138   0.38410   0.00000  Uiso   1.00
N407   N     0.50001   0.16668   0.61736   0.00000  Uiso   1.00
N408   N     0.49999   0.16666   0.38264   0.00000  Uiso   1.00
O409   O     0.50000   0.10655   0.53958   0.00000  Uiso   1.00
O410   O     0.50000   0.22678   0.46042   0.00000  Uiso   1.00
O411   O     0.50000   0.10654   0.46039   0.00000  Uiso   1.00
O412   O     0.50000   0.22679   0.53961   0.00000  Uiso   1.00
O413   O     0.42495   0.16667   0.53046   0.00000  Uiso   1.00
O414   O     0.57505   0.16666   0.46954   0.00000  Uiso   1.00
O415   O     0.42494   0.16666   0.45127   0.00000  Uiso   1.00
O416   O     0.57506   0.16667   0.54873   0.00000  Uiso   1.00
I417   I     0.41912   0.28544   0.40634   0.00000  Uiso   1.00
I418   I     0.58088   0.04790   0.59365   0.00000  Uiso   1.00
C419   C     0.83470   0.08743   0.50031   0.00000  Uiso   1.00
C420   C     0.83196   0.24591   0.49969   0.00000  Uiso   1.00
C421   C     0.73459   0.16667   0.48791   0.00000  Uiso   1.00
C422   C     0.93208   0.16667   0.51209   0.00000  Uiso   1.00
C423   C     0.67931   0.16673   0.48125   0.00000  Uiso   1.00
C424   C     0.98736   0.16661   0.51875   0.00000  Uiso   1.00
C425   C     0.80520   0.02232   0.46333   0.00000  Uiso   1.00
C426   C     0.86146   0.31102   0.53667   0.00000  Uiso   1.00
C427   C     0.80301   0.31291   0.46250   0.00000  Uiso   1.00
C428   C     0.86365   0.02042   0.53750   0.00000  Uiso   1.00
C429   C     0.83165   0.29049   0.49939   0.00000  Uiso   1.00
C430   C     0.83501   0.04284   0.50061   0.00000  Uiso   1.00
C431   C     0.80026   0.14184   0.35407   0.00000  Uiso   1.00
C432   C     0.86641   0.19149   0.64593   0.00000  Uiso   1.00
C433   C     0.80025   0.14186   0.63782   0.00000  Uiso   1.00
C434   C     0.86641   0.19147   0.36218   0.00000  Uiso   1.00
Cu435  Cu    0.83333   0.16667   0.54689   0.00000  Uiso   1.00
Cu436  Cu    0.83333   0.16666   0.45311   0.00000  Uiso   1.00
H437   H     0.99266   0.16688   0.44527   0.00000  Uiso   1.00
H438   H     0.67401   0.16645   0.55473   0.00000  Uiso   1.00
H439   H     0.78258   0.03964   0.43529   0.00000  Uiso   1.00
H440   H     0.88409   0.29370   0.56471   0.00000  Uiso   1.00
H441   H     0.77381   0.12191   0.36950   0.00000  Uiso   1.00
H442   H     0.89285   0.21143   0.63050   0.00000  Uiso   1.00
H443   H     0.77378   0.12195   0.61590   0.00000  Uiso   1.00
H444   H     0.89289   0.21138   0.38410   0.00000  Uiso   1.00
N445   N     0.83335   0.16668   0.61736   0.00000  Uiso   1.00
N446   N     0.83332   0.16666   0.38264   0.00000  Uiso   1.00
O447   O     0.83333   0.10655   0.53958   0.00000  Uiso   1.00
O448   O     0.83334   0.22678   0.46042   0.00000  Uiso   1.00
O449   O     0.83333   0.10654   0.46039   0.00000  Uiso   1.00
O450   O     0.83334   0.22679   0.53961   0.00000  Uiso   1.00
O451   O     0.75828   0.16667   0.53046   0.00000  Uiso   1.00
O452   O     0.90839   0.16666   0.46954   0.00000  Uiso   1.00
O453   O     0.75828   0.16666   0.45127   0.00000  Uiso   1.00
O454   O     0.90839   0.16667   0.54873   0.00000  Uiso   1.00
I455   I     0.75245   0.28544   0.40634   0.00000  Uiso   1.00
I456   I     0.91421   0.04790   0.59365   0.00000  Uiso   1.00
C457   C     0.16804   0.42076   0.50031   0.00000  Uiso   1.00
C458   C     0.16530   0.57924   0.49969   0.00000  Uiso   1.00
C459   C     0.06792   0.50000   0.48791   0.00000  Uiso   1.00
C460   C     0.26541   0.50000   0.51209   0.00000  Uiso   1.00
C461   C     0.01264   0.50006   0.48125   0.00000  Uiso   1.00
C462   C     0.32069   0.49994   0.51875   0.00000  Uiso   1.00
C463   C     0.13854   0.35565   0.46333   0.00000  Uiso   1.00
C464   C     0.19479   0.64435   0.53667   0.00000  Uiso   1.00
C465   C     0.13635   0.64624   0.46250   0.00000  Uiso   1.00
C466   C     0.19698   0.35376   0.53750   0.00000  Uiso   1.00
C467   C     0.16499   0.62383   0.49939   0.00000  Uiso   1.00
C468   C     0.16834   0.37617   0.50061   0.00000  Uiso   1.00
C469   C     0.13359   0.47517   0.35407   0.00000  Uiso   1.00
C470   C     0.19974   0.52483   0.64593   0.00000  Uiso   1.00
C471   C     0.13359   0.47519   0.63782   0.00000  Uiso   1.00
C472   C     0.19975   0.52481   0.36218   0.00000  Uiso   1.00
Cu473  Cu    0.16667   0.50001   0.54689   0.00000  Uiso   1.00
Cu474  Cu    0.16667   0.49999   0.45311   0.00000  Uiso   1.00
H475   H     0.32599   0.50022   0.44527   0.00000  Uiso   1.00
H476   H     0.00734   0.49978   0.55473   0.00000  Uiso   1.00
H477   H     0.11591   0.37297   0.43529   0.00000  Uiso   1.00
H478   H     0.21742   0.62703   0.56471   0.00000  Uiso   1.00
H479   H     0.10714   0.45524   0.36950   0.00000  Uiso   1.00
H480   H     0.22619   0.54476   0.63050   0.00000  Uiso   1.00
H481   H     0.10711   0.45529   0.61590   0.00000  Uiso   1.00
H482   H     0.22622   0.54471   0.38410   0.00000  Uiso   1.00
N483   N     0.16668   0.50001   0.61736   0.00000  Uiso   1.00
N484   N     0.16665   0.49999   0.38264   0.00000  Uiso   1.00
O485   O     0.16666   0.43989   0.53958   0.00000  Uiso   1.00
O486   O     0.16667   0.56011   0.46042   0.00000  Uiso   1.00
O487   O     0.16666   0.43988   0.46039   0.00000  Uiso   1.00
O488   O     0.16667   0.56012   0.53961   0.00000  Uiso   1.00
O489   O     0.09161   0.50000   0.53046   0.00000  Uiso   1.00
O490   O     0.24172   0.50000   0.46954   0.00000  Uiso   1.00
O491   O     0.09161   0.49999   0.45127   0.00000  Uiso   1.00
O492   O     0.24172   0.50001   0.54873   0.00000  Uiso   1.00
I493   I     0.08579   0.61877   0.40634   0.00000  Uiso   1.00
I494   I     0.24755   0.38123   0.59365   0.00000  Uiso   1.00
C495   C     0.50137   0.42076   0.50031   0.00000  Uiso   1.00
C496   C     0.49863   0.57924   0.49969   0.00000  Uiso   1.00
C497   C     0.40126   0.50000   0.48791   0.00000  Uiso   1.00
C498   C     0.59874   0.50000   0.51209   0.00000  Uiso   1.00
C499   C     0.34598   0.50006   0.48125   0.00000  Uiso   1.00
C500   C     0.65402   0.49994   0.51875   0.00000  Uiso   1.00
C501   C     0.47187   0.35565   0.46333   0.00000  Uiso   1.00
C502   C     0.52813   0.64435   0.53667   0.00000  Uiso   1.00
C503   C     0.46968   0.64624   0.46250   0.00000  Uiso   1.00
C504   C     0.53032   0.35376   0.53750   0.00000  Uiso   1.00
C505   C     0.49832   0.62383   0.49939   0.00000  Uiso   1.00
C506   C     0.50168   0.37617   0.50061   0.00000  Uiso   1.00
C507   C     0.46692   0.47517   0.35407   0.00000  Uiso   1.00
C508   C     0.53308   0.52483   0.64593   0.00000  Uiso   1.00
C509   C     0.46692   0.47519   0.63782   0.00000  Uiso   1.00
C510   C     0.53308   0.52481   0.36218   0.00000  Uiso   1.00
Cu511  Cu    0.50000   0.50001   0.54689   0.00000  Uiso   1.00
Cu512  Cu    0.50000   0.49999   0.45311   0.00000  Uiso   1.00
H513   H     0.65933   0.50022   0.44527   0.00000  Uiso   1.00
H514   H     0.34067   0.49978   0.55473   0.00000  Uiso   1.00
H515   H     0.44924   0.37297   0.43529   0.00000  Uiso   1.00
H516   H     0.55075   0.62703   0.56471   0.00000  Uiso   1.00
H517   H     0.44048   0.45524   0.36950   0.00000  Uiso   1.00
H518   H     0.55952   0.54476   0.63050   0.00000  Uiso   1.00
H519   H     0.44044   0.45529   0.61590   0.00000  Uiso   1.00
H520   H     0.55955   0.54471   0.38410   0.00000  Uiso   1.00
N521   N     0.50001   0.50001   0.61736   0.00000  Uiso   1.00
N522   N     0.49999   0.49999   0.38264   0.00000  Uiso   1.00
O523   O     0.50000   0.43989   0.53958   0.00000  Uiso   1.00
O524   O     0.50000   0.56011   0.46042   0.00000  Uiso   1.00
O525   O     0.50000   0.43988   0.46039   0.00000  Uiso   1.00
O526   O     0.50000   0.56012   0.53961   0.00000  Uiso   1.00
O527   O     0.42495   0.50000   0.53046   0.00000  Uiso   1.00
O528   O     0.57505   0.50000   0.46954   0.00000  Uiso   1.00
O529   O     0.42494   0.49999   0.45127   0.00000  Uiso   1.00
O530   O     0.57506   0.50001   0.54873   0.00000  Uiso   1.00
I531   I     0.41912   0.61877   0.40634   0.00000  Uiso   1.00
I532   I     0.58088   0.38123   0.59365   0.00000  Uiso   1.00
C533   C     0.83470   0.42076   0.50031   0.00000  Uiso   1.00
C534   C     0.83196   0.57924   0.49969   0.00000  Uiso   1.00
C535   C     0.73459   0.50000   0.48791   0.00000  Uiso   1.00
C536   C     0.93208   0.50000   0.51209   0.00000  Uiso   1.00
C537   C     0.67931   0.50006   0.48125   0.00000  Uiso   1.00
C538   C     0.98736   0.49994   0.51875   0.00000  Uiso   1.00
C539   C     0.80520   0.35565   0.46333   0.00000  Uiso   1.00
C540   C     0.86146   0.64435   0.53667   0.00000  Uiso   1.00
C541   C     0.80301   0.64624   0.46250   0.00000  Uiso   1.00
C542   C     0.86365   0.35376   0.53750   0.00000  Uiso   1.00
C543   C     0.83165   0.62383   0.49939   0.00000  Uiso   1.00
C544   C     0.83501   0.37617   0.50061   0.00000  Uiso   1.00
C545   C     0.80026   0.47517   0.35407   0.00000  Uiso   1.00
C546   C     0.86641   0.52483   0.64593   0.00000  Uiso   1.00
C547   C     0.80025   0.47519   0.63782   0.00000  Uiso   1.00
C548   C     0.86641   0.52481   0.36218   0.00000  Uiso   1.00
Cu549  Cu    0.83333   0.50001   0.54689   0.00000  Uiso   1.00
Cu550  Cu    0.83333   0.49999   0.45311   0.00000  Uiso   1.00
H551   H     0.99266   0.50022   0.44527   0.00000  Uiso   1.00
H552   H     0.67401   0.49978   0.55473   0.00000  Uiso   1.00
H553   H     0.78258   0.37297   0.43529   0.00000  Uiso   1.00
H554   H     0.88409   0.62703   0.56471   0.00000  Uiso   1.00
H555   H     0.77381   0.45524   0.36950   0.00000  Uiso   1.00
H556   H     0.89285   0.54476   0.63050   0.00000  Uiso   1.00
H557   H     0.77378   0.45529   0.61590   0.00000  Uiso   1.00
H558   H     0.89289   0.54471   0.38410   0.00000  Uiso   1.00
N559   N     0.83335   0.50001   0.61736   0.00000  Uiso   1.00
N560   N     0.83332   0.49999   0.38264   0.00000  Uiso   1.00
O561   O     0.83333   0.43989   0.53958   0.00000  Uiso   1.00
O562   O     0.83334   0.56011   0.46042   0.00000  Uiso   1.00
O563   O     0.83333   0.43988   0.46039   0.00000  Uiso   1.00
O564   O     0.83334   0.56012   0.53961   0.00000  Uiso   1.00
O565   O     0.75828   0.50000   0.53046   0.00000  Uiso   1.00
O566   O     0.90839   0.50000   0.46954   0.00000  Uiso   1.00
O567   O     0.75828   0.49999   0.45127   0.00000  Uiso   1.00
O568   O     0.90839   0.50001   0.54873   0.00000  Uiso   1.00
I569   I     0.75245   0.61877   0.40634   0.00000  Uiso   1.00
I570   I     0.91421   0.38123   0.59365   0.00000  Uiso   1.00
C571   C     0.16804   0.75409   0.50031   0.00000  Uiso   1.00
C572   C     0.16530   0.91257   0.49969   0.00000  Uiso   1.00
C573   C     0.06792   0.83333   0.48791   0.00000  Uiso   1.00
C574   C     0.26541   0.83333   0.51209   0.00000  Uiso   1.00
C575   C     0.01264   0.83339   0.48125   0.00000  Uiso   1.00
C576   C     0.32069   0.83327   0.51875   0.00000  Uiso   1.00
C577   C     0.13854   0.68898   0.46333   0.00000  Uiso   1.00
C578   C     0.19479   0.97768   0.53667   0.00000  Uiso   1.00
C579   C     0.13635   0.97958   0.46250   0.00000  Uiso   1.00
C580   C     0.19698   0.68709   0.53750   0.00000  Uiso   1.00
C581   C     0.16499   0.95716   0.49939   0.00000  Uiso   1.00
C582   C     0.16834   0.70951   0.50061   0.00000  Uiso   1.00
C583   C     0.13359   0.80851   0.35407   0.00000  Uiso   1.00
C584   C     0.19974   0.85816   0.64593   0.00000  Uiso   1.00
C585   C     0.13359   0.80853   0.63782   0.00000  Uiso   1.00
C586   C     0.19975   0.85814   0.36218   0.00000  Uiso   1.00
Cu587  Cu    0.16667   0.83334   0.54689   0.00000  Uiso   1.00
Cu588  Cu    0.16667   0.83333   0.45311   0.00000  Uiso   1.00
H589   H     0.32599   0.83355   0.44527   0.00000  Uiso   1.00
H590   H     0.00734   0.83312   0.55473   0.00000  Uiso   1.00
H591   H     0.11591   0.70630   0.43529   0.00000  Uiso   1.00
H592   H     0.21742   0.96036   0.56471   0.00000  Uiso   1.00
H593   H     0.10714   0.78857   0.36950   0.00000  Uiso   1.00
H594   H     0.22619   0.87809   0.63050   0.00000  Uiso   1.00
H595   H     0.10711   0.78862   0.61590   0.00000  Uiso   1.00
H596   H     0.22622   0.87805   0.38410   0.00000  Uiso   1.00
N597   N     0.16668   0.83334   0.61736   0.00000  Uiso   1.00
N598   N     0.16665   0.83332   0.38264   0.00000  Uiso   1.00
O599   O     0.16666   0.77322   0.53958   0.00000  Uiso   1.00
O600   O     0.16667   0.89345   0.46042   0.00000  Uiso   1.00
O601   O     0.16666   0.77321   0.46039   0.00000  Uiso   1.00
O602   O     0.16667   0.89346   0.53961   0.00000  Uiso   1.00
O603   O     0.09161   0.83334   0.53046   0.00000  Uiso   1.00
O604   O     0.24172   0.83333   0.46954   0.00000  Uiso   1.00
O605   O     0.09161   0.83333   0.45127   0.00000  Uiso   1.00
O606   O     0.24172   0.83334   0.54873   0.00000  Uiso   1.00
I607   I     0.08579   0.95210   0.40634   0.00000  Uiso   1.00
I608   I     0.24755   0.71456   0.59365   0.00000  Uiso   1.00
C609   C     0.50137   0.75409   0.50031   0.00000  Uiso   1.00
C610   C     0.49863   0.91257   0.49969   0.00000  Uiso   1.00
C611   C     0.40126   0.83333   0.48791   0.00000  Uiso   1.00
C612   C     0.59874   0.83333   0.51209   0.00000  Uiso   1.00
C613   C     0.34598   0.83339   0.48125   0.00000  Uiso   1.00
C614   C     0.65402   0.83327   0.51875   0.00000  Uiso   1.00
C615   C     0.47187   0.68898   0.46333   0.00000  Uiso   1.00
C616   C     0.52813   0.97768   0.53667   0.00000  Uiso   1.00
C617   C     0.46968   0.97958   0.46250   0.00000  Uiso   1.00
C618   C     0.53032   0.68709   0.53750   0.00000  Uiso   1.00
C619   C     0.49832   0.95716   0.49939   0.00000  Uiso   1.00
C620   C     0.50168   0.70951   0.50061   0.00000  Uiso   1.00
C621   C     0.46692   0.80851   0.35407   0.00000  Uiso   1.00
C622   C     0.53308   0.85816   0.64593   0.00000  Uiso   1.00
C623   C     0.46692   0.80853   0.63782   0.00000  Uiso   1.00
C624   C     0.53308   0.85814   0.36218   0.00000  Uiso   1.00
Cu625  Cu    0.50000   0.83334   0.54689   0.00000  Uiso   1.00
Cu626  Cu    0.50000   0.83333   0.45311   0.00000  Uiso   1.00
H627   H     0.65933   0.83355   0.44527   0.00000  Uiso   1.00
H628   H     0.34067   0.83312   0.55473   0.00000  Uiso   1.00
H629   H     0.44924   0.70630   0.43529   0.00000  Uiso   1.00
H630   H     0.55075   0.96036   0.56471   0.00000  Uiso   1.00
H631   H     0.44048   0.78857   0.36950   0.00000  Uiso   1.00
H632   H     0.55952   0.87809   0.63050   0.00000  Uiso   1.00
H633   H     0.44044   0.78862   0.61590   0.00000  Uiso   1.00
H634   H     0.55955   0.87805   0.38410   0.00000  Uiso   1.00
N635   N     0.50001   0.83334   0.61736   0.00000  Uiso   1.00
N636   N     0.49999   0.83332   0.38264   0.00000  Uiso   1.00
O637   O     0.50000   0.77322   0.53958   0.00000  Uiso   1.00
O638   O     0.50000   0.89345   0.46042   0.00000  Uiso   1.00
O639   O     0.50000   0.77321   0.46039   0.00000  Uiso   1.00
O640   O     0.50000   0.89346   0.53961   0.00000  Uiso   1.00
O641   O     0.42495   0.83334   0.53046   0.00000  Uiso   1.00
O642   O     0.57505   0.83333   0.46954   0.00000  Uiso   1.00
O643   O     0.42494   0.83333   0.45127   0.00000  Uiso   1.00
O644   O     0.57506   0.83334   0.54873   0.00000  Uiso   1.00
I645   I     0.41912   0.95210   0.40634   0.00000  Uiso   1.00
I646   I     0.58088   0.71456   0.59365   0.00000  Uiso   1.00
C647   C     0.83470   0.75409   0.50031   0.00000  Uiso   1.00
C648   C     0.83196   0.91257   0.49969   0.00000  Uiso   1.00
C649   C     0.73459   0.83333   0.48791   0.00000  Uiso   1.00
C650   C     0.93208   0.83333   0.51209   0.00000  Uiso   1.00
C651   C     0.67931   0.83339   0.48125   0.00000  Uiso   1.00
C652   C     0.98736   0.83327   0.51875   0.00000  Uiso   1.00
C653   C     0.80520   0.68898   0.46333   0.00000  Uiso   1.00
C654   C     0.86146   0.97768   0.53667   0.00000  Uiso   1.00
C655   C     0.80301   0.97958   0.46250   0.00000  Uiso   1.00
C656   C     0.86365   0.68709   0.53750   0.00000  Uiso   1.00
C657   C     0.83165   0.95716   0.49939   0.00000  Uiso   1.00
C658   C     0.83501   0.70951   0.50061   0.00000  Uiso   1.00
C659   C     0.80026   0.80851   0.35407   0.00000  Uiso   1.00
C660   C     0.86641   0.85816   0.64593   0.00000  Uiso   1.00
C661   C     0.80025   0.80853   0.63782   0.00000  Uiso   1.00
C662   C     0.86641   0.85814   0.36218   0.00000  Uiso   1.00
Cu663  Cu    0.83333   0.83334   0.54689   0.00000  Uiso   1.00
Cu664  Cu    0.83333   0.83333   0.45311   0.00000  Uiso   1.00
H665   H     0.99266   0.83355   0.44527   0.00000  Uiso   1.00
H666   H     0.67401   0.83312   0.55473   0.00000  Uiso   1.00
H667   H     0.78258   0.70630   0.43529   0.00000  Uiso   1.00
H668   H     0.88409   0.96036   0.56471   0.00000  Uiso   1.00
H669   H     0.77381   0.78857   0.36950   0.00000  Uiso   1.00
H670   H     0.89285   0.87809   0.63050   0.00000  Uiso   1.00
H671   H     0.77378   0.78862   0.61590   0.00000  Uiso   1.00
H672   H     0.89289   0.87805   0.38410   0.00000  Uiso   1.00
N673   N     0.83335   0.83334   0.61736   0.00000  Uiso   1.00
N674   N     0.83332   0.83332   0.38264   0.00000  Uiso   1.00
O675   O     0.83333   0.77322   0.53958   0.00000  Uiso   1.00
O676   O     0.83334   0.89345   0.46042   0.00000  Uiso   1.00
O677   O     0.83333   0.77321   0.46039   0.00000  Uiso   1.00
O678   O     0.83334   0.89346   0.53961   0.00000  Uiso   1.00
O679   O     0.75828   0.83334   0.53046   0.00000  Uiso   1.00
O680   O     0.90839   0.83333   0.46954   0.00000  Uiso   1.00
O681   O     0.75828   0.83333   0.45127   0.00000  Uiso   1.00
O682   O     0.90839   0.83334   0.54873   0.00000  Uiso   1.00
I683   I     0.75245   0.95210   0.40634   0.00000  Uiso   1.00
I684   I     0.91421   0.71456   0.59365   0.00000  Uiso   1.00
C685   C     0.16804   0.08743   0.83364   0.00000  Uiso   1.00
C686   C     0.16530   0.24591   0.83302   0.00000  Uiso   1.00
C687   C     0.06792   0.16667   0.82125   0.00000  Uiso   1.00
C688   C     0.26541   0.16667   0.84542   0.00000  Uiso   1.00
C689   C     0.01264   0.16673   0.81458   0.00000  Uiso   1.00
C690   C     0.32069   0.16661   0.85208   0.00000  Uiso   1.00
C691   C     0.13854   0.02232   0.79667   0.00000  Uiso   1.00
C692   C     0.19479   0.31102   0.87000   0.00000  Uiso   1.00
C693   C     0.13635   0.31291   0.79583   0.00000  Uiso   1.00
C694   C     0.19698   0.02042   0.87083   0.00000  Uiso   1.00
C695   C     0.16499   0.29049   0.83273   0.00000  Uiso   1.00
C696   C     0.16834   0.04284   0.83394   0.00000  Uiso   1.00
C697   C     0.13359   0.14184   0.68740   0.00000  Uiso   1.00
C698   C     0.19974   0.19149   0.97926   0.00000  Uiso   1.00
C699   C     0.13359   0.14186   0.97115   0.00000  Uiso   1.00
C700   C     0.19975   0.19147   0.69552   0.00000  Uiso   1.00
Cu701  Cu    0.16667   0.16667   0.88022   0.00000  Uiso   1.00
Cu702  Cu    0.16667   0.16666   0.78645   0.00000  Uiso   1.00
H703   H     0.32599   0.16688   0.77860   0.00000  Uiso   1.00
H704   H     0.00734   0.16645   0.88806   0.00000  Uiso   1.00
H705   H     0.11591   0.03964   0.76862   0.00000  Uiso   1.00
H706   H     0.21742   0.29370   0.89804   0.00000  Uiso   1.00
H707   H     0.10714   0.12191   0.70283   0.00000  Uiso   1.00
H708   H     0.22619   0.21143   0.96384   0.00000  Uiso   1.00
H709   H     0.10711   0.12195   0.94923   0.00000  Uiso   1.00
H710   H     0.22622   0.21138   0.71743   0.00000  Uiso   1.00
N711   N     0.16668   0.16668   0.95069   0.00000  Uiso   1.00
N712   N     0.16665   0.16666   0.71597   0.00000  Uiso   1.00
O713   O     0.16666   0.10655   0.87291   0.00000  Uiso   1.00
O714   O     0.16667   0.22678   0.79375   0.00000  Uiso   1.00
O715   O     0.16666   0.10654   0.79372   0.00000  Uiso   1.00
O716   O     0.16667   0.22679   0.87294   0.00000  Uiso   1.00
O717   O     0.09161   0.16667   0.86379   0.00000  Uiso   1.00
O718   O     0.24172   0.16666   0.80288   0.00000  Uiso   1.00
O719   O     0.09161   0.16666   0.78460   0.00000  Uiso   1.00
O720   O     0.24172   0.16667   0.88207   0.00000  Uiso   1.00
I721   I     0.08579   0.28544   0.73968   0.00000  Uiso   1.00
I722   I     0.24755   0.04790   0.92698   0.00000  Uiso   1.00
C723   C     0.50137   0.08743   0.83364   0.00000  Uiso   1.00
C724   C     0.49863   0.24591   0.83302   0.00000  Uiso   1.00
C725   C     0.40126   0.16667   0.82125   0.00000  Uiso   1.00
C726   C     0.59874   0.16667   0.84542   0.00000  Uiso   1.00
C727   C     0.34598   0.16673   0.81458   0.00000  Uiso   1.00
C728   C     0.65402   0.16661   0.85208   0.00000  Uiso   1.00
C729   C     0.47187   0.02232   0.79667   0.00000  Uiso   1.00
C730   C     0.52813   0.31102   0.87000   0.00000  Uiso   1.00
C731   C     0.46968   0.31291   0.79583   0.00000  Uiso   1.00
C732   C     0.53032   0.02042   0.87083   0.00000  Uiso   1.00
C733   C     0.49832   0.29049   0.83273   0.00000  Uiso   1.00
C734   C     0.50168   0.04284   0.83394   0.00000  Uiso   1.00
C735   C     0.46692   0.14184   0.68740   0.00000  Uiso   1.00
C736   C     0.53308   0.19149   0.97926   0.00000  Uiso   1.00
C737   C     0.46692   0.14186   0.97115   0.00000  Uiso   1.00
C738   C     0.53308   0.19147   0.69552   0.00000  Uiso   1.00
Cu739  Cu    0.50000   0.16667   0.88022   0.00000  Uiso   1.00
Cu740  Cu    0.50000   0.16666   0.78645   0.00000  Uiso   1.00
H741   H     0.65933   0.16688   0.77860   0.00000  Uiso   1.00
H742   H     0.34067   0.16645   0.88806   0.00000  Uiso   1.00
H743   H     0.44924   0.03964   0.76862   0.00000  Uiso   1.00
H744   H     0.55075   0.29370   0.89804   0.00000  Uiso   1.00
H745   H     0.44048   0.12191   0.70283   0.00000  Uiso   1.00
H746   H     0.55952   0.21143   0.96384   0.00000  Uiso   1.00
H747   H     0.44044   0.12195   0.94923   0.00000  Uiso   1.00
H748   H     0.55955   0.21138   0.71743   0.00000  Uiso   1.00
N749   N     0.50001   0.16668   0.95069   0.00000  Uiso   1.00
N750   N     0.49999   0.16666   0.71597   0.00000  Uiso   1.00
O751   O     0.50000   0.10655   0.87291   0.00000  Uiso   1.00
O752   O     0.50000   0.22678   0.79375   0.00000  Uiso   1.00
O753   O     0.50000   0.10654   0.79372   0.00000  Uiso   1.00
O754   O     0.50000   0.22679   0.87294   0.00000  Uiso   1.00
O755   O     0.42495   0.16667   0.86379   0.00000  Uiso   1.00
O756   O     0.57505   0.16666   0.80288   0.00000  Uiso   1.00
O757   O     0.42494   0.16666   0.78460   0.00000  Uiso   1.00
O758   O     0.57506   0.16667   0.88207   0.00000  Uiso   1.00
I759   I     0.41912   0.28544   0.73968   0.00000  Uiso   1.00
I760   I     0.58088   0.04790   0.92698   0.00000  Uiso   1.00
C761   C     0.83470   0.08743   0.83364   0.00000  Uiso   1.00
C762   C     0.83196   0.24591   0.83302   0.00000  Uiso   1.00
C763   C     0.73459   0.16667   0.82125   0.00000  Uiso   1.00
C764   C     0.93208   0.16667   0.84542   0.00000  Uiso   1.00
C765   C     0.67931   0.16673   0.81458   0.00000  Uiso   1.00
C766   C     0.98736   0.16661   0.85208   0.00000  Uiso   1.00
C767   C     0.80520   0.02232   0.79667   0.00000  Uiso   1.00
C768   C     0.86146   0.31102   0.87000   0.00000  Uiso   1.00
C769   C     0.80301   0.31291   0.79583   0.00000  Uiso   1.00
C770   C     0.86365   0.02042   0.87083   0.00000  Uiso   1.00
C771   C     0.83165   0.29049   0.83273   0.00000  Uiso   1.00
C772   C     0.83501   0.04284   0.83394   0.00000  Uiso   1.00
C773   C     0.80026   0.14184   0.68740   0.00000  Uiso   1.00
C774   C     0.86641   0.19149   0.97926   0.00000  Uiso   1.00
C775   C     0.80025   0.14186   0.97115   0.00000  Uiso   1.00
C776   C     0.86641   0.19147   0.69552   0.00000  Uiso   1.00
Cu777  Cu    0.83333   0.16667   0.88022   0.00000  Uiso   1.00
Cu778  Cu    0.83333   0.16666   0.78645   0.00000  Uiso   1.00
H779   H     0.99266   0.16688   0.77860   0.00000  Uiso   1.00
H780   H     0.67401   0.16645   0.88806   0.00000  Uiso   1.00
H781   H     0.78258   0.03964   0.76862   0.00000  Uiso   1.00
H782   H     0.88409   0.29370   0.89804   0.00000  Uiso   1.00
H783   H     0.77381   0.12191   0.70283   0.00000  Uiso   1.00
H784   H     0.89285   0.21143   0.96384   0.00000  Uiso   1.00
H785   H     0.77378   0.12195   0.94923   0.00000  Uiso   1.00
H786   H     0.89289   0.21138   0.71743   0.00000  Uiso   1.00
N787   N     0.83335   0.16668   0.95069   0.00000  Uiso   1.00
N788   N     0.83332   0.16666   0.71597   0.00000  Uiso   1.00
O789   O     0.83333   0.10655   0.87291   0.00000  Uiso   1.00
O790   O     0.83334   0.22678   0.79375   0.00000  Uiso   1.00
O791   O     0.83333   0.10654   0.79372   0.00000  Uiso   1.00
O792   O     0.83334   0.22679   0.87294   0.00000  Uiso   1.00
O793   O     0.75828   0.16667   0.86379   0.00000  Uiso   1.00
O794   O     0.90839   0.16666   0.80288   0.00000  Uiso   1.00
O795   O     0.75828   0.16666   0.78460   0.00000  Uiso   1.00
O796   O     0.90839   0.16667   0.88207   0.00000  Uiso   1.00
I797   I     0.75245   0.28544   0.73968   0.00000  Uiso   1.00
I798   I     0.91421   0.04790   0.92698   0.00000  Uiso   1.00
C799   C     0.16804   0.42076   0.83364   0.00000  Uiso   1.00
C800   C     0.16530   0.57924   0.83302   0.00000  Uiso   1.00
C801   C     0.06792   0.50000   0.82125   0.00000  Uiso   1.00
C802   C     0.26541   0.50000   0.84542   0.00000  Uiso   1.00
C803   C     0.01264   0.50006   0.81458   0.00000  Uiso   1.00
C804   C     0.32069   0.49994   0.85208   0.00000  Uiso   1.00
C805   C     0.13854   0.35565   0.79667   0.00000  Uiso   1.00
C806   C     0.19479   0.64435   0.87000   0.00000  Uiso   1.00
C807   C     0.13635   0.64624   0.79583   0.00000  Uiso   1.00
C808   C     0.19698   0.35376   0.87083   0.00000  Uiso   1.00
C809   C     0.16499   0.62383   0.83273   0.00000  Uiso   1.00
C810   C     0.16834   0.37617   0.83394   0.00000  Uiso   1.00
C811   C     0.13359   0.47517   0.68740   0.00000  Uiso   1.00
C812   C     0.19974   0.52483   0.97926   0.00000  Uiso   1.00
C813   C     0.13359   0.47519   0.97115   0.00000  Uiso   1.00
C814   C     0.19975   0.52481   0.69552   0.00000  Uiso   1.00
Cu815  Cu    0.16667   0.50001   0.88022   0.00000  Uiso   1.00
Cu816  Cu    0.16667   0.49999   0.78645   0.00000  Uiso   1.00
H817   H     0.32599   0.50022   0.77860   0.00000  Uiso   1.00
H818   H     0.00734   0.49978   0.88806   0.00000  Uiso   1.00
H819   H     0.11591   0.37297   0.76862   0.00000  Uiso   1.00
H820   H     0.21742   0.62703   0.89804   0.00000  Uiso   1.00
H821   H     0.10714   0.45524   0.70283   0.00000  Uiso   1.00
H822   H     0.22619   0.54476   0.96384   0.00000  Uiso   1.00
H823   H     0.10711   0.45529   0.94923   0.00000  Uiso   1.00
H824   H     0.22622   0.54471   0.71743   0.00000  Uiso   1.00
N825   N     0.16668   0.50001   0.95069   0.00000  Uiso   1.00
N826   N     0.16665   0.49999   0.71597   0.00000  Uiso   1.00
O827   O     0.16666   0.43989   0.87291   0.00000  Uiso   1.00
O828   O     0.16667   0.56011   0.79375   0.00000  Uiso   1.00
O829   O     0.16666   0.43988   0.79372   0.00000  Uiso   1.00
O830   O     0.16667   0.56012   0.87294   0.00000  Uiso   1.00
O831   O     0.09161   0.50000   0.86379   0.00000  Uiso   1.00
O832   O     0.24172   0.50000   0.80288   0.00000  Uiso   1.00
O833   O     0.09161   0.49999   0.78460   0.00000  Uiso   1.00
O834   O     0.24172   0.50001   0.88207   0.00000  Uiso   1.00
I835   I     0.08579   0.61877   0.73968   0.00000  Uiso   1.00
I836   I     0.24755   0.38123   0.92698   0.00000  Uiso   1.00
C837   C     0.50137   0.42076   0.83364   0.00000  Uiso   1.00
C838   C     0.49863   0.57924   0.83302   0.00000  Uiso   1.00
C839   C     0.40126   0.50000   0.82125   0.00000  Uiso   1.00
C840   C     0.59874   0.50000   0.84542   0.00000  Uiso   1.00
C841   C     0.34598   0.50006   0.81458   0.00000  Uiso   1.00
C842   C     0.65402   0.49994   0.85208   0.00000  Uiso   1.00
C843   C     0.47187   0.35565   0.79667   0.00000  Uiso   1.00
C844   C     0.52813   0.64435   0.87000   0.00000  Uiso   1.00
C845   C     0.46968   0.64624   0.79583   0.00000  Uiso   1.00
C846   C     0.53032   0.35376   0.87083   0.00000  Uiso   1.00
C847   C     0.49832   0.62383   0.83273   0.00000  Uiso   1.00
C848   C     0.50168   0.37617   0.83394   0.00000  Uiso   1.00
C849   C     0.46692   0.47517   0.68740   0.00000  Uiso   1.00
C850   C     0.53308   0.52483   0.97926   0.00000  Uiso   1.00
C851   C     0.46692   0.47519   0.97115   0.00000  Uiso   1.00
C852   C     0.53308   0.52481   0.69552   0.00000  Uiso   1.00
Cu853  Cu    0.50000   0.50001   0.88022   0.00000  Uiso   1.00
Cu854  Cu    0.50000   0.49999   0.78645   0.00000  Uiso   1.00
H855   H     0.65933   0.50022   0.77860   0.00000  Uiso   1.00
H856   H     0.34067   0.49978   0.88806   0.00000  Uiso   1.00
H857   H     0.44924   0.37297   0.76862   0.00000  Uiso   1.00
H858   H     0.55075   0.62703   0.89804   0.00000  Uiso   1.00
H859   H     0.44048   0.45524   0.70283   0.00000  Uiso   1.00
H860   H     0.55952   0.54476   0.96384   0.00000  Uiso   1.00
H861   H     0.44044   0.45529   0.94923   0.00000  Uiso   1.00
H862   H     0.55955   0.54471   0.71743   0.00000  Uiso   1.00
N863   N     0.50001   0.50001   0.95069   0.00000  Uiso   1.00
N864   N     0.49999   0.49999   0.71597   0.00000  Uiso   1.00
O865   O     0.50000   0.43989   0.87291   0.00000  Uiso   1.00
O866   O     0.50000   0.56011   0.79375   0.00000  Uiso   1.00
O867   O     0.50000   0.43988   0.79372   0.00000  Uiso   1.00
O868   O     0.50000   0.56012   0.87294   0.00000  Uiso   1.00
O869   O     0.42495   0.50000   0.86379   0.00000  Uiso   1.00
O870   O     0.57505   0.50000   0.80288   0.00000  Uiso   1.00
O871   O     0.42494   0.49999   0.78460   0.00000  Uiso   1.00
O872   O     0.57506   0.50001   0.88207   0.00000  Uiso   1.00
I873   I     0.41912   0.61877   0.73968   0.00000  Uiso   1.00
I874   I     0.58088   0.38123   0.92698   0.00000  Uiso   1.00
C875   C     0.83470   0.42076   0.83364   0.00000  Uiso   1.00
C876   C     0.83196   0.57924   0.83302   0.00000  Uiso   1.00
C877   C     0.73459   0.50000   0.82125   0.00000  Uiso   1.00
C878   C     0.93208   0.50000   0.84542   0.00000  Uiso   1.00
C879   C     0.67931   0.50006   0.81458   0.00000  Uiso   1.00
C880   C     0.98736   0.49994   0.85208   0.00000  Uiso   1.00
C881   C     0.80520   0.35565   0.79667   0.00000  Uiso   1.00
C882   C     0.86146   0.64435   0.87000   0.00000  Uiso   1.00
C883   C     0.80301   0.64624   0.79583   0.00000  Uiso   1.00
C884   C     0.86365   0.35376   0.87083   0.00000  Uiso   1.00
C885   C     0.83165   0.62383   0.83273   0.00000  Uiso   1.00
C886   C     0.83501   0.37617   0.83394   0.00000  Uiso   1.00
C887   C     0.80026   0.47517   0.68740   0.00000  Uiso   1.00
C888   C     0.86641   0.52483   0.97926   0.00000  Uiso   1.00
C889   C     0.80025   0.47519   0.97115   0.00000  Uiso   1.00
C890   C     0.86641   0.52481   0.69552   0.00000  Uiso   1.00
Cu891  Cu    0.83333   0.50001   0.88022   0.00000  Uiso   1.00
Cu892  Cu    0.83333   0.49999   0.78645   0.00000  Uiso   1.00
H893   H     0.99266   0.50022   0.77860   0.00000  Uiso   1.00
H894   H     0.67401   0.49978   0.88806   0.00000  Uiso   1.00
H895   H     0.78258   0.37297   0.76862   0.00000  Uiso   1.00
H896   H     0.88409   0.62703   0.89804   0.00000  Uiso   1.00
H897   H     0.77381   0.45524   0.70283   0.00000  Uiso   1.00
H898   H     0.89285   0.54476   0.96384   0.00000  Uiso   1.00
H899   H     0.77378   0.45529   0.94923   0.00000  Uiso   1.00
H900   H     0.89289   0.54471   0.71743   0.00000  Uiso   1.00
N901   N     0.83335   0.50001   0.95069   0.00000  Uiso   1.00
N902   N     0.83332   0.49999   0.71597   0.00000  Uiso   1.00
O903   O     0.83333   0.43989   0.87291   0.00000  Uiso   1.00
O904   O     0.83334   0.56011   0.79375   0.00000  Uiso   1.00
O905   O     0.83333   0.43988   0.79372   0.00000  Uiso   1.00
O906   O     0.83334   0.56012   0.87294   0.00000  Uiso   1.00
O907   O     0.75828   0.50000   0.86379   0.00000  Uiso   1.00
O908   O     0.90839   0.50000   0.80288   0.00000  Uiso   1.00
O909   O     0.75828   0.49999   0.78460   0.00000  Uiso   1.00
O910   O     0.90839   0.50001   0.88207   0.00000  Uiso   1.00
I911   I     0.75245   0.61877   0.73968   0.00000  Uiso   1.00
I912   I     0.91421   0.38123   0.92698   0.00000  Uiso   1.00
C913   C     0.16804   0.75409   0.83364   0.00000  Uiso   1.00
C914   C     0.16530   0.91257   0.83302   0.00000  Uiso   1.00
C915   C     0.06792   0.83333   0.82125   0.00000  Uiso   1.00
C916   C     0.26541   0.83333   0.84542   0.00000  Uiso   1.00
C917   C     0.01264   0.83339   0.81458   0.00000  Uiso   1.00
C918   C     0.32069   0.83327   0.85208   0.00000  Uiso   1.00
C919   C     0.13854   0.68898   0.79667   0.00000  Uiso   1.00
C920   C     0.19479   0.97768   0.87000   0.00000  Uiso   1.00
C921   C     0.13635   0.97958   0.79583   0.00000  Uiso   1.00
C922   C     0.19698   0.68709   0.87083   0.00000  Uiso   1.00
C923   C     0.16499   0.95716   0.83273   0.00000  Uiso   1.00
C924   C     0.16834   0.70951   0.83394   0.00000  Uiso   1.00
C925   C     0.13359   0.80851   0.68740   0.00000  Uiso   1.00
C926   C     0.19974   0.85816   0.97926   0.00000  Uiso   1.00
C927   C     0.13359   0.80853   0.97115   0.00000  Uiso   1.00
C928   C     0.19975   0.85814   0.69552   0.00000  Uiso   1.00
Cu929  Cu    0.16667   0.83334   0.88022   0.00000  Uiso   1.00
Cu930  Cu    0.16667   0.83333   0.78645   0.00000  Uiso   1.00
H931   H     0.32599   0.83355   0.77860   0.00000  Uiso   1.00
H932   H     0.00734   0.83312   0.88806   0.00000  Uiso   1.00
H933   H     0.11591   0.70630   0.76862   0.00000  Uiso   1.00
H934   H     0.21742   0.96036   0.89804   0.00000  Uiso   1.00
H935   H     0.10714   0.78857   0.70283   0.00000  Uiso   1.00
H936   H     0.22619   0.87809   0.96384   0.00000  Uiso   1.00
H937   H     0.10711   0.78862   0.94923   0.00000  Uiso   1.00
H938   H     0.22622   0.87805   0.71743   0.00000  Uiso   1.00
N939   N     0.16668   0.83334   0.95069   0.00000  Uiso   1.00
N940   N     0.16665   0.83332   0.71597   0.00000  Uiso   1.00
O941   O     0.16666   0.77322   0.87291   0.00000  Uiso   1.00
O942   O     0.16667   0.89345   0.79375   0.00000  Uiso   1.00
O943   O     0.16666   0.77321   0.79372   0.00000  Uiso   1.00
O944   O     0.16667   0.89346   0.87294   0.00000  Uiso   1.00
O945   O     0.09161   0.83334   0.86379   0.00000  Uiso   1.00
O946   O     0.24172   0.83333   0.80288   0.00000  Uiso   1.00
O947   O     0.09161   0.83333   0.78460   0.00000  Uiso   1.00
O948   O     0.24172   0.83334   0.88207   0.00000  Uiso   1.00
I949   I     0.08579   0.95210   0.73968   0.00000  Uiso   1.00
I950   I     0.24755   0.71456   0.92698   0.00000  Uiso   1.00
C951   C     0.50137   0.75409   0.83364   0.00000  Uiso   1.00
C952   C     0.49863   0.91257   0.83302   0.00000  Uiso   1.00
C953   C     0.40126   0.83333   0.82125   0.00000  Uiso   1.00
C954   C     0.59874   0.83333   0.84542   0.00000  Uiso   1.00
C955   C     0.34598   0.83339   0.81458   0.00000  Uiso   1.00
C956   C     0.65402   0.83327   0.85208   0.00000  Uiso   1.00
C957   C     0.47187   0.68898   0.79667   0.00000  Uiso   1.00
C958   C     0.52813   0.97768   0.87000   0.00000  Uiso   1.00
C959   C     0.46968   0.97958   0.79583   0.00000  Uiso   1.00
C960   C     0.53032   0.68709   0.87083   0.00000  Uiso   1.00
C961   C     0.49832   0.95716   0.83273   0.00000  Uiso   1.00
C962   C     0.50168   0.70951   0.83394   0.00000  Uiso   1.00
C963   C     0.46692   0.80851   0.68740   0.00000  Uiso   1.00
C964   C     0.53308   0.85816   0.97926   0.00000  Uiso   1.00
C965   C     0.46692   0.80853   0.97115   0.00000  Uiso   1.00
C966   C     0.53308   0.85814   0.69552   0.00000  Uiso   1.00
Cu967  Cu    0.50000   0.83334   0.88022   0.00000  Uiso   1.00
Cu968  Cu    0.50000   0.83333   0.78645   0.00000  Uiso   1.00
H969   H     0.65933   0.83355   0.77860   0.00000  Uiso   1.00
H970   H     0.34067   0.83312   0.88806   0.00000  Uiso   1.00
H971   H     0.44924   0.70630   0.76862   0.00000  Uiso   1.00
H972   H     0.55075   0.96036   0.89804   0.00000  Uiso   1.00
H973   H     0.44048   0.78857   0.70283   0.00000  Uiso   1.00
H974   H     0.55952   0.87809   0.96384   0.00000  Uiso   1.00
H975   H     0.44044   0.78862   0.94923   0.00000  Uiso   1.00
H976   H     0.55955   0.87805   0.71743   0.00000  Uiso   1.00
N977   N     0.50001   0.83334   0.95069   0.00000  Uiso   1.00
N978   N     0.49999   0.83332   0.71597   0.00000  Uiso   1.00
O979   O     0.50000   0.77322   0.87291   0.00000  Uiso   1.00
O980   O     0.50000   0.89345   0.79375   0.00000  Uiso   1.00
O981   O     0.50000   0.77321   0.79372   0.00000  Uiso   1.00
O982   O     0.50000   0.89346   0.87294   0.00000  Uiso   1.00
O983   O     0.42495   0.83334   0.86379   0.00000  Uiso   1.00
O984   O     0.57505   0.83333   0.80288   0.00000  Uiso   1.00
O985   O     0.42494   0.83333   0.78460   0.00000  Uiso   1.00
O986   O     0.57506   0.83334   0.88207   0.00000  Uiso   1.00
I987   I     0.41912   0.95210   0.73968   0.00000  Uiso   1.00
I988   I     0.58088   0.71456   0.92698   0.00000  Uiso   1.00
C989   C     0.83470   0.75409   0.83364   0.00000  Uiso   1.00
C990   C     0.83196   0.91257   0.83302   0.00000  Uiso   1.00
C991   C     0.73459   0.83333   0.82125   0.00000  Uiso   1.00
C992   C     0.93208   0.83333   0.84542   0.00000  Uiso   1.00
C993   C     0.67931   0.83339   0.81458   0.00000  Uiso   1.00
C994   C     0.98736   0.83327   0.85208   0.00000  Uiso   1.00
C995   C     0.80520   0.68898   0.79667   0.00000  Uiso   1.00
C996   C     0.86146   0.97768   0.87000   0.00000  Uiso   1.00
C997   C     0.80301   0.97958   0.79583   0.00000  Uiso   1.00
C998   C     0.86365   0.68709   0.87083   0.00000  Uiso   1.00
C999   C     0.83165   0.95716   0.83273   0.00000  Uiso   1.00
C1000  C     0.83501   0.70951   0.83394   0.00000  Uiso   1.00
C1001  C     0.80026   0.80851   0.68740   0.00000  Uiso   1.00
C1002  C     0.86641   0.85816   0.97926   0.00000  Uiso   1.00
C1003  C     0.80025   0.80853   0.97115   0.00000  Uiso   1.00
C1004  C     0.86641   0.85814   0.69552   0.00000  Uiso   1.00
Cu1005 Cu    0.83333   0.83334   0.88022   0.00000  Uiso   1.00
Cu1006 Cu    0.83333   0.83333   0.78645   0.00000  Uiso   1.00
H1007  H     0.99266   0.83355   0.77860   0.00000  Uiso   1.00
H1008  H     0.67401   0.83312   0.88806   0.00000  Uiso   1.00
H1009  H     0.78258   0.70630   0.76862   0.00000  Uiso   1.00
H1010  H     0.88409   0.96036   0.89804   0.00000  Uiso   1.00
H1011  H     0.77381   0.78857   0.70283   0.00000  Uiso   1.00
H1012  H     0.89285   0.87809   0.96384   0.00000  Uiso   1.00
H1013  H     0.77378   0.78862   0.94923   0.00000  Uiso   1.00
H1014  H     0.89289   0.87805   0.71743   0.00000  Uiso   1.00
N1015  N     0.83335   0.83334   0.95069   0.00000  Uiso   1.00
N1016  N     0.83332   0.83332   0.71597   0.00000  Uiso   1.00
O1017  O     0.83333   0.77322   0.87291   0.00000  Uiso   1.00
O1018  O     0.83334   0.89345   0.79375   0.00000  Uiso   1.00
O1019  O     0.83333   0.77321   0.79372   0.00000  Uiso   1.00
O1020  O     0.83334   0.89346   0.87294   0.00000  Uiso   1.00
O1021  O     0.75828   0.83334   0.86379   0.00000  Uiso   1.00
O1022  O     0.90839   0.83333   0.80288   0.00000  Uiso   1.00
O1023  O     0.75828   0.83333   0.78460   0.00000  Uiso   1.00
O1024  O     0.90839   0.83334   0.88207   0.00000  Uiso   1.00
I1025  I     0.75245   0.95210   0.73968   0.00000  Uiso   1.00
I1026  I     0.91421   0.71456   0.92698   0.00000  Uiso   1.00
loop_
_geom_bond_atom_site_label_1
_geom_bond_atom_site_label_2
_geom_bond_distance
_geom_bond_site_symmetry_2
_ccdc_geom_bond_type
C1     O29     1.289   .     A
C1     C12     1.445   .     S
C1     O31     1.292   .     A
C2     C11     1.445   .     S
C2     O30     1.289   .     A
C2     O32     1.292   .     A
C3     O35     1.289   .     A
C3     O33     1.287   .     A
C3     C5      1.434   .     S
C4     O36     1.289   .     A
C4     O34     1.287   .     A
C4     C6      1.434   .     S
C5     C82     1.335   1_455 S
C5     H95     1.088   1_455 S
C6     C43     1.335   .     S
C6     H58     1.088   .     S
C7     C12     1.400   .     A
C7     H21     1.085   .     S
C7     C237    1.386   1_545 S
C8     H22     1.085   .     S
C8     C11     1.400   .     A
C8     C124    1.386   .     S
C9     C11     1.408   .     A
C9     I37     2.130   .     S
C9     C121    1.386   .     S
C10    I38     2.130   .     S
C10    C12     1.408   .     A
C10    C236    1.386   1_545 S
C13    N28     1.367   .     A
C13    H23     1.081   .     S
C13    C699    1.417   1_554 S
C14    N27     1.367   .     A
C14    H24     1.081   .     S
C14    C358    1.417   .     S
C15    N27     1.367   .     A
C15    H25     1.081   .     S
C15    C355    1.417   .     S
C16    N28     1.367   .     A
C16    H26     1.081   .     S
C16    C698    1.417   1_554 S
Cu17   O36     1.959   .     S
Cu17   Cu18    2.680   .     S
Cu17   O33     1.957   .     S
Cu17   N27     2.014   .     S
Cu17   O29     1.960   .     S
Cu17   O32     1.958   .     S
Cu18   O35     1.959   .     S
Cu18   N28     2.014   .     S
Cu18   O30     1.960   .     S
Cu18   O34     1.957   .     S
Cu18   O31     1.958   .     S
H19    C43     1.088   .     S
H20    C82     1.088   1_455 S
C39    O67     1.289   .     A
C39    C50     1.445   .     S
C39    O69     1.292   .     A
C40    C49     1.445   .     S
C40    O68     1.289   .     A
C40    O70     1.292   .     A
C41    O73     1.289   .     A
C41    O71     1.287   .     A
C41    C43     1.434   .     S
C42    O74     1.289   .     A
C42    O72     1.287   .     A
C42    C44     1.434   .     S
C44    C81     1.335   .     S
C44    H96     1.088   .     S
C45    C50     1.400   .     A
C45    H59     1.085   .     S
C45    C275    1.386   1_545 S
C46    H60     1.085   .     S
C46    C49     1.400   .     A
C46    C162    1.386   .     S
C47    C49     1.408   .     A
C47    I75     2.130   .     S
C47    C159    1.386   .     S
C48    I76     2.130   .     S
C48    C50     1.408   .     A
C48    C274    1.386   1_545 S
C51    N66     1.367   .     A
C51    H61     1.081   .     S
C51    C737    1.417   1_554 S
C52    N65     1.367   .     A
C52    H62     1.081   .     S
C52    C396    1.417   .     S
C53    N65     1.367   .     A
C53    H63     1.081   .     S
C53    C393    1.417   .     S
C54    N66     1.367   .     A
C54    H64     1.081   .     S
C54    C736    1.417   1_554 S
Cu55   O74     1.959   .     S
Cu55   Cu56    2.680   .     S
Cu55   O71     1.957   .     S
Cu55   N65     2.014   .     S
Cu55   O67     1.960   .     S
Cu55   O70     1.958   .     S
Cu56   O73     1.959   .     S
Cu56   N66     2.014   .     S
Cu56   O68     1.960   .     S
Cu56   O72     1.957   .     S
Cu56   O69     1.958   .     S
H57    C81     1.088   .     S
C77    O105    1.289   .     A
C77    C88     1.445   .     S
C77    O107    1.292   .     A
C78    C87     1.445   .     S
C78    O106    1.289   .     A
C78    O108    1.292   .     A
C79    O111    1.289   .     A
C79    O109    1.287   .     A
C79    C81     1.434   .     S
C80    O112    1.289   .     A
C80    O110    1.287   .     A
C80    C82     1.434   .     S
C82    C5      1.335   1_655 S
C82    H20     1.088   1_655 S
C83    C88     1.400   .     A
C83    H97     1.085   .     S
C83    C313    1.386   1_545 S
C84    H98     1.085   .     S
C84    C87     1.400   .     A
C84    C200    1.386   .     S
C85    C87     1.408   .     A
C85    I113    2.130   .     S
C85    C197    1.386   .     S
C86    I114    2.130   .     S
C86    C88     1.408   .     A
C86    C312    1.386   1_545 S
C89    N104    1.367   .     A
C89    H99     1.081   .     S
C89    C775    1.417   1_554 S
C90    N103    1.367   .     A
C90    H100    1.081   .     S
C90    C434    1.417   .     S
C91    N103    1.367   .     A
C91    H101    1.081   .     S
C91    C431    1.417   .     S
C92    N104    1.367   .     A
C92    H102    1.081   .     S
C92    C774    1.417   1_554 S
Cu93   O112    1.959   .     S
Cu93   Cu94    2.680   .     S
Cu93   O109    1.957   .     S
Cu93   N103    2.014   .     S
Cu93   O105    1.960   .     S
Cu93   O108    1.958   .     S
Cu94   O111    1.959   .     S
Cu94   N104    2.014   .     S
Cu94   O106    1.960   .     S
Cu94   O110    1.957   .     S
Cu94   O107    1.958   .     S
H95    C5      1.088   1_655 S
C115   O143    1.289   .     A
C115   C126    1.445   .     S
C115   O145    1.292   .     A
C116   C125    1.445   .     S
C116   O144    1.289   .     A
C116   O146    1.292   .     A
C117   O149    1.289   .     A
C117   O147    1.287   .     A
C117   C119    1.434   .     S
C118   O150    1.289   .     A
C118   O148    1.287   .     A
C118   C120    1.434   .     S
C119   C196    1.335   1_455 S
C119   H209    1.088   1_455 S
C120   C157    1.335   .     S
C120   H172    1.088   .     S
C121   C126    1.400   .     A
C121   H135    1.085   .     S
C122   H136    1.085   .     S
C122   C125    1.400   .     A
C122   C238    1.386   .     S
C123   C125    1.408   .     A
C123   I151    2.130   .     S
C123   C235    1.386   .     S
C124   I152    2.130   .     S
C124   C126    1.408   .     A
C127   N142    1.367   .     A
C127   H137    1.081   .     S
C127   C813    1.417   1_554 S
C128   N141    1.367   .     A
C128   H138    1.081   .     S
C128   C472    1.417   .     S
C129   N141    1.367   .     A
C129   H139    1.081   .     S
C129   C469    1.417   .     S
C130   N142    1.367   .     A
C130   H140    1.081   .     S
C130   C812    1.417   1_554 S
Cu131  O150    1.959   .     S
Cu131  Cu132   2.680   .     S
Cu131  O147    1.957   .     S
Cu131  N141    2.014   .     S
Cu131  O143    1.960   .     S
Cu131  O146    1.958   .     S
Cu132  O149    1.959   .     S
Cu132  N142    2.014   .     S
Cu132  O144    1.960   .     S
Cu132  O148    1.957   .     S
Cu132  O145    1.958   .     S
H133   C157    1.088   .     S
H134   C196    1.088   1_455 S
C153   O181    1.289   .     A
C153   C164    1.445   .     S
C153   O183    1.292   .     A
C154   C163    1.445   .     S
C154   O182    1.289   .     A
C154   O184    1.292   .     A
C155   O187    1.289   .     A
C155   O185    1.287   .     A
C155   C157    1.434   .     S
C156   O188    1.289   .     A
C156   O186    1.287   .     A
C156   C158    1.434   .     S
C158   C195    1.335   .     S
C158   H210    1.088   .     S
C159   C164    1.400   .     A
C159   H173    1.085   .     S
C160   H174    1.085   .     S
C160   C163    1.400   .     A
C160   C276    1.386   .     S
C161   C163    1.408   .     A
C161   I189    2.130   .     S
C161   C273    1.386   .     S
C162   I190    2.130   .     S
C162   C164    1.408   .     A
C165   N180    1.367   .     A
C165   H175    1.081   .     S
C165   C851    1.417   1_554 S
C166   N179    1.367   .     A
C166   H176    1.081   .     S
C166   C510    1.417   .     S
C167   N179    1.367   .     A
C167   H177    1.081   .     S
C167   C507    1.417   .     S
C168   N180    1.367   .     A
C168   H178    1.081   .     S
C168   C850    1.417   1_554 S
Cu169  O188    1.959   .     S
Cu169  Cu170   2.680   .     S
Cu169  O185    1.957   .     S
Cu169  N179    2.014   .     S
Cu169  O181    1.960   .     S
Cu169  O184    1.958   .     S
Cu170  O187    1.959   .     S
Cu170  N180    2.014   .     S
Cu170  O182    1.960   .     S
Cu170  O186    1.957   .     S
Cu170  O183    1.958   .     S
H171   C195    1.088   .     S
C191   O219    1.289   .     A
C191   C202    1.445   .     S
C191   O221    1.292   .     A
C192   C201    1.445   .     S
C192   O220    1.289   .     A
C192   O222    1.292   .     A
C193   O225    1.289   .     A
C193   O223    1.287   .     A
C193   C195    1.434   .     S
C194   O226    1.289   .     A
C194   O224    1.287   .     A
C194   C196    1.434   .     S
C196   C119    1.335   1_655 S
C196   H134    1.088   1_655 S
C197   C202    1.400   .     A
C197   H211    1.085   .     S
C198   H212    1.085   .     S
C198   C201    1.400   .     A
C198   C314    1.386   .     S
C199   C201    1.408   .     A
C199   I227    2.130   .     S
C199   C311    1.386   .     S
C200   I228    2.130   .     S
C200   C202    1.408   .     A
C203   N218    1.367   .     A
C203   H213    1.081   .     S
C203   C889    1.417   1_554 S
C204   N217    1.367   .     A
C204   H214    1.081   .     S
C204   C548    1.417   .     S
C205   N217    1.367   .     A
C205   H215    1.081   .     S
C205   C545    1.417   .     S
C206   N218    1.367   .     A
C206   H216    1.081   .     S
C206   C888    1.417   1_554 S
Cu207  O226    1.959   .     S
Cu207  Cu208   2.680   .     S
Cu207  O223    1.957   .     S
Cu207  N217    2.014   .     S
Cu207  O219    1.960   .     S
Cu207  O222    1.958   .     S
Cu208  O225    1.959   .     S
Cu208  N218    2.014   .     S
Cu208  O220    1.960   .     S
Cu208  O224    1.957   .     S
Cu208  O221    1.958   .     S
H209   C119    1.088   1_655 S
C229   O257    1.289   .     A
C229   C240    1.445   .     S
C229   O259    1.292   .     A
C230   C239    1.445   .     S
C230   O258    1.289   .     A
C230   O260    1.292   .     A
C231   O263    1.289   .     A
C231   O261    1.287   .     A
C231   C233    1.434   .     S
C232   O264    1.289   .     A
C232   O262    1.287   .     A
C232   C234    1.434   .     S
C233   C310    1.335   1_455 S
C233   H323    1.088   1_455 S
C234   C271    1.335   .     S
C234   H286    1.088   .     S
C235   C240    1.400   .     A
C235   H249    1.085   .     S
C236   H250    1.085   .     S
C236   C239    1.400   .     A
C236   C10     1.386   1_565 S
C237   C239    1.408   .     A
C237   I265    2.130   .     S
C237   C7      1.386   1_565 S
C238   I266    2.130   .     S
C238   C240    1.408   .     A
C241   N256    1.367   .     A
C241   H251    1.081   .     S
C241   C927    1.417   1_554 S
C242   N255    1.367   .     A
C242   H252    1.081   .     S
C242   C586    1.417   .     S
C243   N255    1.367   .     A
C243   H253    1.081   .     S
C243   C583    1.417   .     S
C244   N256    1.367   .     A
C244   H254    1.081   .     S
C244   C926    1.417   1_554 S
Cu245  O264    1.959   .     S
Cu245  Cu246   2.680   .     S
Cu245  O261    1.957   .     S
Cu245  N255    2.014   .     S
Cu245  O257    1.960   .     S
Cu245  O260    1.958   .     S
Cu246  O263    1.959   .     S
Cu246  N256    2.014   .     S
Cu246  O258    1.960   .     S
Cu246  O262    1.957   .     S
Cu246  O259    1.958   .     S
H247   C271    1.088   .     S
H248   C310    1.088   1_455 S
C267   O295    1.289   .     A
C267   C278    1.445   .     S
C267   O297    1.292   .     A
C268   C277    1.445   .     S
C268   O296    1.289   .     A
C268   O298    1.292   .     A
C269   O301    1.289   .     A
C269   O299    1.287   .     A
C269   C271    1.434   .     S
C270   O302    1.289   .     A
C270   O300    1.287   .     A
C270   C272    1.434   .     S
C272   C309    1.335   .     S
C272   H324    1.088   .     S
C273   C278    1.400   .     A
C273   H287    1.085   .     S
C274   H288    1.085   .     S
C274   C277    1.400   .     A
C274   C48     1.386   1_565 S
C275   C277    1.408   .     A
C275   I303    2.130   .     S
C275   C45     1.386   1_565 S
C276   I304    2.130   .     S
C276   C278    1.408   .     A
C279   N294    1.367   .     A
C279   H289    1.081   .     S
C279   C965    1.417   1_554 S
C280   N293    1.367   .     A
C280   H290    1.081   .     S
C280   C624    1.417   .     S
C281   N293    1.367   .     A
C281   H291    1.081   .     S
C281   C621    1.417   .     S
C282   N294    1.367   .     A
C282   H292    1.081   .     S
C282   C964    1.417   1_554 S
Cu283  O302    1.959   .     S
Cu283  Cu284   2.680   .     S
Cu283  O299    1.957   .     S
Cu283  N293    2.014   .     S
Cu283  O295    1.960   .     S
Cu283  O298    1.958   .     S
Cu284  O301    1.959   .     S
Cu284  N294    2.014   .     S
Cu284  O296    1.960   .     S
Cu284  O300    1.957   .     S
Cu284  O297    1.958   .     S
H285   C309    1.088   .     S
C305   O333    1.289   .     A
C305   C316    1.445   .     S
C305   O335    1.292   .     A
C306   C315    1.445   .     S
C306   O334    1.289   .     A
C306   O336    1.292   .     A
C307   O339    1.289   .     A
C307   O337    1.287   .     A
C307   C309    1.434   .     S
C308   O340    1.289   .     A
C308   O338    1.287   .     A
C308   C310    1.434   .     S
C310   C233    1.335   1_655 S
C310   H248    1.088   1_655 S
C311   C316    1.400   .     A
C311   H325    1.085   .     S
C312   H326    1.085   .     S
C312   C315    1.400   .     A
C312   C86     1.386   1_565 S
C313   C315    1.408   .     A
C313   I341    2.130   .     S
C313   C83     1.386   1_565 S
C314   I342    2.130   .     S
C314   C316    1.408   .     A
C317   N332    1.367   .     A
C317   H327    1.081   .     S
C317   C1003   1.417   1_554 S
C318   N331    1.367   .     A
C318   H328    1.081   .     S
C318   C662    1.417   .     S
C319   N331    1.367   .     A
C319   H329    1.081   .     S
C319   C659    1.417   .     S
C320   N332    1.367   .     A
C320   H330    1.081   .     S
C320   C1002   1.417   1_554 S
Cu321  O340    1.959   .     S
Cu321  Cu322   2.680   .     S
Cu321  O337    1.957   .     S
Cu321  N331    2.014   .     S
Cu321  O333    1.960   .     S
Cu321  O336    1.958   .     S
Cu322  O339    1.959   .     S
Cu322  N332    2.014   .     S
Cu322  O334    1.960   .     S
Cu322  O338    1.957   .     S
Cu322  O335    1.958   .     S
H323   C233    1.088   1_655 S
C343   O371    1.289   .     A
C343   C354    1.445   .     S
C343   O373    1.292   .     A
C344   C353    1.445   .     S
C344   O372    1.289   .     A
C344   O374    1.292   .     A
C345   O377    1.289   .     A
C345   O375    1.287   .     A
C345   C347    1.434   .     S
C346   O378    1.289   .     A
C346   O376    1.287   .     A
C346   C348    1.434   .     S
C347   C424    1.335   1_455 S
C347   H437    1.088   1_455 S
C348   C385    1.335   .     S
C348   H400    1.088   .     S
C349   C354    1.400   .     A
C349   H363    1.085   .     S
C349   C579    1.386   1_545 S
C350   H364    1.085   .     S
C350   C353    1.400   .     A
C350   C466    1.386   .     S
C351   C353    1.408   .     A
C351   I379    2.130   .     S
C351   C463    1.386   .     S
C352   I380    2.130   .     S
C352   C354    1.408   .     A
C352   C578    1.386   1_545 S
C355   N370    1.367   .     A
C355   H365    1.081   .     S
C356   N369    1.367   .     A
C356   H366    1.081   .     S
C356   C700    1.417   .     S
C357   N369    1.367   .     A
C357   H367    1.081   .     S
C357   C697    1.417   .     S
C358   N370    1.367   .     A
C358   H368    1.081   .     S
Cu359  O378    1.959   .     S
Cu359  Cu360   2.680   .     S
Cu359  O375    1.957   .     S
Cu359  N369    2.014   .     S
Cu359  O371    1.960   .     S
Cu359  O374    1.958   .     S
Cu360  O377    1.959   .     S
Cu360  N370    2.014   .     S
Cu360  O372    1.960   .     S
Cu360  O376    1.957   .     S
Cu360  O373    1.958   .     S
H361   C385    1.088   .     S
H362   C424    1.088   1_455 S
C381   O409    1.289   .     A
C381   C392    1.445   .     S
C381   O411    1.292   .     A
C382   C391    1.445   .     S
C382   O410    1.289   .     A
C382   O412    1.292   .     A
C383   O415    1.289   .     A
C383   O413    1.287   .     A
C383   C385    1.434   .     S
C384   O416    1.289   .     A
C384   O414    1.287   .     A
C384   C386    1.434   .     S
C386   C423    1.335   .     S
C386   H438    1.088   .     S
C387   C392    1.400   .     A
C387   H401    1.085   .     S
C387   C617    1.386   1_545 S
C388   H402    1.085   .     S
C388   C391    1.400   .     A
C388   C504    1.386   .     S
C389   C391    1.408   .     A
C389   I417    2.130   .     S
C389   C501    1.386   .     S
C390   I418    2.130   .     S
C390   C392    1.408   .     A
C390   C616    1.386   1_545 S
C393   N408    1.367   .     A
C393   H403    1.081   .     S
C394   N407    1.367   .     A
C394   H404    1.081   .     S
C394   C738    1.417   .     S
C395   N407    1.367   .     A
C395   H405    1.081   .     S
C395   C735    1.417   .     S
C396   N408    1.367   .     A
C396   H406    1.081   .     S
Cu397  O416    1.959   .     S
Cu397  Cu398   2.680   .     S
Cu397  O413    1.957   .     S
Cu397  N407    2.014   .     S
Cu397  O409    1.960   .     S
Cu397  O412    1.958   .     S
Cu398  O415    1.959   .     S
Cu398  N408    2.014   .     S
Cu398  O410    1.960   .     S
Cu398  O414    1.957   .     S
Cu398  O411    1.958   .     S
H399   C423    1.088   .     S
C419   O447    1.289   .     A
C419   C430    1.445   .     S
C419   O449    1.292   .     A
C420   C429    1.445   .     S
C420   O448    1.289   .     A
C420   O450    1.292   .     A
C421   O453    1.289   .     A
C421   O451    1.287   .     A
C421   C423    1.434   .     S
C422   O454    1.289   .     A
C422   O452    1.287   .     A
C422   C424    1.434   .     S
C424   C347    1.335   1_655 S
C424   H362    1.088   1_655 S
C425   C430    1.400   .     A
C425   H439    1.085   .     S
C425   C655    1.386   1_545 S
C426   H440    1.085   .     S
C426   C429    1.400   .     A
C426   C542    1.386   .     S
C427   C429    1.408   .     A
C427   I455    2.130   .     S
C427   C539    1.386   .     S
C428   I456    2.130   .     S
C428   C430    1.408   .     A
C428   C654    1.386   1_545 S
C431   N446    1.367   .     A
C431   H441    1.081   .     S
C432   N445    1.367   .     A
C432   H442    1.081   .     S
C432   C776    1.417   .     S
C433   N445    1.367   .     A
C433   H443    1.081   .     S
C433   C773    1.417   .     S
C434   N446    1.367   .     A
C434   H444    1.081   .     S
Cu435  O454    1.959   .     S
Cu435  Cu436   2.680   .     S
Cu435  O451    1.957   .     S
Cu435  N445    2.014   .     S
Cu435  O447    1.960   .     S
Cu435  O450    1.958   .     S
Cu436  O453    1.959   .     S
Cu436  N446    2.014   .     S
Cu436  O448    1.960   .     S
Cu436  O452    1.957   .     S
Cu436  O449    1.958   .     S
H437   C347    1.088   1_655 S
C457   O485    1.289   .     A
C457   C468    1.445   .     S
C457   O487    1.292   .     A
C458   C467    1.445   .     S
C458   O486    1.289   .     A
C458   O488    1.292   .     A
C459   O491    1.289   .     A
C459   O489    1.287   .     A
C459   C461    1.434   .     S
C460   O492    1.289   .     A
C460   O490    1.287   .     A
C460   C462    1.434   .     S
C461   C538    1.335   1_455 S
C461   H551    1.088   1_455 S
C462   C499    1.335   .     S
C462   H514    1.088   .     S
C463   C468    1.400   .     A
C463   H477    1.085   .     S
C464   H478    1.085   .     S
C464   C467    1.400   .     A
C464   C580    1.386   .     S
C465   C467    1.408   .     A
C465   I493    2.130   .     S
C465   C577    1.386   .     S
C466   I494    2.130   .     S
C466   C468    1.408   .     A
C469   N484    1.367   .     A
C469   H479    1.081   .     S
C470   N483    1.367   .     A
C470   H480    1.081   .     S
C470   C814    1.417   .     S
C471   N483    1.367   .     A
C471   H481    1.081   .     S
C471   C811    1.417   .     S
C472   N484    1.367   .     A
C472   H482    1.081   .     S
Cu473  O492    1.959   .     S
Cu473  Cu474   2.680   .     S
Cu473  O489    1.957   .     S
Cu473  N483    2.014   .     S
Cu473  O485    1.960   .     S
Cu473  O488    1.958   .     S
Cu474  O491    1.959   .     S
Cu474  N484    2.014   .     S
Cu474  O486    1.960   .     S
Cu474  O490    1.957   .     S
Cu474  O487    1.958   .     S
H475   C499    1.088   .     S
H476   C538    1.088   1_455 S
C495   O523    1.289   .     A
C495   C506    1.445   .     S
C495   O525    1.292   .     A
C496   C505    1.445   .     S
C496   O524    1.289   .     A
C496   O526    1.292   .     A
C497   O529    1.289   .     A
C497   O527    1.287   .     A
C497   C499    1.434   .     S
C498   O530    1.289   .     A
C498   O528    1.287   .     A
C498   C500    1.434   .     S
C500   C537    1.335   .     S
C500   H552    1.088   .     S
C501   C506    1.400   .     A
C501   H515    1.085   .     S
C502   H516    1.085   .     S
C502   C505    1.400   .     A
C502   C618    1.386   .     S
C503   C505    1.408   .     A
C503   I531    2.130   .     S
C503   C615    1.386   .     S
C504   I532    2.130   .     S
C504   C506    1.408   .     A
C507   N522    1.367   .     A
C507   H517    1.081   .     S
C508   N521    1.367   .     A
C508   H518    1.081   .     S
C508   C852    1.417   .     S
C509   N521    1.367   .     A
C509   H519    1.081   .     S
C509   C849    1.417   .     S
C510   N522    1.367   .     A
C510   H520    1.081   .     S
Cu511  O530    1.959   .     S
Cu511  Cu512   2.680   .     S
Cu511  O527    1.957   .     S
Cu511  N521    2.014   .     S
Cu511  O523    1.960   .     S
Cu511  O526    1.958   .     S
Cu512  O529    1.959   .     S
Cu512  N522    2.014   .     S
Cu512  O524    1.960   .     S
Cu512  O528    1.957   .     S
Cu512  O525    1.958   .     S
H513   C537    1.088   .     S
C533   O561    1.289   .     A
C533   C544    1.445   .     S
C533   O563    1.292   .     A
C534   C543    1.445   .     S
C534   O562    1.289   .     A
C534   O564    1.292   .     A
C535   O567    1.289   .     A
C535   O565    1.287   .     A
C535   C537    1.434   .     S
C536   O568    1.289   .     A
C536   O566    1.287   .     A
C536   C538    1.434   .     S
C538   C461    1.335   1_655 S
C538   H476    1.088   1_655 S
C539   C544    1.400   .     A
C539   H553    1.085   .     S
C540   H554    1.085   .     S
C540   C543    1.400   .     A
C540   C656    1.386   .     S
C541   C543    1.408   .     A
C541   I569    2.130   .     S
C541   C653    1.386   .     S
C542   I570    2.130   .     S
C542   C544    1.408   .     A
C545   N560    1.367   .     A
C545   H555    1.081   .     S
C546   N559    1.367   .     A
C546   H556    1.081   .     S
C546   C890    1.417   .     S
C547   N559    1.367   .     A
C547   H557    1.081   .     S
C547   C887    1.417   .     S
C548   N560    1.367   .     A
C548   H558    1.081   .     S
Cu549  O568    1.959   .     S
Cu549  Cu550   2.680   .     S
Cu549  O565    1.957   .     S
Cu549  N559    2.014   .     S
Cu549  O561    1.960   .     S
Cu549  O564    1.958   .     S
Cu550  O567    1.959   .     S
Cu550  N560    2.014   .     S
Cu550  O562    1.960   .     S
Cu550  O566    1.957   .     S
Cu550  O563    1.958   .     S
H551   C461    1.088   1_655 S
C571   O599    1.289   .     A
C571   C582    1.445   .     S
C571   O601    1.292   .     A
C572   C581    1.445   .     S
C572   O600    1.289   .     A
C572   O602    1.292   .     A
C573   O605    1.289   .     A
C573   O603    1.287   .     A
C573   C575    1.434   .     S
C574   O606    1.289   .     A
C574   O604    1.287   .     A
C574   C576    1.434   .     S
C575   C652    1.335   1_455 S
C575   H665    1.088   1_455 S
C576   C613    1.335   .     S
C576   H628    1.088   .     S
C577   C582    1.400   .     A
C577   H591    1.085   .     S
C578   H592    1.085   .     S
C578   C581    1.400   .     A
C578   C352    1.386   1_565 S
C579   C581    1.408   .     A
C579   I607    2.130   .     S
C579   C349    1.386   1_565 S
C580   I608    2.130   .     S
C580   C582    1.408   .     A
C583   N598    1.367   .     A
C583   H593    1.081   .     S
C584   N597    1.367   .     A
C584   H594    1.081   .     S
C584   C928    1.417   .     S
C585   N597    1.367   .     A
C585   H595    1.081   .     S
C585   C925    1.417   .     S
C586   N598    1.367   .     A
C586   H596    1.081   .     S
Cu587  O606    1.959   .     S
Cu587  Cu588   2.680   .     S
Cu587  O603    1.957   .     S
Cu587  N597    2.014   .     S
Cu587  O599    1.960   .     S
Cu587  O602    1.958   .     S
Cu588  O605    1.959   .     S
Cu588  N598    2.014   .     S
Cu588  O600    1.960   .     S
Cu588  O604    1.957   .     S
Cu588  O601    1.958   .     S
H589   C613    1.088   .     S
H590   C652    1.088   1_455 S
C609   O637    1.289   .     A
C609   C620    1.445   .     S
C609   O639    1.292   .     A
C610   C619    1.445   .     S
C610   O638    1.289   .     A
C610   O640    1.292   .     A
C611   O643    1.289   .     A
C611   O641    1.287   .     A
C611   C613    1.434   .     S
C612   O644    1.289   .     A
C612   O642    1.287   .     A
C612   C614    1.434   .     S
C614   C651    1.335   .     S
C614   H666    1.088   .     S
C615   C620    1.400   .     A
C615   H629    1.085   .     S
C616   H630    1.085   .     S
C616   C619    1.400   .     A
C616   C390    1.386   1_565 S
C617   C619    1.408   .     A
C617   I645    2.130   .     S
C617   C387    1.386   1_565 S
C618   I646    2.130   .     S
C618   C620    1.408   .     A
C621   N636    1.367   .     A
C621   H631    1.081   .     S
C622   N635    1.367   .     A
C622   H632    1.081   .     S
C622   C966    1.417   .     S
C623   N635    1.367   .     A
C623   H633    1.081   .     S
C623   C963    1.417   .     S
C624   N636    1.367   .     A
C624   H634    1.081   .     S
Cu625  O644    1.959   .     S
Cu625  Cu626   2.680   .     S
Cu625  O641    1.957   .     S
Cu625  N635    2.014   .     S
Cu625  O637    1.960   .     S
Cu625  O640    1.958   .     S
Cu626  O643    1.959   .     S
Cu626  N636    2.014   .     S
Cu626  O638    1.960   .     S
Cu626  O642    1.957   .     S
Cu626  O639    1.958   .     S
H627   C651    1.088   .     S
C647   O675    1.289   .     A
C647   C658    1.445   .     S
C647   O677    1.292   .     A
C648   C657    1.445   .     S
C648   O676    1.289   .     A
C648   O678    1.292   .     A
C649   O681    1.289   .     A
C649   O679    1.287   .     A
C649   C651    1.434   .     S
C650   O682    1.289   .     A
C650   O680    1.287   .     A
C650   C652    1.434   .     S
C652   C575    1.335   1_655 S
C652   H590    1.088   1_655 S
C653   C658    1.400   .     A
C653   H667    1.085   .     S
C654   H668    1.085   .     S
C654   C657    1.400   .     A
C654   C428    1.386   1_565 S
C655   C657    1.408   .     A
C655   I683    2.130   .     S
C655   C425    1.386   1_565 S
C656   I684    2.130   .     S
C656   C658    1.408   .     A
C659   N674    1.367   .     A
C659   H669    1.081   .     S
C660   N673    1.367   .     A
C660   H670    1.081   .     S
C660   C1004   1.417   .     S
C661   N673    1.367   .     A
C661   H671    1.081   .     S
C661   C1001   1.417   .     S
C662   N674    1.367   .     A
C662   H672    1.081   .     S
Cu663  O682    1.959   .     S
Cu663  Cu664   2.680   .     S
Cu663  O679    1.957   .     S
Cu663  N673    2.014   .     S
Cu663  O675    1.960   .     S
Cu663  O678    1.958   .     S
Cu664  O681    1.959   .     S
Cu664  N674    2.014   .     S
Cu664  O676    1.960   .     S
Cu664  O680    1.957   .     S
Cu664  O677    1.958   .     S
H665   C575    1.088   1_655 S
C685   O713    1.289   .     A
C685   C696    1.445   .     S
C685   O715    1.292   .     A
C686   C695    1.445   .     S
C686   O714    1.289   .     A
C686   O716    1.292   .     A
C687   O719    1.289   .     A
C687   O717    1.287   .     A
C687   C689    1.434   .     S
C688   O720    1.289   .     A
C688   O718    1.287   .     A
C688   C690    1.434   .     S
C689   C766    1.335   1_455 S
C689   H779    1.088   1_455 S
C690   C727    1.335   .     S
C690   H742    1.088   .     S
C691   C696    1.400   .     A
C691   H705    1.085   .     S
C691   C921    1.386   1_545 S
C692   H706    1.085   .     S
C692   C695    1.400   .     A
C692   C808    1.386   .     S
C693   C695    1.408   .     A
C693   I721    2.130   .     S
C693   C805    1.386   .     S
C694   I722    2.130   .     S
C694   C696    1.408   .     A
C694   C920    1.386   1_545 S
C697   N712    1.367   .     A
C697   H707    1.081   .     S
C698   N711    1.367   .     A
C698   H708    1.081   .     S
C698   C16     1.417   1_556 S
C699   N711    1.367   .     A
C699   H709    1.081   .     S
C699   C13     1.417   1_556 S
C700   N712    1.367   .     A
C700   H710    1.081   .     S
Cu701  O720    1.959   .     S
Cu701  Cu702   2.680   .     S
Cu701  O717    1.957   .     S
Cu701  N711    2.014   .     S
Cu701  O713    1.960   .     S
Cu701  O716    1.958   .     S
Cu702  O719    1.959   .     S
Cu702  N712    2.014   .     S
Cu702  O714    1.960   .     S
Cu702  O718    1.957   .     S
Cu702  O715    1.958   .     S
H703   C727    1.088   .     S
H704   C766    1.088   1_455 S
C723   O751    1.289   .     A
C723   C734    1.445   .     S
C723   O753    1.292   .     A
C724   C733    1.445   .     S
C724   O752    1.289   .     A
C724   O754    1.292   .     A
C725   O757    1.289   .     A
C725   O755    1.287   .     A
C725   C727    1.434   .     S
C726   O758    1.289   .     A
C726   O756    1.287   .     A
C726   C728    1.434   .     S
C728   C765    1.335   .     S
C728   H780    1.088   .     S
C729   C734    1.400   .     A
C729   H743    1.085   .     S
C729   C959    1.386   1_545 S
C730   H744    1.085   .     S
C730   C733    1.400   .     A
C730   C846    1.386   .     S
C731   C733    1.408   .     A
C731   I759    2.130   .     S
C731   C843    1.386   .     S
C732   I760    2.130   .     S
C732   C734    1.408   .     A
C732   C958    1.386   1_545 S
C735   N750    1.367   .     A
C735   H745    1.081   .     S
C736   N749    1.367   .     A
C736   H746    1.081   .     S
C736   C54     1.417   1_556 S
C737   N749    1.367   .     A
C737   H747    1.081   .     S
C737   C51     1.417   1_556 S
C738   N750    1.367   .     A
C738   H748    1.081   .     S
Cu739  O758    1.959   .     S
Cu739  Cu740   2.680   .     S
Cu739  O755    1.957   .     S
Cu739  N749    2.014   .     S
Cu739  O751    1.960   .     S
Cu739  O754    1.958   .     S
Cu740  O757    1.959   .     S
Cu740  N750    2.014   .     S
Cu740  O752    1.960   .     S
Cu740  O756    1.957   .     S
Cu740  O753    1.958   .     S
H741   C765    1.088   .     S
C761   O789    1.289   .     A
C761   C772    1.445   .     S
C761   O791    1.292   .     A
C762   C771    1.445   .     S
C762   O790    1.289   .     A
C762   O792    1.292   .     A
C763   O795    1.289   .     A
C763   O793    1.287   .     A
C763   C765    1.434   .     S
C764   O796    1.289   .     A
C764   O794    1.287   .     A
C764   C766    1.434   .     S
C766   C689    1.335   1_655 S
C766   H704    1.088   1_655 S
C767   C772    1.400   .     A
C767   H781    1.085   .     S
C767   C997    1.386   1_545 S
C768   H782    1.085   .     S
C768   C771    1.400   .     A
C768   C884    1.386   .     S
C769   C771    1.408   .     A
C769   I797    2.130   .     S
C769   C881    1.386   .     S
C770   I798    2.130   .     S
C770   C772    1.408   .     A
C770   C996    1.386   1_545 S
C773   N788    1.367   .     A
C773   H783    1.081   .     S
C774   N787    1.367   .     A
C774   H784    1.081   .     S
C774   C92     1.417   1_556 S
C775   N787    1.367   .     A
C775   H785    1.081   .     S
C775   C89     1.417   1_556 S
C776   N788    1.367   .     A
C776   H786    1.081   .     S
Cu777  O796    1.959   .     S
Cu777  Cu778   2.680   .     S
Cu777  O793    1.957   .     S
Cu777  N787    2.014   .     S
Cu777  O789    1.960   .     S
Cu777  O792    1.958   .     S
Cu778  O795    1.959   .     S
Cu778  N788    2.014   .     S
Cu778  O790    1.960   .     S
Cu778  O794    1.957   .     S
Cu778  O791    1.958   .     S
H779   C689    1.088   1_655 S
C799   O827    1.289   .     A
C799   C810    1.445   .     S
C799   O829    1.292   .     A
C800   C809    1.445   .     S
C800   O828    1.289   .     A
C800   O830    1.292   .     A
C801   O833    1.289   .     A
C801   O831    1.287   .     A
C801   C803    1.434   .     S
C802   O834    1.289   .     A
C802   O832    1.287   .     A
C802   C804    1.434   .     S
C803   C880    1.335   1_455 S
C803   H893    1.088   1_455 S
C804   C841    1.335   .     S
C804   H856    1.088   .     S
C805   C810    1.400   .     A
C805   H819    1.085   .     S
C806   H820    1.085   .     S
C806   C809    1.400   .     A
C806   C922    1.386   .     S
C807   C809    1.408   .     A
C807   I835    2.130   .     S
C807   C919    1.386   .     S
C808   I836    2.130   .     S
C808   C810    1.408   .     A
C811   N826    1.367   .     A
C811   H821    1.081   .     S
C812   N825    1.367   .     A
C812   H822    1.081   .     S
C812   C130    1.417   1_556 S
C813   N825    1.367   .     A
C813   H823    1.081   .     S
C813   C127    1.417   1_556 S
C814   N826    1.367   .     A
C814   H824    1.081   .     S
Cu815  O834    1.959   .     S
Cu815  Cu816   2.680   .     S
Cu815  O831    1.957   .     S
Cu815  N825    2.014   .     S
Cu815  O827    1.960   .     S
Cu815  O830    1.958   .     S
Cu816  O833    1.959   .     S
Cu816  N826    2.014   .     S
Cu816  O828    1.960   .     S
Cu816  O832    1.957   .     S
Cu816  O829    1.958   .     S
H817   C841    1.088   .     S
H818   C880    1.088   1_455 S
C837   O865    1.289   .     A
C837   C848    1.445   .     S
C837   O867    1.292   .     A
C838   C847    1.445   .     S
C838   O866    1.289   .     A
C838   O868    1.292   .     A
C839   O871    1.289   .     A
C839   O869    1.287   .     A
C839   C841    1.434   .     S
C840   O872    1.289   .     A
C840   O870    1.287   .     A
C840   C842    1.434   .     S
C842   C879    1.335   .     S
C842   H894    1.088   .     S
C843   C848    1.400   .     A
C843   H857    1.085   .     S
C844   H858    1.085   .     S
C844   C847    1.400   .     A
C844   C960    1.386   .     S
C845   C847    1.408   .     A
C845   I873    2.130   .     S
C845   C957    1.386   .     S
C846   I874    2.130   .     S
C846   C848    1.408   .     A
C849   N864    1.367   .     A
C849   H859    1.081   .     S
C850   N863    1.367   .     A
C850   H860    1.081   .     S
C850   C168    1.417   1_556 S
C851   N863    1.367   .     A
C851   H861    1.081   .     S
C851   C165    1.417   1_556 S
C852   N864    1.367   .     A
C852   H862    1.081   .     S
Cu853  O872    1.959   .     S
Cu853  Cu854   2.680   .     S
Cu853  O869    1.957   .     S
Cu853  N863    2.014   .     S
Cu853  O865    1.960   .     S
Cu853  O868    1.958   .     S
Cu854  O871    1.959   .     S
Cu854  N864    2.014   .     S
Cu854  O866    1.960   .     S
Cu854  O870    1.957   .     S
Cu854  O867    1.958   .     S
H855   C879    1.088   .     S
C875   O903    1.289   .     A
C875   C886    1.445   .     S
C875   O905    1.292   .     A
C876   C885    1.445   .     S
C876   O904    1.289   .     A
C876   O906    1.292   .     A
C877   O909    1.289   .     A
C877   O907    1.287   .     A
C877   C879    1.434   .     S
C878   O910    1.289   .     A
C878   O908    1.287   .     A
C878   C880    1.434   .     S
C880   C803    1.335   1_655 S
C880   H818    1.088   1_655 S
C881   C886    1.400   .     A
C881   H895    1.085   .     S
C882   H896    1.085   .     S
C882   C885    1.400   .     A
C882   C998    1.386   .     S
C883   C885    1.408   .     A
C883   I911    2.130   .     S
C883   C995    1.386   .     S
C884   I912    2.130   .     S
C884   C886    1.408   .     A
C887   N902    1.367   .     A
C887   H897    1.081   .     S
C888   N901    1.367   .     A
C888   H898    1.081   .     S
C888   C206    1.417   1_556 S
C889   N901    1.367   .     A
C889   H899    1.081   .     S
C889   C203    1.417   1_556 S
C890   N902    1.367   .     A
C890   H900    1.081   .     S
Cu891  O910    1.959   .     S
Cu891  Cu892   2.680   .     S
Cu891  O907    1.957   .     S
Cu891  N901    2.014   .     S
Cu891  O903    1.960   .     S
Cu891  O906    1.958   .     S
Cu892  O909    1.959   .     S
Cu892  N902    2.014   .     S
Cu892  O904    1.960   .     S
Cu892  O908    1.957   .     S
Cu892  O905    1.958   .     S
H893   C803    1.088   1_655 S
C913   O941    1.289   .     A
C913   C924    1.445   .     S
C913   O943    1.292   .     A
C914   C923    1.445   .     S
C914   O942    1.289   .     A
C914   O944    1.292   .     A
C915   O947    1.289   .     A
C915   O945    1.287   .     A
C915   C917    1.434   .     S
C916   O948    1.289   .     A
C916   O946    1.287   .     A
C916   C918    1.434   .     S
C917   C994    1.335   1_455 S
C917   H1007   1.088   1_455 S
C918   C955    1.335   .     S
C918   H970    1.088   .     S
C919   C924    1.400   .     A
C919   H933    1.085   .     S
C920   H934    1.085   .     S
C920   C923    1.400   .     A
C920   C694    1.386   1_565 S
C921   C923    1.408   .     A
C921   I949    2.130   .     S
C921   C691    1.386   1_565 S
C922   I950    2.130   .     S
C922   C924    1.408   .     A
C925   N940    1.367   .     A
C925   H935    1.081   .     S
C926   N939    1.367   .     A
C926   H936    1.081   .     S
C926   C244    1.417   1_556 S
C927   N939    1.367   .     A
C927   H937    1.081   .     S
C927   C241    1.417   1_556 S
C928   N940    1.367   .     A
C928   H938    1.081   .     S
Cu929  O948    1.959   .     S
Cu929  Cu930   2.680   .     S
Cu929  O945    1.957   .     S
Cu929  N939    2.014   .     S
Cu929  O941    1.960   .     S
Cu929  O944    1.958   .     S
Cu930  O947    1.959   .     S
Cu930  N940    2.014   .     S
Cu930  O942    1.960   .     S
Cu930  O946    1.957   .     S
Cu930  O943    1.958   .     S
H931   C955    1.088   .     S
H932   C994    1.088   1_455 S
C951   O979    1.289   .     A
C951   C962    1.445   .     S
C951   O981    1.292   .     A
C952   C961    1.445   .     S
C952   O980    1.289   .     A
C952   O982    1.292   .     A
C953   O985    1.289   .     A
C953   O983    1.287   .     A
C953   C955    1.434   .     S
C954   O986    1.289   .     A
C954   O984    1.287   .     A
C954   C956    1.434   .     S
C956   C993    1.335   .     S
C956   H1008   1.088   .     S
C957   C962    1.400   .     A
C957   H971    1.085   .     S
C958   H972    1.085   .     S
C958   C961    1.400   .     A
C958   C732    1.386   1_565 S
C959   C961    1.408   .     A
C959   I987    2.130   .     S
C959   C729    1.386   1_565 S
C960   I988    2.130   .     S
C960   C962    1.408   .     A
C963   N978    1.367   .     A
C963   H973    1.081   .     S
C964   N977    1.367   .     A
C964   H974    1.081   .     S
C964   C282    1.417   1_556 S
C965   N977    1.367   .     A
C965   H975    1.081   .     S
C965   C279    1.417   1_556 S
C966   N978    1.367   .     A
C966   H976    1.081   .     S
Cu967  O986    1.959   .     S
Cu967  Cu968   2.680   .     S
Cu967  O983    1.957   .     S
Cu967  N977    2.014   .     S
Cu967  O979    1.960   .     S
Cu967  O982    1.958   .     S
Cu968  O985    1.959   .     S
Cu968  N978    2.014   .     S
Cu968  O980    1.960   .     S
Cu968  O984    1.957   .     S
Cu968  O981    1.958   .     S
H969   C993    1.088   .     S
C989   O1017   1.289   .     A
C989   C1000   1.445   .     S
C989   O1019   1.292   .     A
C990   C999    1.445   .     S
C990   O1018   1.289   .     A
C990   O1020   1.292   .     A
C991   O1023   1.289   .     A
C991   O1021   1.287   .     A
C991   C993    1.434   .     S
C992   O1024   1.289   .     A
C992   O1022   1.287   .     A
C992   C994    1.434   .     S
C994   C917    1.335   1_655 S
C994   H932    1.088   1_655 S
C995   C1000   1.400   .     A
C995   H1009   1.085   .     S
C996   H1010   1.085   .     S
C996   C999    1.400   .     A
C996   C770    1.386   1_565 S
C997   C999    1.408   .     A
C997   I1025   2.130   .     S
C997   C767    1.386   1_565 S
C998   I1026   2.130   .     S
C998   C1000   1.408   .     A
C1001  N1016   1.367   .     A
C1001  H1011   1.081   .     S
C1002  N1015   1.367   .     A
C1002  H1012   1.081   .     S
C1002  C320    1.417   1_556 S
C1003  N1015   1.367   .     A
C1003  H1013   1.081   .     S
C1003  C317    1.417   1_556 S
C1004  N1016   1.367   .     A
C1004  H1014   1.081   .     S
Cu1005 O1024   1.959   .     S
Cu1005 Cu1006  2.680   .     S
Cu1005 O1021   1.957   .     S
Cu1005 N1015   2.014   .     S
Cu1005 O1017   1.960   .     S
Cu1005 O1020   1.958   .     S
Cu1006 O1023   1.959   .     S
Cu1006 N1016   2.014   .     S
Cu1006 O1018   1.960   .     S
Cu1006 O1022   1.957   .     S
Cu1006 O1019   1.958   .     S
H1007  C917    1.088   1_655 S
