data_str_m3_o2_o10_pcu_sym.206
_audit_creation_date              2020-01-03
_audit_creation_method            'Materials Studio'
_symmetry_space_group_name_H-M    'P1'
_symmetry_Int_Tables_number       1
_symmetry_cell_setting            triclinic
loop_
_symmetry_equiv_pos_as_xyz
  x,y,z
_cell_length_a                    25.7101
_cell_length_b                    29.9535
_cell_length_c                    28.6227
_cell_angle_alpha                 91.3490
_cell_angle_beta                  100.0876
_cell_angle_gamma                 93.3899
loop_
_atom_site_label
_atom_site_type_symbol
_atom_site_fract_x
_atom_site_fract_y
_atom_site_fract_z
_atom_site_U_iso_or_equiv
_atom_site_adp_type
_atom_site_occupancy
C1     C     0.16926   0.16383   0.25023   0.00000  Uiso   1.00
C2     C     0.16799   0.33582   0.25053   0.00000  Uiso   1.00
C3     C     0.13101   0.22629   0.04453   0.00000  Uiso   1.00
C4     C     0.18932   0.28692   0.45222   0.00000  Uiso   1.00
C5     C     0.13316   0.22161   0.09331   0.00000  Uiso   1.00
C6     C     0.19062   0.28601   0.40331   0.00000  Uiso   1.00
C7     C     0.20125   0.27939   0.10952   0.00000  Uiso   1.00
C8     C     0.14566   0.21428   0.39429   0.00000  Uiso   1.00
C9     C     0.20396   0.28040   0.06046   0.00000  Uiso   1.00
C10    C     0.14737   0.21341   0.44381   0.00000  Uiso   1.00
C11    C     0.16819   0.25301   0.02684   0.00000  Uiso   1.00
C12    C     0.16869   0.25076   0.47385   0.00000  Uiso   1.00
C13    C     0.06635   0.24431   0.23708   0.00000  Uiso   1.00
C14    C     0.26597   0.24558   0.26246   0.00000  Uiso   1.00
C15    C     0.00984   0.23038   0.23007   0.00000  Uiso   1.00
C16    C     0.31917   0.23176   0.26845   0.00000  Uiso   1.00
C17    C     0.17764   0.04516   0.29011   0.00000  Uiso   1.00
C18    C     0.21237   0.45240   0.22940   0.00000  Uiso   1.00
C19    C     0.17840   0.09122   0.29301   0.00000  Uiso   1.00
C20    C     0.21234   0.40639   0.23252   0.00000  Uiso   1.00
C21    C     0.17506   0.11563   0.25078   0.00000  Uiso   1.00
C22    C     0.17154   0.38350   0.25101   0.00000  Uiso   1.00
C23    C     0.17744   0.09293   0.20780   0.00000  Uiso   1.00
C24    C     0.13166   0.40617   0.26667   0.00000  Uiso   1.00
C25    C     0.17728   0.04674   0.20552   0.00000  Uiso   1.00
C26    C     0.13206   0.45210   0.26367   0.00000  Uiso   1.00
C27    C     0.17549   0.02309   0.24654   0.00000  Uiso   1.00
C28    C     0.17241   0.47502   0.24506   0.00000  Uiso   1.00
H29    H     0.17912   0.02626   0.32213   0.00000  Uiso   1.00
H30    H     0.24422   0.47063   0.21626   0.00000  Uiso   1.00
H31    H     0.17898   0.11076   0.17579   0.00000  Uiso   1.00
H32    H     0.10001   0.38827   0.28042   0.00000  Uiso   1.00
H33    H     0.17737   0.02948   0.17184   0.00000  Uiso   1.00
H34    H     0.10129   0.46988   0.27606   0.00000  Uiso   1.00
H35    H     0.10205   0.20583   0.02001   0.00000  Uiso   1.00
H36    H     0.20423   0.31663   0.47364   0.00000  Uiso   1.00
H37    H     0.22840   0.30115   0.13439   0.00000  Uiso   1.00
H38    H     0.12732   0.18607   0.37240   0.00000  Uiso   1.00
H39    H     0.23433   0.30216   0.04950   0.00000  Uiso   1.00
H40    H     0.13195   0.18323   0.45789   0.00000  Uiso   1.00
N41    N     0.16667   0.24999   0.12623   0.00000  Uiso   1.00
N42    N     0.16667   0.25001   0.37376   0.00000  Uiso   1.00
O43    O     0.16667   0.18454   0.28974   0.00000  Uiso   1.00
O44    O     0.16666   0.31547   0.21026   0.00000  Uiso   1.00
O45    O     0.16667   0.18453   0.21026   0.00000  Uiso   1.00
O46    O     0.16666   0.31547   0.28974   0.00000  Uiso   1.00
O47    O     0.09058   0.25000   0.28044   0.00000  Uiso   1.00
O48    O     0.24275   0.25000   0.21955   0.00000  Uiso   1.00
O49    O     0.09058   0.25000   0.20096   0.00000  Uiso   1.00
O50    O     0.24275   0.25001   0.29903   0.00000  Uiso   1.00
Zn51   Zn    0.16667   0.25001   0.30307   0.00000  Uiso   1.00
Zn52   Zn    0.16667   0.25000   0.19693   0.00000  Uiso   1.00
S53    S     0.31565   0.19406   0.17983   0.00000  Uiso   1.00
O54    O     0.00142   0.14841   0.19054   0.00000  Uiso   1.00
O55    O     0.25644   0.18796   0.16842   0.00000  Uiso   1.00
O56    O     0.00325   0.21346   0.13129   0.00000  Uiso   1.00
H57    H     0.32160   0.24308   0.12664   0.00000  Uiso   1.00
S58    S     0.00929   0.20304   0.32072   0.00000  Uiso   1.00
O59    O     0.04765   0.16962   0.31067   0.00000  Uiso   1.00
O60    O     0.03569   0.23657   0.35863   0.00000  Uiso   1.00
O61    O     0.29169   0.17581   0.33976   0.00000  Uiso   1.00
H62    H     0.30752   0.16278   0.37006   0.00000  Uiso   1.00
Br63   Br    0.18727   0.11580   0.35657   0.00000  Uiso   1.00
Br64   Br    0.27006   0.37670   0.21371   0.00000  Uiso   1.00
S65    S     0.10267   0.16917   0.10450   0.00000  Uiso   1.00
O66    O     0.05286   0.15983   0.06847   0.00000  Uiso   1.00
O67    O     0.14034   0.13433   0.09687   0.00000  Uiso   1.00
O68    O     0.08616   0.16340   0.15761   0.00000  Uiso   1.00
H69    H     0.08346   0.13063   0.16161   0.00000  Uiso   1.00
S70    S     0.22367   0.33481   0.38489   0.00000  Uiso   1.00
O71    O     0.18298   0.36717   0.36666   0.00000  Uiso   1.00
O72    O     0.26009   0.35704   0.42696   0.00000  Uiso   1.00
O73    O     0.26102   0.32447   0.34388   0.00000  Uiso   1.00
H74    H     0.27308   0.35433   0.33421   0.00000  Uiso   1.00
C75    C     0.50259   0.16383   0.25023   0.00000  Uiso   1.00
C76    C     0.50133   0.33582   0.25053   0.00000  Uiso   1.00
C77    C     0.46434   0.22629   0.04453   0.00000  Uiso   1.00
C78    C     0.52265   0.28692   0.45222   0.00000  Uiso   1.00
C79    C     0.46649   0.22161   0.09331   0.00000  Uiso   1.00
C80    C     0.52395   0.28601   0.40331   0.00000  Uiso   1.00
C81    C     0.53458   0.27939   0.10952   0.00000  Uiso   1.00
C82    C     0.47899   0.21428   0.39429   0.00000  Uiso   1.00
C83    C     0.53730   0.28040   0.06046   0.00000  Uiso   1.00
C84    C     0.48070   0.21341   0.44381   0.00000  Uiso   1.00
C85    C     0.50152   0.25301   0.02684   0.00000  Uiso   1.00
C86    C     0.50202   0.25076   0.47385   0.00000  Uiso   1.00
C87    C     0.39968   0.24431   0.23708   0.00000  Uiso   1.00
C88    C     0.59931   0.24558   0.26246   0.00000  Uiso   1.00
C89    C     0.34318   0.23038   0.23007   0.00000  Uiso   1.00
C90    C     0.65251   0.23176   0.26845   0.00000  Uiso   1.00
C91    C     0.51097   0.04516   0.29011   0.00000  Uiso   1.00
C92    C     0.54570   0.45240   0.22940   0.00000  Uiso   1.00
C93    C     0.51174   0.09122   0.29301   0.00000  Uiso   1.00
C94    C     0.54567   0.40639   0.23252   0.00000  Uiso   1.00
C95    C     0.50839   0.11563   0.25078   0.00000  Uiso   1.00
C96    C     0.50488   0.38350   0.25101   0.00000  Uiso   1.00
C97    C     0.51077   0.09293   0.20780   0.00000  Uiso   1.00
C98    C     0.46500   0.40617   0.26667   0.00000  Uiso   1.00
C99    C     0.51061   0.04674   0.20552   0.00000  Uiso   1.00
C100   C     0.46540   0.45210   0.26367   0.00000  Uiso   1.00
C101   C     0.50882   0.02309   0.24654   0.00000  Uiso   1.00
C102   C     0.50574   0.47502   0.24506   0.00000  Uiso   1.00
H103   H     0.51245   0.02626   0.32213   0.00000  Uiso   1.00
H104   H     0.57755   0.47063   0.21626   0.00000  Uiso   1.00
H105   H     0.51231   0.11076   0.17579   0.00000  Uiso   1.00
H106   H     0.43335   0.38827   0.28042   0.00000  Uiso   1.00
H107   H     0.51070   0.02948   0.17184   0.00000  Uiso   1.00
H108   H     0.43462   0.46988   0.27606   0.00000  Uiso   1.00
H109   H     0.43538   0.20583   0.02001   0.00000  Uiso   1.00
H110   H     0.53757   0.31663   0.47364   0.00000  Uiso   1.00
H111   H     0.56173   0.30115   0.13439   0.00000  Uiso   1.00
H112   H     0.46065   0.18607   0.37240   0.00000  Uiso   1.00
H113   H     0.56767   0.30216   0.04950   0.00000  Uiso   1.00
H114   H     0.46529   0.18323   0.45789   0.00000  Uiso   1.00
N115   N     0.50000   0.24999   0.12623   0.00000  Uiso   1.00
N116   N     0.50000   0.25001   0.37376   0.00000  Uiso   1.00
O117   O     0.50000   0.18454   0.28974   0.00000  Uiso   1.00
O118   O     0.50000   0.31547   0.21026   0.00000  Uiso   1.00
O119   O     0.50000   0.18453   0.21026   0.00000  Uiso   1.00
O120   O     0.50000   0.31547   0.28974   0.00000  Uiso   1.00
O121   O     0.42392   0.25000   0.28044   0.00000  Uiso   1.00
O122   O     0.57608   0.25000   0.21955   0.00000  Uiso   1.00
O123   O     0.42392   0.25000   0.20096   0.00000  Uiso   1.00
O124   O     0.57608   0.25001   0.29903   0.00000  Uiso   1.00
Zn125  Zn    0.50000   0.25001   0.30307   0.00000  Uiso   1.00
Zn126  Zn    0.50000   0.25000   0.19693   0.00000  Uiso   1.00
S127   S     0.64899   0.19406   0.17983   0.00000  Uiso   1.00
O128   O     0.33475   0.14841   0.19054   0.00000  Uiso   1.00
O129   O     0.58977   0.18796   0.16842   0.00000  Uiso   1.00
O130   O     0.33659   0.21346   0.13129   0.00000  Uiso   1.00
H131   H     0.65494   0.24308   0.12664   0.00000  Uiso   1.00
S132   S     0.34263   0.20304   0.32072   0.00000  Uiso   1.00
O133   O     0.38098   0.16962   0.31067   0.00000  Uiso   1.00
O134   O     0.36902   0.23657   0.35863   0.00000  Uiso   1.00
O135   O     0.62502   0.17581   0.33976   0.00000  Uiso   1.00
H136   H     0.64086   0.16278   0.37006   0.00000  Uiso   1.00
Br137  Br    0.52060   0.11580   0.35657   0.00000  Uiso   1.00
Br138  Br    0.60339   0.37670   0.21371   0.00000  Uiso   1.00
S139   S     0.43600   0.16917   0.10450   0.00000  Uiso   1.00
O140   O     0.38619   0.15983   0.06847   0.00000  Uiso   1.00
O141   O     0.47367   0.13433   0.09687   0.00000  Uiso   1.00
O142   O     0.41950   0.16340   0.15761   0.00000  Uiso   1.00
H143   H     0.41679   0.13063   0.16161   0.00000  Uiso   1.00
S144   S     0.55700   0.33481   0.38489   0.00000  Uiso   1.00
O145   O     0.51631   0.36717   0.36666   0.00000  Uiso   1.00
O146   O     0.59342   0.35704   0.42696   0.00000  Uiso   1.00
O147   O     0.59436   0.32447   0.34388   0.00000  Uiso   1.00
H148   H     0.60641   0.35433   0.33421   0.00000  Uiso   1.00
C149   C     0.83593   0.16383   0.25023   0.00000  Uiso   1.00
C150   C     0.83466   0.33582   0.25053   0.00000  Uiso   1.00
C151   C     0.79767   0.22629   0.04453   0.00000  Uiso   1.00
C152   C     0.85599   0.28692   0.45222   0.00000  Uiso   1.00
C153   C     0.79982   0.22161   0.09331   0.00000  Uiso   1.00
C154   C     0.85729   0.28601   0.40331   0.00000  Uiso   1.00
C155   C     0.86792   0.27939   0.10952   0.00000  Uiso   1.00
C156   C     0.81232   0.21428   0.39429   0.00000  Uiso   1.00
C157   C     0.87063   0.28040   0.06046   0.00000  Uiso   1.00
C158   C     0.81403   0.21341   0.44381   0.00000  Uiso   1.00
C159   C     0.83486   0.25301   0.02684   0.00000  Uiso   1.00
C160   C     0.83535   0.25076   0.47385   0.00000  Uiso   1.00
C161   C     0.73301   0.24431   0.23708   0.00000  Uiso   1.00
C162   C     0.93264   0.24558   0.26246   0.00000  Uiso   1.00
C163   C     0.67651   0.23038   0.23007   0.00000  Uiso   1.00
C164   C     0.98584   0.23176   0.26845   0.00000  Uiso   1.00
C165   C     0.84430   0.04516   0.29011   0.00000  Uiso   1.00
C166   C     0.87903   0.45240   0.22940   0.00000  Uiso   1.00
C167   C     0.84507   0.09122   0.29301   0.00000  Uiso   1.00
C168   C     0.87901   0.40639   0.23252   0.00000  Uiso   1.00
C169   C     0.84172   0.11563   0.25078   0.00000  Uiso   1.00
C170   C     0.83821   0.38350   0.25101   0.00000  Uiso   1.00
C171   C     0.84410   0.09293   0.20780   0.00000  Uiso   1.00
C172   C     0.79833   0.40617   0.26667   0.00000  Uiso   1.00
C173   C     0.84394   0.04674   0.20552   0.00000  Uiso   1.00
C174   C     0.79873   0.45210   0.26367   0.00000  Uiso   1.00
C175   C     0.84216   0.02309   0.24654   0.00000  Uiso   1.00
C176   C     0.83908   0.47502   0.24506   0.00000  Uiso   1.00
H177   H     0.84578   0.02626   0.32213   0.00000  Uiso   1.00
H178   H     0.91088   0.47063   0.21626   0.00000  Uiso   1.00
H179   H     0.84564   0.11076   0.17579   0.00000  Uiso   1.00
H180   H     0.76668   0.38827   0.28042   0.00000  Uiso   1.00
H181   H     0.84403   0.02948   0.17184   0.00000  Uiso   1.00
H182   H     0.76796   0.46988   0.27606   0.00000  Uiso   1.00
H183   H     0.76872   0.20583   0.02001   0.00000  Uiso   1.00
H184   H     0.87090   0.31663   0.47364   0.00000  Uiso   1.00
H185   H     0.89507   0.30115   0.13439   0.00000  Uiso   1.00
H186   H     0.79399   0.18607   0.37240   0.00000  Uiso   1.00
H187   H     0.90100   0.30216   0.04950   0.00000  Uiso   1.00
H188   H     0.79862   0.18323   0.45789   0.00000  Uiso   1.00
N189   N     0.83333   0.24999   0.12623   0.00000  Uiso   1.00
N190   N     0.83333   0.25001   0.37376   0.00000  Uiso   1.00
O191   O     0.83334   0.18454   0.28974   0.00000  Uiso   1.00
O192   O     0.83333   0.31547   0.21026   0.00000  Uiso   1.00
O193   O     0.83334   0.18453   0.21026   0.00000  Uiso   1.00
O194   O     0.83333   0.31547   0.28974   0.00000  Uiso   1.00
O195   O     0.75725   0.25000   0.28044   0.00000  Uiso   1.00
O196   O     0.90942   0.25000   0.21955   0.00000  Uiso   1.00
O197   O     0.75725   0.25000   0.20096   0.00000  Uiso   1.00
O198   O     0.90942   0.25001   0.29903   0.00000  Uiso   1.00
Zn199  Zn    0.83333   0.25001   0.30307   0.00000  Uiso   1.00
Zn200  Zn    0.83333   0.25000   0.19693   0.00000  Uiso   1.00
S201   S     0.98232   0.19406   0.17983   0.00000  Uiso   1.00
O202   O     0.66809   0.14841   0.19054   0.00000  Uiso   1.00
O203   O     0.92310   0.18796   0.16842   0.00000  Uiso   1.00
O204   O     0.66992   0.21346   0.13129   0.00000  Uiso   1.00
H205   H     0.98827   0.24308   0.12664   0.00000  Uiso   1.00
S206   S     0.67596   0.20304   0.32072   0.00000  Uiso   1.00
O207   O     0.71431   0.16962   0.31067   0.00000  Uiso   1.00
O208   O     0.70235   0.23657   0.35863   0.00000  Uiso   1.00
O209   O     0.95835   0.17581   0.33976   0.00000  Uiso   1.00
H210   H     0.97419   0.16278   0.37006   0.00000  Uiso   1.00
Br211  Br    0.85394   0.11580   0.35657   0.00000  Uiso   1.00
Br212  Br    0.93672   0.37670   0.21371   0.00000  Uiso   1.00
S213   S     0.76934   0.16917   0.10450   0.00000  Uiso   1.00
O214   O     0.71953   0.15983   0.06847   0.00000  Uiso   1.00
O215   O     0.80701   0.13433   0.09687   0.00000  Uiso   1.00
O216   O     0.75283   0.16340   0.15761   0.00000  Uiso   1.00
H217   H     0.75013   0.13063   0.16161   0.00000  Uiso   1.00
S218   S     0.89034   0.33481   0.38489   0.00000  Uiso   1.00
O219   O     0.84965   0.36717   0.36666   0.00000  Uiso   1.00
O220   O     0.92675   0.35704   0.42696   0.00000  Uiso   1.00
O221   O     0.92769   0.32447   0.34388   0.00000  Uiso   1.00
H222   H     0.93975   0.35433   0.33421   0.00000  Uiso   1.00
C223   C     0.16926   0.66383   0.25023   0.00000  Uiso   1.00
C224   C     0.16799   0.83582   0.25053   0.00000  Uiso   1.00
C225   C     0.13101   0.72629   0.04453   0.00000  Uiso   1.00
C226   C     0.18932   0.78692   0.45222   0.00000  Uiso   1.00
C227   C     0.13316   0.72161   0.09331   0.00000  Uiso   1.00
C228   C     0.19062   0.78601   0.40331   0.00000  Uiso   1.00
C229   C     0.20125   0.77939   0.10952   0.00000  Uiso   1.00
C230   C     0.14566   0.71428   0.39429   0.00000  Uiso   1.00
C231   C     0.20396   0.78040   0.06046   0.00000  Uiso   1.00
C232   C     0.14737   0.71341   0.44381   0.00000  Uiso   1.00
C233   C     0.16819   0.75301   0.02684   0.00000  Uiso   1.00
C234   C     0.16869   0.75076   0.47385   0.00000  Uiso   1.00
C235   C     0.06635   0.74431   0.23708   0.00000  Uiso   1.00
C236   C     0.26597   0.74558   0.26246   0.00000  Uiso   1.00
C237   C     0.00984   0.73038   0.23007   0.00000  Uiso   1.00
C238   C     0.31917   0.73176   0.26845   0.00000  Uiso   1.00
C239   C     0.17764   0.54516   0.29011   0.00000  Uiso   1.00
C240   C     0.21237   0.95240   0.22940   0.00000  Uiso   1.00
C241   C     0.17840   0.59122   0.29301   0.00000  Uiso   1.00
C242   C     0.21234   0.90639   0.23252   0.00000  Uiso   1.00
C243   C     0.17506   0.61563   0.25078   0.00000  Uiso   1.00
C244   C     0.17154   0.88350   0.25101   0.00000  Uiso   1.00
C245   C     0.17744   0.59293   0.20780   0.00000  Uiso   1.00
C246   C     0.13166   0.90617   0.26667   0.00000  Uiso   1.00
C247   C     0.17728   0.54674   0.20552   0.00000  Uiso   1.00
C248   C     0.13206   0.95210   0.26367   0.00000  Uiso   1.00
C249   C     0.17549   0.52309   0.24654   0.00000  Uiso   1.00
C250   C     0.17241   0.97502   0.24506   0.00000  Uiso   1.00
H251   H     0.17912   0.52626   0.32213   0.00000  Uiso   1.00
H252   H     0.24422   0.97063   0.21626   0.00000  Uiso   1.00
H253   H     0.17898   0.61076   0.17579   0.00000  Uiso   1.00
H254   H     0.10001   0.88827   0.28042   0.00000  Uiso   1.00
H255   H     0.17737   0.52948   0.17184   0.00000  Uiso   1.00
H256   H     0.10129   0.96988   0.27606   0.00000  Uiso   1.00
H257   H     0.10205   0.70583   0.02001   0.00000  Uiso   1.00
H258   H     0.20423   0.81663   0.47364   0.00000  Uiso   1.00
H259   H     0.22840   0.80115   0.13439   0.00000  Uiso   1.00
H260   H     0.12732   0.68607   0.37240   0.00000  Uiso   1.00
H261   H     0.23433   0.80216   0.04950   0.00000  Uiso   1.00
H262   H     0.13195   0.68323   0.45789   0.00000  Uiso   1.00
N263   N     0.16667   0.74999   0.12623   0.00000  Uiso   1.00
N264   N     0.16667   0.75001   0.37376   0.00000  Uiso   1.00
O265   O     0.16667   0.68454   0.28974   0.00000  Uiso   1.00
O266   O     0.16666   0.81547   0.21026   0.00000  Uiso   1.00
O267   O     0.16667   0.68453   0.21026   0.00000  Uiso   1.00
O268   O     0.16666   0.81547   0.28974   0.00000  Uiso   1.00
O269   O     0.09058   0.75000   0.28044   0.00000  Uiso   1.00
O270   O     0.24275   0.75000   0.21955   0.00000  Uiso   1.00
O271   O     0.09058   0.75000   0.20096   0.00000  Uiso   1.00
O272   O     0.24275   0.75001   0.29903   0.00000  Uiso   1.00
Zn273  Zn    0.16667   0.75001   0.30307   0.00000  Uiso   1.00
Zn274  Zn    0.16667   0.75000   0.19693   0.00000  Uiso   1.00
S275   S     0.31565   0.69406   0.17983   0.00000  Uiso   1.00
O276   O     0.00142   0.64841   0.19054   0.00000  Uiso   1.00
O277   O     0.25644   0.68796   0.16842   0.00000  Uiso   1.00
O278   O     0.00325   0.71346   0.13129   0.00000  Uiso   1.00
H279   H     0.32160   0.74308   0.12664   0.00000  Uiso   1.00
S280   S     0.00929   0.70304   0.32072   0.00000  Uiso   1.00
O281   O     0.04765   0.66962   0.31067   0.00000  Uiso   1.00
O282   O     0.03569   0.73657   0.35863   0.00000  Uiso   1.00
O283   O     0.29169   0.67581   0.33976   0.00000  Uiso   1.00
H284   H     0.30752   0.66278   0.37006   0.00000  Uiso   1.00
Br285  Br    0.18727   0.61580   0.35657   0.00000  Uiso   1.00
Br286  Br    0.27006   0.87670   0.21371   0.00000  Uiso   1.00
S287   S     0.10267   0.66917   0.10450   0.00000  Uiso   1.00
O288   O     0.05286   0.65983   0.06847   0.00000  Uiso   1.00
O289   O     0.14034   0.63433   0.09687   0.00000  Uiso   1.00
O290   O     0.08616   0.66340   0.15761   0.00000  Uiso   1.00
H291   H     0.08346   0.63063   0.16161   0.00000  Uiso   1.00
S292   S     0.22367   0.83481   0.38489   0.00000  Uiso   1.00
O293   O     0.18298   0.86717   0.36666   0.00000  Uiso   1.00
O294   O     0.26009   0.85704   0.42696   0.00000  Uiso   1.00
O295   O     0.26102   0.82447   0.34388   0.00000  Uiso   1.00
H296   H     0.27308   0.85433   0.33421   0.00000  Uiso   1.00
C297   C     0.50259   0.66383   0.25023   0.00000  Uiso   1.00
C298   C     0.50133   0.83582   0.25053   0.00000  Uiso   1.00
C299   C     0.46434   0.72629   0.04453   0.00000  Uiso   1.00
C300   C     0.52265   0.78692   0.45222   0.00000  Uiso   1.00
C301   C     0.46649   0.72161   0.09331   0.00000  Uiso   1.00
C302   C     0.52395   0.78601   0.40331   0.00000  Uiso   1.00
C303   C     0.53458   0.77939   0.10952   0.00000  Uiso   1.00
C304   C     0.47899   0.71428   0.39429   0.00000  Uiso   1.00
C305   C     0.53730   0.78040   0.06046   0.00000  Uiso   1.00
C306   C     0.48070   0.71341   0.44381   0.00000  Uiso   1.00
C307   C     0.50152   0.75301   0.02684   0.00000  Uiso   1.00
C308   C     0.50202   0.75076   0.47385   0.00000  Uiso   1.00
C309   C     0.39968   0.74431   0.23708   0.00000  Uiso   1.00
C310   C     0.59931   0.74558   0.26246   0.00000  Uiso   1.00
C311   C     0.34318   0.73038   0.23007   0.00000  Uiso   1.00
C312   C     0.65251   0.73176   0.26845   0.00000  Uiso   1.00
C313   C     0.51097   0.54516   0.29011   0.00000  Uiso   1.00
C314   C     0.54570   0.95240   0.22940   0.00000  Uiso   1.00
C315   C     0.51174   0.59122   0.29301   0.00000  Uiso   1.00
C316   C     0.54567   0.90639   0.23252   0.00000  Uiso   1.00
C317   C     0.50839   0.61563   0.25078   0.00000  Uiso   1.00
C318   C     0.50488   0.88350   0.25101   0.00000  Uiso   1.00
C319   C     0.51077   0.59293   0.20780   0.00000  Uiso   1.00
C320   C     0.46500   0.90617   0.26667   0.00000  Uiso   1.00
C321   C     0.51061   0.54674   0.20552   0.00000  Uiso   1.00
C322   C     0.46540   0.95210   0.26367   0.00000  Uiso   1.00
C323   C     0.50882   0.52309   0.24654   0.00000  Uiso   1.00
C324   C     0.50574   0.97502   0.24506   0.00000  Uiso   1.00
H325   H     0.51245   0.52626   0.32213   0.00000  Uiso   1.00
H326   H     0.57755   0.97063   0.21626   0.00000  Uiso   1.00
H327   H     0.51231   0.61076   0.17579   0.00000  Uiso   1.00
H328   H     0.43335   0.88827   0.28042   0.00000  Uiso   1.00
H329   H     0.51070   0.52948   0.17184   0.00000  Uiso   1.00
H330   H     0.43462   0.96988   0.27606   0.00000  Uiso   1.00
H331   H     0.43538   0.70583   0.02001   0.00000  Uiso   1.00
H332   H     0.53757   0.81663   0.47364   0.00000  Uiso   1.00
H333   H     0.56173   0.80115   0.13439   0.00000  Uiso   1.00
H334   H     0.46065   0.68607   0.37240   0.00000  Uiso   1.00
H335   H     0.56767   0.80216   0.04950   0.00000  Uiso   1.00
H336   H     0.46529   0.68323   0.45789   0.00000  Uiso   1.00
N337   N     0.50000   0.74999   0.12623   0.00000  Uiso   1.00
N338   N     0.50000   0.75001   0.37376   0.00000  Uiso   1.00
O339   O     0.50000   0.68454   0.28974   0.00000  Uiso   1.00
O340   O     0.50000   0.81547   0.21026   0.00000  Uiso   1.00
O341   O     0.50000   0.68453   0.21026   0.00000  Uiso   1.00
O342   O     0.50000   0.81547   0.28974   0.00000  Uiso   1.00
O343   O     0.42392   0.75000   0.28044   0.00000  Uiso   1.00
O344   O     0.57608   0.75000   0.21955   0.00000  Uiso   1.00
O345   O     0.42392   0.75000   0.20096   0.00000  Uiso   1.00
O346   O     0.57608   0.75001   0.29903   0.00000  Uiso   1.00
Zn347  Zn    0.50000   0.75001   0.30307   0.00000  Uiso   1.00
Zn348  Zn    0.50000   0.75000   0.19693   0.00000  Uiso   1.00
S349   S     0.64899   0.69406   0.17983   0.00000  Uiso   1.00
O350   O     0.33475   0.64841   0.19054   0.00000  Uiso   1.00
O351   O     0.58977   0.68796   0.16842   0.00000  Uiso   1.00
O352   O     0.33659   0.71346   0.13129   0.00000  Uiso   1.00
H353   H     0.65494   0.74308   0.12664   0.00000  Uiso   1.00
S354   S     0.34263   0.70304   0.32072   0.00000  Uiso   1.00
O355   O     0.38098   0.66962   0.31067   0.00000  Uiso   1.00
O356   O     0.36902   0.73657   0.35863   0.00000  Uiso   1.00
O357   O     0.62502   0.67581   0.33976   0.00000  Uiso   1.00
H358   H     0.64086   0.66278   0.37006   0.00000  Uiso   1.00
Br359  Br    0.52060   0.61580   0.35657   0.00000  Uiso   1.00
Br360  Br    0.60339   0.87670   0.21371   0.00000  Uiso   1.00
S361   S     0.43600   0.66917   0.10450   0.00000  Uiso   1.00
O362   O     0.38619   0.65983   0.06847   0.00000  Uiso   1.00
O363   O     0.47367   0.63433   0.09687   0.00000  Uiso   1.00
O364   O     0.41950   0.66340   0.15761   0.00000  Uiso   1.00
H365   H     0.41679   0.63063   0.16161   0.00000  Uiso   1.00
S366   S     0.55700   0.83481   0.38489   0.00000  Uiso   1.00
O367   O     0.51631   0.86717   0.36666   0.00000  Uiso   1.00
O368   O     0.59342   0.85704   0.42696   0.00000  Uiso   1.00
O369   O     0.59436   0.82447   0.34388   0.00000  Uiso   1.00
H370   H     0.60641   0.85433   0.33421   0.00000  Uiso   1.00
C371   C     0.83593   0.66383   0.25023   0.00000  Uiso   1.00
C372   C     0.83466   0.83582   0.25053   0.00000  Uiso   1.00
C373   C     0.79767   0.72629   0.04453   0.00000  Uiso   1.00
C374   C     0.85599   0.78692   0.45222   0.00000  Uiso   1.00
C375   C     0.79982   0.72161   0.09331   0.00000  Uiso   1.00
C376   C     0.85729   0.78601   0.40331   0.00000  Uiso   1.00
C377   C     0.86792   0.77939   0.10952   0.00000  Uiso   1.00
C378   C     0.81232   0.71428   0.39429   0.00000  Uiso   1.00
C379   C     0.87063   0.78040   0.06046   0.00000  Uiso   1.00
C380   C     0.81403   0.71341   0.44381   0.00000  Uiso   1.00
C381   C     0.83486   0.75301   0.02684   0.00000  Uiso   1.00
C382   C     0.83535   0.75076   0.47385   0.00000  Uiso   1.00
C383   C     0.73301   0.74431   0.23708   0.00000  Uiso   1.00
C384   C     0.93264   0.74558   0.26246   0.00000  Uiso   1.00
C385   C     0.67651   0.73038   0.23007   0.00000  Uiso   1.00
C386   C     0.98584   0.73176   0.26845   0.00000  Uiso   1.00
C387   C     0.84430   0.54516   0.29011   0.00000  Uiso   1.00
C388   C     0.87903   0.95240   0.22940   0.00000  Uiso   1.00
C389   C     0.84507   0.59122   0.29301   0.00000  Uiso   1.00
C390   C     0.87901   0.90639   0.23252   0.00000  Uiso   1.00
C391   C     0.84172   0.61563   0.25078   0.00000  Uiso   1.00
C392   C     0.83821   0.88350   0.25101   0.00000  Uiso   1.00
C393   C     0.84410   0.59293   0.20780   0.00000  Uiso   1.00
C394   C     0.79833   0.90617   0.26667   0.00000  Uiso   1.00
C395   C     0.84394   0.54674   0.20552   0.00000  Uiso   1.00
C396   C     0.79873   0.95210   0.26367   0.00000  Uiso   1.00
C397   C     0.84216   0.52309   0.24654   0.00000  Uiso   1.00
C398   C     0.83908   0.97502   0.24506   0.00000  Uiso   1.00
H399   H     0.84578   0.52626   0.32213   0.00000  Uiso   1.00
H400   H     0.91088   0.97063   0.21626   0.00000  Uiso   1.00
H401   H     0.84564   0.61076   0.17579   0.00000  Uiso   1.00
H402   H     0.76668   0.88827   0.28042   0.00000  Uiso   1.00
H403   H     0.84403   0.52948   0.17184   0.00000  Uiso   1.00
H404   H     0.76796   0.96988   0.27606   0.00000  Uiso   1.00
H405   H     0.76872   0.70583   0.02001   0.00000  Uiso   1.00
H406   H     0.87090   0.81663   0.47364   0.00000  Uiso   1.00
H407   H     0.89507   0.80115   0.13439   0.00000  Uiso   1.00
H408   H     0.79399   0.68607   0.37240   0.00000  Uiso   1.00
H409   H     0.90100   0.80216   0.04950   0.00000  Uiso   1.00
H410   H     0.79862   0.68323   0.45789   0.00000  Uiso   1.00
N411   N     0.83333   0.74999   0.12623   0.00000  Uiso   1.00
N412   N     0.83333   0.75001   0.37376   0.00000  Uiso   1.00
O413   O     0.83334   0.68454   0.28974   0.00000  Uiso   1.00
O414   O     0.83333   0.81547   0.21026   0.00000  Uiso   1.00
O415   O     0.83334   0.68453   0.21026   0.00000  Uiso   1.00
O416   O     0.83333   0.81547   0.28974   0.00000  Uiso   1.00
O417   O     0.75725   0.75000   0.28044   0.00000  Uiso   1.00
O418   O     0.90942   0.75000   0.21955   0.00000  Uiso   1.00
O419   O     0.75725   0.75000   0.20096   0.00000  Uiso   1.00
O420   O     0.90942   0.75001   0.29903   0.00000  Uiso   1.00
Zn421  Zn    0.83333   0.75001   0.30307   0.00000  Uiso   1.00
Zn422  Zn    0.83333   0.75000   0.19693   0.00000  Uiso   1.00
S423   S     0.98232   0.69406   0.17983   0.00000  Uiso   1.00
O424   O     0.66809   0.64841   0.19054   0.00000  Uiso   1.00
O425   O     0.92310   0.68796   0.16842   0.00000  Uiso   1.00
O426   O     0.66992   0.71346   0.13129   0.00000  Uiso   1.00
H427   H     0.98827   0.74308   0.12664   0.00000  Uiso   1.00
S428   S     0.67596   0.70304   0.32072   0.00000  Uiso   1.00
O429   O     0.71431   0.66962   0.31067   0.00000  Uiso   1.00
O430   O     0.70235   0.73657   0.35863   0.00000  Uiso   1.00
O431   O     0.95835   0.67581   0.33976   0.00000  Uiso   1.00
H432   H     0.97419   0.66278   0.37006   0.00000  Uiso   1.00
Br433  Br    0.85394   0.61580   0.35657   0.00000  Uiso   1.00
Br434  Br    0.93672   0.87670   0.21371   0.00000  Uiso   1.00
S435   S     0.76934   0.66917   0.10450   0.00000  Uiso   1.00
O436   O     0.71953   0.65983   0.06847   0.00000  Uiso   1.00
O437   O     0.80701   0.63433   0.09687   0.00000  Uiso   1.00
O438   O     0.75283   0.66340   0.15761   0.00000  Uiso   1.00
H439   H     0.75013   0.63063   0.16161   0.00000  Uiso   1.00
S440   S     0.89034   0.83481   0.38489   0.00000  Uiso   1.00
O441   O     0.84965   0.86717   0.36666   0.00000  Uiso   1.00
O442   O     0.92675   0.85704   0.42696   0.00000  Uiso   1.00
O443   O     0.92769   0.82447   0.34388   0.00000  Uiso   1.00
H444   H     0.93975   0.85433   0.33421   0.00000  Uiso   1.00
C445   C     0.16926   0.16383   0.75023   0.00000  Uiso   1.00
C446   C     0.16799   0.33582   0.75053   0.00000  Uiso   1.00
C447   C     0.13101   0.22629   0.54453   0.00000  Uiso   1.00
C448   C     0.18932   0.28692   0.95222   0.00000  Uiso   1.00
C449   C     0.13316   0.22161   0.59331   0.00000  Uiso   1.00
C450   C     0.19062   0.28601   0.90331   0.00000  Uiso   1.00
C451   C     0.20125   0.27939   0.60952   0.00000  Uiso   1.00
C452   C     0.14566   0.21428   0.89429   0.00000  Uiso   1.00
C453   C     0.20396   0.28040   0.56046   0.00000  Uiso   1.00
C454   C     0.14737   0.21341   0.94381   0.00000  Uiso   1.00
C455   C     0.16819   0.25301   0.52684   0.00000  Uiso   1.00
C456   C     0.16869   0.25076   0.97385   0.00000  Uiso   1.00
C457   C     0.06635   0.24431   0.73708   0.00000  Uiso   1.00
C458   C     0.26597   0.24558   0.76246   0.00000  Uiso   1.00
C459   C     0.00984   0.23038   0.73007   0.00000  Uiso   1.00
C460   C     0.31917   0.23176   0.76845   0.00000  Uiso   1.00
C461   C     0.17764   0.04516   0.79011   0.00000  Uiso   1.00
C462   C     0.21237   0.45240   0.72940   0.00000  Uiso   1.00
C463   C     0.17840   0.09122   0.79301   0.00000  Uiso   1.00
C464   C     0.21234   0.40639   0.73252   0.00000  Uiso   1.00
C465   C     0.17506   0.11563   0.75078   0.00000  Uiso   1.00
C466   C     0.17154   0.38350   0.75101   0.00000  Uiso   1.00
C467   C     0.17744   0.09293   0.70780   0.00000  Uiso   1.00
C468   C     0.13166   0.40617   0.76667   0.00000  Uiso   1.00
C469   C     0.17728   0.04674   0.70552   0.00000  Uiso   1.00
C470   C     0.13206   0.45210   0.76367   0.00000  Uiso   1.00
C471   C     0.17549   0.02309   0.74654   0.00000  Uiso   1.00
C472   C     0.17241   0.47502   0.74506   0.00000  Uiso   1.00
H473   H     0.17912   0.02626   0.82213   0.00000  Uiso   1.00
H474   H     0.24422   0.47063   0.71626   0.00000  Uiso   1.00
H475   H     0.17898   0.11076   0.67579   0.00000  Uiso   1.00
H476   H     0.10001   0.38827   0.78042   0.00000  Uiso   1.00
H477   H     0.17737   0.02948   0.67184   0.00000  Uiso   1.00
H478   H     0.10129   0.46988   0.77606   0.00000  Uiso   1.00
H479   H     0.10205   0.20583   0.52001   0.00000  Uiso   1.00
H480   H     0.20423   0.31663   0.97364   0.00000  Uiso   1.00
H481   H     0.22840   0.30115   0.63439   0.00000  Uiso   1.00
H482   H     0.12732   0.18607   0.87240   0.00000  Uiso   1.00
H483   H     0.23433   0.30216   0.54950   0.00000  Uiso   1.00
H484   H     0.13195   0.18323   0.95789   0.00000  Uiso   1.00
N485   N     0.16667   0.24999   0.62623   0.00000  Uiso   1.00
N486   N     0.16667   0.25001   0.87376   0.00000  Uiso   1.00
O487   O     0.16667   0.18454   0.78974   0.00000  Uiso   1.00
O488   O     0.16666   0.31547   0.71026   0.00000  Uiso   1.00
O489   O     0.16667   0.18453   0.71026   0.00000  Uiso   1.00
O490   O     0.16666   0.31547   0.78974   0.00000  Uiso   1.00
O491   O     0.09058   0.25000   0.78044   0.00000  Uiso   1.00
O492   O     0.24275   0.25000   0.71955   0.00000  Uiso   1.00
O493   O     0.09058   0.25000   0.70096   0.00000  Uiso   1.00
O494   O     0.24275   0.25001   0.79903   0.00000  Uiso   1.00
Zn495  Zn    0.16667   0.25001   0.80307   0.00000  Uiso   1.00
Zn496  Zn    0.16667   0.25000   0.69693   0.00000  Uiso   1.00
S497   S     0.31565   0.19406   0.67983   0.00000  Uiso   1.00
O498   O     0.00142   0.14841   0.69054   0.00000  Uiso   1.00
O499   O     0.25644   0.18796   0.66842   0.00000  Uiso   1.00
O500   O     0.00325   0.21346   0.63129   0.00000  Uiso   1.00
H501   H     0.32160   0.24308   0.62664   0.00000  Uiso   1.00
S502   S     0.00929   0.20304   0.82072   0.00000  Uiso   1.00
O503   O     0.04765   0.16962   0.81067   0.00000  Uiso   1.00
O504   O     0.03569   0.23657   0.85863   0.00000  Uiso   1.00
O505   O     0.29169   0.17581   0.83976   0.00000  Uiso   1.00
H506   H     0.30752   0.16278   0.87006   0.00000  Uiso   1.00
Br507  Br    0.18727   0.11580   0.85657   0.00000  Uiso   1.00
Br508  Br    0.27006   0.37670   0.71371   0.00000  Uiso   1.00
S509   S     0.10267   0.16917   0.60450   0.00000  Uiso   1.00
O510   O     0.05286   0.15983   0.56847   0.00000  Uiso   1.00
O511   O     0.14034   0.13433   0.59687   0.00000  Uiso   1.00
O512   O     0.08616   0.16340   0.65761   0.00000  Uiso   1.00
H513   H     0.08346   0.13063   0.66161   0.00000  Uiso   1.00
S514   S     0.22367   0.33481   0.88489   0.00000  Uiso   1.00
O515   O     0.18298   0.36717   0.86666   0.00000  Uiso   1.00
O516   O     0.26009   0.35704   0.92696   0.00000  Uiso   1.00
O517   O     0.26102   0.32447   0.84388   0.00000  Uiso   1.00
H518   H     0.27308   0.35433   0.83421   0.00000  Uiso   1.00
C519   C     0.50259   0.16383   0.75023   0.00000  Uiso   1.00
C520   C     0.50133   0.33582   0.75053   0.00000  Uiso   1.00
C521   C     0.46434   0.22629   0.54453   0.00000  Uiso   1.00
C522   C     0.52265   0.28692   0.95222   0.00000  Uiso   1.00
C523   C     0.46649   0.22161   0.59331   0.00000  Uiso   1.00
C524   C     0.52395   0.28601   0.90331   0.00000  Uiso   1.00
C525   C     0.53458   0.27939   0.60952   0.00000  Uiso   1.00
C526   C     0.47899   0.21428   0.89429   0.00000  Uiso   1.00
C527   C     0.53730   0.28040   0.56046   0.00000  Uiso   1.00
C528   C     0.48070   0.21341   0.94381   0.00000  Uiso   1.00
C529   C     0.50152   0.25301   0.52684   0.00000  Uiso   1.00
C530   C     0.50202   0.25076   0.97385   0.00000  Uiso   1.00
C531   C     0.39968   0.24431   0.73708   0.00000  Uiso   1.00
C532   C     0.59931   0.24558   0.76246   0.00000  Uiso   1.00
C533   C     0.34318   0.23038   0.73007   0.00000  Uiso   1.00
C534   C     0.65251   0.23176   0.76845   0.00000  Uiso   1.00
C535   C     0.51097   0.04516   0.79011   0.00000  Uiso   1.00
C536   C     0.54570   0.45240   0.72940   0.00000  Uiso   1.00
C537   C     0.51174   0.09122   0.79301   0.00000  Uiso   1.00
C538   C     0.54567   0.40639   0.73252   0.00000  Uiso   1.00
C539   C     0.50839   0.11563   0.75078   0.00000  Uiso   1.00
C540   C     0.50488   0.38350   0.75101   0.00000  Uiso   1.00
C541   C     0.51077   0.09293   0.70780   0.00000  Uiso   1.00
C542   C     0.46500   0.40617   0.76667   0.00000  Uiso   1.00
C543   C     0.51061   0.04674   0.70552   0.00000  Uiso   1.00
C544   C     0.46540   0.45210   0.76367   0.00000  Uiso   1.00
C545   C     0.50882   0.02309   0.74654   0.00000  Uiso   1.00
C546   C     0.50574   0.47502   0.74506   0.00000  Uiso   1.00
H547   H     0.51245   0.02626   0.82213   0.00000  Uiso   1.00
H548   H     0.57755   0.47063   0.71626   0.00000  Uiso   1.00
H549   H     0.51231   0.11076   0.67579   0.00000  Uiso   1.00
H550   H     0.43335   0.38827   0.78042   0.00000  Uiso   1.00
H551   H     0.51070   0.02948   0.67184   0.00000  Uiso   1.00
H552   H     0.43462   0.46988   0.77606   0.00000  Uiso   1.00
H553   H     0.43538   0.20583   0.52001   0.00000  Uiso   1.00
H554   H     0.53757   0.31663   0.97364   0.00000  Uiso   1.00
H555   H     0.56173   0.30115   0.63439   0.00000  Uiso   1.00
H556   H     0.46065   0.18607   0.87240   0.00000  Uiso   1.00
H557   H     0.56767   0.30216   0.54950   0.00000  Uiso   1.00
H558   H     0.46529   0.18323   0.95789   0.00000  Uiso   1.00
N559   N     0.50000   0.24999   0.62623   0.00000  Uiso   1.00
N560   N     0.50000   0.25001   0.87376   0.00000  Uiso   1.00
O561   O     0.50000   0.18454   0.78974   0.00000  Uiso   1.00
O562   O     0.50000   0.31547   0.71026   0.00000  Uiso   1.00
O563   O     0.50000   0.18453   0.71026   0.00000  Uiso   1.00
O564   O     0.50000   0.31547   0.78974   0.00000  Uiso   1.00
O565   O     0.42392   0.25000   0.78044   0.00000  Uiso   1.00
O566   O     0.57608   0.25000   0.71955   0.00000  Uiso   1.00
O567   O     0.42392   0.25000   0.70096   0.00000  Uiso   1.00
O568   O     0.57608   0.25001   0.79903   0.00000  Uiso   1.00
Zn569  Zn    0.50000   0.25001   0.80307   0.00000  Uiso   1.00
Zn570  Zn    0.50000   0.25000   0.69693   0.00000  Uiso   1.00
S571   S     0.64899   0.19406   0.67983   0.00000  Uiso   1.00
O572   O     0.33475   0.14841   0.69054   0.00000  Uiso   1.00
O573   O     0.58977   0.18796   0.66842   0.00000  Uiso   1.00
O574   O     0.33659   0.21346   0.63129   0.00000  Uiso   1.00
H575   H     0.65494   0.24308   0.62664   0.00000  Uiso   1.00
S576   S     0.34263   0.20304   0.82072   0.00000  Uiso   1.00
O577   O     0.38098   0.16962   0.81067   0.00000  Uiso   1.00
O578   O     0.36902   0.23657   0.85863   0.00000  Uiso   1.00
O579   O     0.62502   0.17581   0.83976   0.00000  Uiso   1.00
H580   H     0.64086   0.16278   0.87006   0.00000  Uiso   1.00
Br581  Br    0.52060   0.11580   0.85657   0.00000  Uiso   1.00
Br582  Br    0.60339   0.37670   0.71371   0.00000  Uiso   1.00
S583   S     0.43600   0.16917   0.60450   0.00000  Uiso   1.00
O584   O     0.38619   0.15983   0.56847   0.00000  Uiso   1.00
O585   O     0.47367   0.13433   0.59687   0.00000  Uiso   1.00
O586   O     0.41950   0.16340   0.65761   0.00000  Uiso   1.00
H587   H     0.41679   0.13063   0.66161   0.00000  Uiso   1.00
S588   S     0.55700   0.33481   0.88489   0.00000  Uiso   1.00
O589   O     0.51631   0.36717   0.86666   0.00000  Uiso   1.00
O590   O     0.59342   0.35704   0.92696   0.00000  Uiso   1.00
O591   O     0.59436   0.32447   0.84388   0.00000  Uiso   1.00
H592   H     0.60641   0.35433   0.83421   0.00000  Uiso   1.00
C593   C     0.83593   0.16383   0.75023   0.00000  Uiso   1.00
C594   C     0.83466   0.33582   0.75053   0.00000  Uiso   1.00
C595   C     0.79767   0.22629   0.54453   0.00000  Uiso   1.00
C596   C     0.85599   0.28692   0.95222   0.00000  Uiso   1.00
C597   C     0.79982   0.22161   0.59331   0.00000  Uiso   1.00
C598   C     0.85729   0.28601   0.90331   0.00000  Uiso   1.00
C599   C     0.86792   0.27939   0.60952   0.00000  Uiso   1.00
C600   C     0.81232   0.21428   0.89429   0.00000  Uiso   1.00
C601   C     0.87063   0.28040   0.56046   0.00000  Uiso   1.00
C602   C     0.81403   0.21341   0.94381   0.00000  Uiso   1.00
C603   C     0.83486   0.25301   0.52684   0.00000  Uiso   1.00
C604   C     0.83535   0.25076   0.97385   0.00000  Uiso   1.00
C605   C     0.73301   0.24431   0.73708   0.00000  Uiso   1.00
C606   C     0.93264   0.24558   0.76246   0.00000  Uiso   1.00
C607   C     0.67651   0.23038   0.73007   0.00000  Uiso   1.00
C608   C     0.98584   0.23176   0.76845   0.00000  Uiso   1.00
C609   C     0.84430   0.04516   0.79011   0.00000  Uiso   1.00
C610   C     0.87903   0.45240   0.72940   0.00000  Uiso   1.00
C611   C     0.84507   0.09122   0.79301   0.00000  Uiso   1.00
C612   C     0.87901   0.40639   0.73252   0.00000  Uiso   1.00
C613   C     0.84172   0.11563   0.75078   0.00000  Uiso   1.00
C614   C     0.83821   0.38350   0.75101   0.00000  Uiso   1.00
C615   C     0.84410   0.09293   0.70780   0.00000  Uiso   1.00
C616   C     0.79833   0.40617   0.76667   0.00000  Uiso   1.00
C617   C     0.84394   0.04674   0.70552   0.00000  Uiso   1.00
C618   C     0.79873   0.45210   0.76367   0.00000  Uiso   1.00
C619   C     0.84216   0.02309   0.74654   0.00000  Uiso   1.00
C620   C     0.83908   0.47502   0.74506   0.00000  Uiso   1.00
H621   H     0.84578   0.02626   0.82213   0.00000  Uiso   1.00
H622   H     0.91088   0.47063   0.71626   0.00000  Uiso   1.00
H623   H     0.84564   0.11076   0.67579   0.00000  Uiso   1.00
H624   H     0.76668   0.38827   0.78042   0.00000  Uiso   1.00
H625   H     0.84403   0.02948   0.67184   0.00000  Uiso   1.00
H626   H     0.76796   0.46988   0.77606   0.00000  Uiso   1.00
H627   H     0.76872   0.20583   0.52001   0.00000  Uiso   1.00
H628   H     0.87090   0.31663   0.97364   0.00000  Uiso   1.00
H629   H     0.89507   0.30115   0.63439   0.00000  Uiso   1.00
H630   H     0.79399   0.18607   0.87240   0.00000  Uiso   1.00
H631   H     0.90100   0.30216   0.54950   0.00000  Uiso   1.00
H632   H     0.79862   0.18323   0.95789   0.00000  Uiso   1.00
N633   N     0.83333   0.24999   0.62623   0.00000  Uiso   1.00
N634   N     0.83333   0.25001   0.87376   0.00000  Uiso   1.00
O635   O     0.83334   0.18454   0.78974   0.00000  Uiso   1.00
O636   O     0.83333   0.31547   0.71026   0.00000  Uiso   1.00
O637   O     0.83334   0.18453   0.71026   0.00000  Uiso   1.00
O638   O     0.83333   0.31547   0.78974   0.00000  Uiso   1.00
O639   O     0.75725   0.25000   0.78044   0.00000  Uiso   1.00
O640   O     0.90942   0.25000   0.71955   0.00000  Uiso   1.00
O641   O     0.75725   0.25000   0.70096   0.00000  Uiso   1.00
O642   O     0.90942   0.25001   0.79903   0.00000  Uiso   1.00
Zn643  Zn    0.83333   0.25001   0.80307   0.00000  Uiso   1.00
Zn644  Zn    0.83333   0.25000   0.69693   0.00000  Uiso   1.00
S645   S     0.98232   0.19406   0.67983   0.00000  Uiso   1.00
O646   O     0.66809   0.14841   0.69054   0.00000  Uiso   1.00
O647   O     0.92310   0.18796   0.66842   0.00000  Uiso   1.00
O648   O     0.66992   0.21346   0.63129   0.00000  Uiso   1.00
H649   H     0.98827   0.24308   0.62664   0.00000  Uiso   1.00
S650   S     0.67596   0.20304   0.82072   0.00000  Uiso   1.00
O651   O     0.71431   0.16962   0.81067   0.00000  Uiso   1.00
O652   O     0.70235   0.23657   0.85863   0.00000  Uiso   1.00
O653   O     0.95835   0.17581   0.83976   0.00000  Uiso   1.00
H654   H     0.97419   0.16278   0.87006   0.00000  Uiso   1.00
Br655  Br    0.85394   0.11580   0.85657   0.00000  Uiso   1.00
Br656  Br    0.93672   0.37670   0.71371   0.00000  Uiso   1.00
S657   S     0.76934   0.16917   0.60450   0.00000  Uiso   1.00
O658   O     0.71953   0.15983   0.56847   0.00000  Uiso   1.00
O659   O     0.80701   0.13433   0.59687   0.00000  Uiso   1.00
O660   O     0.75283   0.16340   0.65761   0.00000  Uiso   1.00
H661   H     0.75013   0.13063   0.66161   0.00000  Uiso   1.00
S662   S     0.89034   0.33481   0.88489   0.00000  Uiso   1.00
O663   O     0.84965   0.36717   0.86666   0.00000  Uiso   1.00
O664   O     0.92675   0.35704   0.92696   0.00000  Uiso   1.00
O665   O     0.92769   0.32447   0.84388   0.00000  Uiso   1.00
H666   H     0.93975   0.35433   0.83421   0.00000  Uiso   1.00
C667   C     0.16926   0.66383   0.75023   0.00000  Uiso   1.00
C668   C     0.16799   0.83582   0.75053   0.00000  Uiso   1.00
C669   C     0.13101   0.72629   0.54453   0.00000  Uiso   1.00
C670   C     0.18932   0.78692   0.95222   0.00000  Uiso   1.00
C671   C     0.13316   0.72161   0.59331   0.00000  Uiso   1.00
C672   C     0.19062   0.78601   0.90331   0.00000  Uiso   1.00
C673   C     0.20125   0.77939   0.60952   0.00000  Uiso   1.00
C674   C     0.14566   0.71428   0.89429   0.00000  Uiso   1.00
C675   C     0.20396   0.78040   0.56046   0.00000  Uiso   1.00
C676   C     0.14737   0.71341   0.94381   0.00000  Uiso   1.00
C677   C     0.16819   0.75301   0.52684   0.00000  Uiso   1.00
C678   C     0.16869   0.75076   0.97385   0.00000  Uiso   1.00
C679   C     0.06635   0.74431   0.73708   0.00000  Uiso   1.00
C680   C     0.26597   0.74558   0.76246   0.00000  Uiso   1.00
C681   C     0.00984   0.73038   0.73007   0.00000  Uiso   1.00
C682   C     0.31917   0.73176   0.76845   0.00000  Uiso   1.00
C683   C     0.17764   0.54516   0.79011   0.00000  Uiso   1.00
C684   C     0.21237   0.95240   0.72940   0.00000  Uiso   1.00
C685   C     0.17840   0.59122   0.79301   0.00000  Uiso   1.00
C686   C     0.21234   0.90639   0.73252   0.00000  Uiso   1.00
C687   C     0.17506   0.61563   0.75078   0.00000  Uiso   1.00
C688   C     0.17154   0.88350   0.75101   0.00000  Uiso   1.00
C689   C     0.17744   0.59293   0.70780   0.00000  Uiso   1.00
C690   C     0.13166   0.90617   0.76667   0.00000  Uiso   1.00
C691   C     0.17728   0.54674   0.70552   0.00000  Uiso   1.00
C692   C     0.13206   0.95210   0.76367   0.00000  Uiso   1.00
C693   C     0.17549   0.52309   0.74654   0.00000  Uiso   1.00
C694   C     0.17241   0.97502   0.74506   0.00000  Uiso   1.00
H695   H     0.17912   0.52626   0.82213   0.00000  Uiso   1.00
H696   H     0.24422   0.97063   0.71626   0.00000  Uiso   1.00
H697   H     0.17898   0.61076   0.67579   0.00000  Uiso   1.00
H698   H     0.10001   0.88827   0.78042   0.00000  Uiso   1.00
H699   H     0.17737   0.52948   0.67184   0.00000  Uiso   1.00
H700   H     0.10129   0.96988   0.77606   0.00000  Uiso   1.00
H701   H     0.10205   0.70583   0.52001   0.00000  Uiso   1.00
H702   H     0.20423   0.81663   0.97364   0.00000  Uiso   1.00
H703   H     0.22840   0.80115   0.63439   0.00000  Uiso   1.00
H704   H     0.12732   0.68607   0.87240   0.00000  Uiso   1.00
H705   H     0.23433   0.80216   0.54950   0.00000  Uiso   1.00
H706   H     0.13195   0.68323   0.95789   0.00000  Uiso   1.00
N707   N     0.16667   0.74999   0.62623   0.00000  Uiso   1.00
N708   N     0.16667   0.75001   0.87376   0.00000  Uiso   1.00
O709   O     0.16667   0.68454   0.78974   0.00000  Uiso   1.00
O710   O     0.16666   0.81547   0.71026   0.00000  Uiso   1.00
O711   O     0.16667   0.68453   0.71026   0.00000  Uiso   1.00
O712   O     0.16666   0.81547   0.78974   0.00000  Uiso   1.00
O713   O     0.09058   0.75000   0.78044   0.00000  Uiso   1.00
O714   O     0.24275   0.75000   0.71955   0.00000  Uiso   1.00
O715   O     0.09058   0.75000   0.70096   0.00000  Uiso   1.00
O716   O     0.24275   0.75001   0.79903   0.00000  Uiso   1.00
Zn717  Zn    0.16667   0.75001   0.80307   0.00000  Uiso   1.00
Zn718  Zn    0.16667   0.75000   0.69693   0.00000  Uiso   1.00
S719   S     0.31565   0.69406   0.67983   0.00000  Uiso   1.00
O720   O     0.00142   0.64841   0.69054   0.00000  Uiso   1.00
O721   O     0.25644   0.68796   0.66842   0.00000  Uiso   1.00
O722   O     0.00325   0.71346   0.63129   0.00000  Uiso   1.00
H723   H     0.32160   0.74308   0.62664   0.00000  Uiso   1.00
S724   S     0.00929   0.70304   0.82072   0.00000  Uiso   1.00
O725   O     0.04765   0.66962   0.81067   0.00000  Uiso   1.00
O726   O     0.03569   0.73657   0.85863   0.00000  Uiso   1.00
O727   O     0.29169   0.67581   0.83976   0.00000  Uiso   1.00
H728   H     0.30752   0.66278   0.87006   0.00000  Uiso   1.00
Br729  Br    0.18727   0.61580   0.85657   0.00000  Uiso   1.00
Br730  Br    0.27006   0.87670   0.71371   0.00000  Uiso   1.00
S731   S     0.10267   0.66917   0.60450   0.00000  Uiso   1.00
O732   O     0.05286   0.65983   0.56847   0.00000  Uiso   1.00
O733   O     0.14034   0.63433   0.59687   0.00000  Uiso   1.00
O734   O     0.08616   0.66340   0.65761   0.00000  Uiso   1.00
H735   H     0.08346   0.63063   0.66161   0.00000  Uiso   1.00
S736   S     0.22367   0.83481   0.88489   0.00000  Uiso   1.00
O737   O     0.18298   0.86717   0.86666   0.00000  Uiso   1.00
O738   O     0.26009   0.85704   0.92696   0.00000  Uiso   1.00
O739   O     0.26102   0.82447   0.84388   0.00000  Uiso   1.00
H740   H     0.27308   0.85433   0.83421   0.00000  Uiso   1.00
C741   C     0.50259   0.66383   0.75023   0.00000  Uiso   1.00
C742   C     0.50133   0.83582   0.75053   0.00000  Uiso   1.00
C743   C     0.46434   0.72629   0.54453   0.00000  Uiso   1.00
C744   C     0.52265   0.78692   0.95222   0.00000  Uiso   1.00
C745   C     0.46649   0.72161   0.59331   0.00000  Uiso   1.00
C746   C     0.52395   0.78601   0.90331   0.00000  Uiso   1.00
C747   C     0.53458   0.77939   0.60952   0.00000  Uiso   1.00
C748   C     0.47899   0.71428   0.89429   0.00000  Uiso   1.00
C749   C     0.53730   0.78040   0.56046   0.00000  Uiso   1.00
C750   C     0.48070   0.71341   0.94381   0.00000  Uiso   1.00
C751   C     0.50152   0.75301   0.52684   0.00000  Uiso   1.00
C752   C     0.50202   0.75076   0.97385   0.00000  Uiso   1.00
C753   C     0.39968   0.74431   0.73708   0.00000  Uiso   1.00
C754   C     0.59931   0.74558   0.76246   0.00000  Uiso   1.00
C755   C     0.34318   0.73038   0.73007   0.00000  Uiso   1.00
C756   C     0.65251   0.73176   0.76845   0.00000  Uiso   1.00
C757   C     0.51097   0.54516   0.79011   0.00000  Uiso   1.00
C758   C     0.54570   0.95240   0.72940   0.00000  Uiso   1.00
C759   C     0.51174   0.59122   0.79301   0.00000  Uiso   1.00
C760   C     0.54567   0.90639   0.73252   0.00000  Uiso   1.00
C761   C     0.50839   0.61563   0.75078   0.00000  Uiso   1.00
C762   C     0.50488   0.88350   0.75101   0.00000  Uiso   1.00
C763   C     0.51077   0.59293   0.70780   0.00000  Uiso   1.00
C764   C     0.46500   0.90617   0.76667   0.00000  Uiso   1.00
C765   C     0.51061   0.54674   0.70552   0.00000  Uiso   1.00
C766   C     0.46540   0.95210   0.76367   0.00000  Uiso   1.00
C767   C     0.50882   0.52309   0.74654   0.00000  Uiso   1.00
C768   C     0.50574   0.97502   0.74506   0.00000  Uiso   1.00
H769   H     0.51245   0.52626   0.82213   0.00000  Uiso   1.00
H770   H     0.57755   0.97063   0.71626   0.00000  Uiso   1.00
H771   H     0.51231   0.61076   0.67579   0.00000  Uiso   1.00
H772   H     0.43335   0.88827   0.78042   0.00000  Uiso   1.00
H773   H     0.51070   0.52948   0.67184   0.00000  Uiso   1.00
H774   H     0.43462   0.96988   0.77606   0.00000  Uiso   1.00
H775   H     0.43538   0.70583   0.52001   0.00000  Uiso   1.00
H776   H     0.53757   0.81663   0.97364   0.00000  Uiso   1.00
H777   H     0.56173   0.80115   0.63439   0.00000  Uiso   1.00
H778   H     0.46065   0.68607   0.87240   0.00000  Uiso   1.00
H779   H     0.56767   0.80216   0.54950   0.00000  Uiso   1.00
H780   H     0.46529   0.68323   0.95789   0.00000  Uiso   1.00
N781   N     0.50000   0.74999   0.62623   0.00000  Uiso   1.00
N782   N     0.50000   0.75001   0.87376   0.00000  Uiso   1.00
O783   O     0.50000   0.68454   0.78974   0.00000  Uiso   1.00
O784   O     0.50000   0.81547   0.71026   0.00000  Uiso   1.00
O785   O     0.50000   0.68453   0.71026   0.00000  Uiso   1.00
O786   O     0.50000   0.81547   0.78974   0.00000  Uiso   1.00
O787   O     0.42392   0.75000   0.78044   0.00000  Uiso   1.00
O788   O     0.57608   0.75000   0.71955   0.00000  Uiso   1.00
O789   O     0.42392   0.75000   0.70096   0.00000  Uiso   1.00
O790   O     0.57608   0.75001   0.79903   0.00000  Uiso   1.00
Zn791  Zn    0.50000   0.75001   0.80307   0.00000  Uiso   1.00
Zn792  Zn    0.50000   0.75000   0.69693   0.00000  Uiso   1.00
S793   S     0.64899   0.69406   0.67983   0.00000  Uiso   1.00
O794   O     0.33475   0.64841   0.69054   0.00000  Uiso   1.00
O795   O     0.58977   0.68796   0.66842   0.00000  Uiso   1.00
O796   O     0.33659   0.71346   0.63129   0.00000  Uiso   1.00
H797   H     0.65494   0.74308   0.62664   0.00000  Uiso   1.00
S798   S     0.34263   0.70304   0.82072   0.00000  Uiso   1.00
O799   O     0.38098   0.66962   0.81067   0.00000  Uiso   1.00
O800   O     0.36902   0.73657   0.85863   0.00000  Uiso   1.00
O801   O     0.62502   0.67581   0.83976   0.00000  Uiso   1.00
H802   H     0.64086   0.66278   0.87006   0.00000  Uiso   1.00
Br803  Br    0.52060   0.61580   0.85657   0.00000  Uiso   1.00
Br804  Br    0.60339   0.87670   0.71371   0.00000  Uiso   1.00
S805   S     0.43600   0.66917   0.60450   0.00000  Uiso   1.00
O806   O     0.38619   0.65983   0.56847   0.00000  Uiso   1.00
O807   O     0.47367   0.63433   0.59687   0.00000  Uiso   1.00
O808   O     0.41950   0.66340   0.65761   0.00000  Uiso   1.00
H809   H     0.41679   0.63063   0.66161   0.00000  Uiso   1.00
S810   S     0.55700   0.83481   0.88489   0.00000  Uiso   1.00
O811   O     0.51631   0.86717   0.86666   0.00000  Uiso   1.00
O812   O     0.59342   0.85704   0.92696   0.00000  Uiso   1.00
O813   O     0.59436   0.82447   0.84388   0.00000  Uiso   1.00
H814   H     0.60641   0.85433   0.83421   0.00000  Uiso   1.00
C815   C     0.83593   0.66383   0.75023   0.00000  Uiso   1.00
C816   C     0.83466   0.83582   0.75053   0.00000  Uiso   1.00
C817   C     0.79767   0.72629   0.54453   0.00000  Uiso   1.00
C818   C     0.85599   0.78692   0.95222   0.00000  Uiso   1.00
C819   C     0.79982   0.72161   0.59331   0.00000  Uiso   1.00
C820   C     0.85729   0.78601   0.90331   0.00000  Uiso   1.00
C821   C     0.86792   0.77939   0.60952   0.00000  Uiso   1.00
C822   C     0.81232   0.71428   0.89429   0.00000  Uiso   1.00
C823   C     0.87063   0.78040   0.56046   0.00000  Uiso   1.00
C824   C     0.81403   0.71341   0.94381   0.00000  Uiso   1.00
C825   C     0.83486   0.75301   0.52684   0.00000  Uiso   1.00
C826   C     0.83535   0.75076   0.97385   0.00000  Uiso   1.00
C827   C     0.73301   0.74431   0.73708   0.00000  Uiso   1.00
C828   C     0.93264   0.74558   0.76246   0.00000  Uiso   1.00
C829   C     0.67651   0.73038   0.73007   0.00000  Uiso   1.00
C830   C     0.98584   0.73176   0.76845   0.00000  Uiso   1.00
C831   C     0.84430   0.54516   0.79011   0.00000  Uiso   1.00
C832   C     0.87903   0.95240   0.72940   0.00000  Uiso   1.00
C833   C     0.84507   0.59122   0.79301   0.00000  Uiso   1.00
C834   C     0.87901   0.90639   0.73252   0.00000  Uiso   1.00
C835   C     0.84172   0.61563   0.75078   0.00000  Uiso   1.00
C836   C     0.83821   0.88350   0.75101   0.00000  Uiso   1.00
C837   C     0.84410   0.59293   0.70780   0.00000  Uiso   1.00
C838   C     0.79833   0.90617   0.76667   0.00000  Uiso   1.00
C839   C     0.84394   0.54674   0.70552   0.00000  Uiso   1.00
C840   C     0.79873   0.95210   0.76367   0.00000  Uiso   1.00
C841   C     0.84216   0.52309   0.74654   0.00000  Uiso   1.00
C842   C     0.83908   0.97502   0.74506   0.00000  Uiso   1.00
H843   H     0.84578   0.52626   0.82213   0.00000  Uiso   1.00
H844   H     0.91088   0.97063   0.71626   0.00000  Uiso   1.00
H845   H     0.84564   0.61076   0.67579   0.00000  Uiso   1.00
H846   H     0.76668   0.88827   0.78042   0.00000  Uiso   1.00
H847   H     0.84403   0.52948   0.67184   0.00000  Uiso   1.00
H848   H     0.76796   0.96988   0.77606   0.00000  Uiso   1.00
H849   H     0.76872   0.70583   0.52001   0.00000  Uiso   1.00
H850   H     0.87090   0.81663   0.97364   0.00000  Uiso   1.00
H851   H     0.89507   0.80115   0.63439   0.00000  Uiso   1.00
H852   H     0.79399   0.68607   0.87240   0.00000  Uiso   1.00
H853   H     0.90100   0.80216   0.54950   0.00000  Uiso   1.00
H854   H     0.79862   0.68323   0.95789   0.00000  Uiso   1.00
N855   N     0.83333   0.74999   0.62623   0.00000  Uiso   1.00
N856   N     0.83333   0.75001   0.87376   0.00000  Uiso   1.00
O857   O     0.83334   0.68454   0.78974   0.00000  Uiso   1.00
O858   O     0.83333   0.81547   0.71026   0.00000  Uiso   1.00
O859   O     0.83334   0.68453   0.71026   0.00000  Uiso   1.00
O860   O     0.83333   0.81547   0.78974   0.00000  Uiso   1.00
O861   O     0.75725   0.75000   0.78044   0.00000  Uiso   1.00
O862   O     0.90942   0.75000   0.71955   0.00000  Uiso   1.00
O863   O     0.75725   0.75000   0.70096   0.00000  Uiso   1.00
O864   O     0.90942   0.75001   0.79903   0.00000  Uiso   1.00
Zn865  Zn    0.83333   0.75001   0.80307   0.00000  Uiso   1.00
Zn866  Zn    0.83333   0.75000   0.69693   0.00000  Uiso   1.00
S867   S     0.98232   0.69406   0.67983   0.00000  Uiso   1.00
O868   O     0.66809   0.64841   0.69054   0.00000  Uiso   1.00
O869   O     0.92310   0.68796   0.66842   0.00000  Uiso   1.00
O870   O     0.66992   0.71346   0.63129   0.00000  Uiso   1.00
H871   H     0.98827   0.74308   0.62664   0.00000  Uiso   1.00
S872   S     0.67596   0.70304   0.82072   0.00000  Uiso   1.00
O873   O     0.71431   0.66962   0.81067   0.00000  Uiso   1.00
O874   O     0.70235   0.73657   0.85863   0.00000  Uiso   1.00
O875   O     0.95835   0.67581   0.83976   0.00000  Uiso   1.00
H876   H     0.97419   0.66278   0.87006   0.00000  Uiso   1.00
Br877  Br    0.85394   0.61580   0.85657   0.00000  Uiso   1.00
Br878  Br    0.93672   0.87670   0.71371   0.00000  Uiso   1.00
S879   S     0.76934   0.66917   0.60450   0.00000  Uiso   1.00
O880   O     0.71953   0.65983   0.56847   0.00000  Uiso   1.00
O881   O     0.80701   0.63433   0.59687   0.00000  Uiso   1.00
O882   O     0.75283   0.66340   0.65761   0.00000  Uiso   1.00
H883   H     0.75013   0.63063   0.66161   0.00000  Uiso   1.00
S884   S     0.89034   0.83481   0.88489   0.00000  Uiso   1.00
O885   O     0.84965   0.86717   0.86666   0.00000  Uiso   1.00
O886   O     0.92675   0.85704   0.92696   0.00000  Uiso   1.00
O887   O     0.92769   0.82447   0.84388   0.00000  Uiso   1.00
H888   H     0.93975   0.85433   0.83421   0.00000  Uiso   1.00
loop_
_geom_bond_atom_site_label_1
_geom_bond_atom_site_label_2
_geom_bond_distance
_geom_bond_site_symmetry_2
_ccdc_geom_bond_type
C1     C21     1.460   .     S
C1     O45     1.307   .     A
C1     O43     1.291   .     A
C2     O46     1.294   .     A
C2     C22     1.425   .     S
C2     O44     1.285   .     A
C3     H35     1.079   .     S
C3     C11     1.382   .     A
C3     C5      1.398   .     A
C4     H36     1.080   .     S
C4     C6      1.406   .     A
C4     C12     1.384   .     A
C5     S65     1.775   .     S
C5     N41     1.394   .     A
C6     N42     1.398   .     A
C6     S70     1.784   .     S
C7     C9      1.419   .     A
C7     H37     1.081   .     S
C7     N41     1.368   .     A
C8     H38     1.074   .     S
C8     C10     1.411   .     A
C8     N42     1.362   .     A
C9     C11     1.417   .     A
C9     H39     1.081   .     S
C10    C12     1.417   .     A
C10    H40     1.080   .     S
C11    C456    1.519   1_554 S
C12    C455    1.519   .     S
C13    O49     1.307   .     A
C13    C15     1.465   .     S
C13    O47     1.290   .     A
C14    C16     1.435   .     S
C14    O50     1.301   .     A
C14    O48     1.282   .     A
C15    C164    1.352   1_455 S
C15    S201    1.798   1_455 S
C16    C89     1.352   .     S
C16    S132    1.774   .     S
C17    H29     1.085   .     S
C17    C27     1.389   .     A
C17    C19     1.379   .     A
C18    H30     1.084   .     S
C18    C20     1.383   .     A
C18    C28     1.395   .     A
C19    C21     1.420   .     A
C19    Br63    1.917   .     S
C20    Br64    1.922   .     S
C20    C22     1.406   .     A
C21    C23     1.404   .     A
C22    C24     1.394   .     A
C23    C25     1.383   .     A
C23    H31     1.077   .     S
C24    H32     1.084   .     S
C24    C26     1.380   .     A
C25    C27     1.392   .     A
C25    H33     1.084   .     S
C26    C28     1.399   .     A
C26    H34     1.084   .     S
C27    C250    1.436   1_545 S
C28    C249    1.436   .     S
N41    Zn52    2.023   .     S
N42    Zn51    2.023   .     S
O43    Zn51    1.989   .     S
O44    Zn52    1.989   .     S
O45    Zn52    2.006   .     S
O46    Zn51    2.006   .     S
O47    Zn51    1.950   .     S
O48    Zn52    1.950   .     S
O49    Zn52    1.980   .     S
O50    Zn51    1.980   .     S
S53    O55     1.499   .     D
S53    C89     1.798   .     S
S53    O128    1.500   .     S
S53    O130    1.679   .     S
O54    S201    1.500   1_455 S
O56    S201    1.679   1_455 S
O56    H205    0.991   1_455 S
H57    O130    0.991   .     S
S58    O60     1.502   .     D
S58    O59     1.503   .     D
S58    C164    1.774   1_455 S
S58    O209    1.680   1_455 S
O61    H62     0.991   .     S
O61    S132    1.680   .     S
S65    O67     1.503   .     D
S65    O68     1.658   .     S
S65    O66     1.504   .     D
O68    H69     0.991   .     S
S70    O72     1.504   .     D
S70    O71     1.503   .     D
S70    O73     1.676   .     S
O73    H74     0.991   .     S
C75    C95     1.460   .     S
C75    O119    1.307   .     A
C75    O117    1.291   .     A
C76    O120    1.294   .     A
C76    C96     1.425   .     S
C76    O118    1.285   .     A
C77    H109    1.079   .     S
C77    C85     1.382   .     A
C77    C79     1.398   .     A
C78    H110    1.080   .     S
C78    C80     1.406   .     A
C78    C86     1.384   .     A
C79    S139    1.775   .     S
C79    N115    1.394   .     A
C80    N116    1.398   .     A
C80    S144    1.784   .     S
C81    C83     1.419   .     A
C81    H111    1.081   .     S
C81    N115    1.368   .     A
C82    H112    1.074   .     S
C82    C84     1.411   .     A
C82    N116    1.362   .     A
C83    C85     1.417   .     A
C83    H113    1.081   .     S
C84    C86     1.417   .     A
C84    H114    1.080   .     S
C85    C530    1.519   1_554 S
C86    C529    1.519   .     S
C87    O123    1.307   .     A
C87    C89     1.465   .     S
C87    O121    1.290   .     A
C88    C90     1.435   .     S
C88    O124    1.301   .     A
C88    O122    1.282   .     A
C90    C163    1.352   .     S
C90    S206    1.774   .     S
C91    H103    1.085   .     S
C91    C101    1.389   .     A
C91    C93     1.379   .     A
C92    H104    1.084   .     S
C92    C94     1.383   .     A
C92    C102    1.395   .     A
C93    C95     1.420   .     A
C93    Br137   1.917   .     S
C94    Br138   1.922   .     S
C94    C96     1.406   .     A
C95    C97     1.404   .     A
C96    C98     1.394   .     A
C97    C99     1.383   .     A
C97    H105    1.077   .     S
C98    H106    1.084   .     S
C98    C100    1.380   .     A
C99    C101    1.392   .     A
C99    H107    1.084   .     S
C100   C102    1.399   .     A
C100   H108    1.084   .     S
C101   C324    1.436   1_545 S
C102   C323    1.436   .     S
N115   Zn126   2.023   .     S
N116   Zn125   2.023   .     S
O117   Zn125   1.989   .     S
O118   Zn126   1.989   .     S
O119   Zn126   2.006   .     S
O120   Zn125   2.006   .     S
O121   Zn125   1.950   .     S
O122   Zn126   1.950   .     S
O123   Zn126   1.980   .     S
O124   Zn125   1.980   .     S
S127   O129    1.499   .     D
S127   C163    1.798   .     S
S127   O202    1.500   .     S
S127   O204    1.679   .     S
H131   O204    0.991   .     S
S132   O134    1.502   .     D
S132   O133    1.503   .     D
O135   H136    0.991   .     S
O135   S206    1.680   .     S
S139   O141    1.503   .     D
S139   O142    1.658   .     S
S139   O140    1.504   .     D
O142   H143    0.991   .     S
S144   O146    1.504   .     D
S144   O145    1.503   .     D
S144   O147    1.676   .     S
O147   H148    0.991   .     S
C149   C169    1.460   .     S
C149   O193    1.307   .     A
C149   O191    1.291   .     A
C150   O194    1.294   .     A
C150   C170    1.425   .     S
C150   O192    1.285   .     A
C151   H183    1.079   .     S
C151   C159    1.382   .     A
C151   C153    1.398   .     A
C152   H184    1.080   .     S
C152   C154    1.406   .     A
C152   C160    1.384   .     A
C153   S213    1.775   .     S
C153   N189    1.394   .     A
C154   N190    1.398   .     A
C154   S218    1.784   .     S
C155   C157    1.419   .     A
C155   H185    1.081   .     S
C155   N189    1.368   .     A
C156   H186    1.074   .     S
C156   C158    1.411   .     A
C156   N190    1.362   .     A
C157   C159    1.417   .     A
C157   H187    1.081   .     S
C158   C160    1.417   .     A
C158   H188    1.080   .     S
C159   C604    1.519   1_554 S
C160   C603    1.519   .     S
C161   O197    1.307   .     A
C161   C163    1.465   .     S
C161   O195    1.290   .     A
C162   C164    1.435   .     S
C162   O198    1.301   .     A
C162   O196    1.282   .     A
C164   C15     1.352   1_655 S
C164   S58     1.774   1_655 S
C165   H177    1.085   .     S
C165   C175    1.389   .     A
C165   C167    1.379   .     A
C166   H178    1.084   .     S
C166   C168    1.383   .     A
C166   C176    1.395   .     A
C167   C169    1.420   .     A
C167   Br211   1.917   .     S
C168   Br212   1.922   .     S
C168   C170    1.406   .     A
C169   C171    1.404   .     A
C170   C172    1.394   .     A
C171   C173    1.383   .     A
C171   H179    1.077   .     S
C172   H180    1.084   .     S
C172   C174    1.380   .     A
C173   C175    1.392   .     A
C173   H181    1.084   .     S
C174   C176    1.399   .     A
C174   H182    1.084   .     S
C175   C398    1.436   1_545 S
C176   C397    1.436   .     S
N189   Zn200   2.023   .     S
N190   Zn199   2.023   .     S
O191   Zn199   1.989   .     S
O192   Zn200   1.989   .     S
O193   Zn200   2.006   .     S
O194   Zn199   2.006   .     S
O195   Zn199   1.950   .     S
O196   Zn200   1.950   .     S
O197   Zn200   1.980   .     S
O198   Zn199   1.980   .     S
S201   O203    1.499   .     D
S201   C15     1.798   1_655 S
S201   O54     1.500   1_655 S
S201   O56     1.679   1_655 S
H205   O56     0.991   1_655 S
S206   O208    1.502   .     D
S206   O207    1.503   .     D
O209   H210    0.991   .     S
O209   S58     1.680   1_655 S
S213   O215    1.503   .     D
S213   O216    1.658   .     S
S213   O214    1.504   .     D
O216   H217    0.991   .     S
S218   O220    1.504   .     D
S218   O219    1.503   .     D
S218   O221    1.676   .     S
O221   H222    0.991   .     S
C223   C243    1.460   .     S
C223   O267    1.307   .     A
C223   O265    1.291   .     A
C224   O268    1.294   .     A
C224   C244    1.425   .     S
C224   O266    1.285   .     A
C225   H257    1.079   .     S
C225   C233    1.382   .     A
C225   C227    1.398   .     A
C226   H258    1.080   .     S
C226   C228    1.406   .     A
C226   C234    1.384   .     A
C227   S287    1.775   .     S
C227   N263    1.394   .     A
C228   N264    1.398   .     A
C228   S292    1.784   .     S
C229   C231    1.419   .     A
C229   H259    1.081   .     S
C229   N263    1.368   .     A
C230   H260    1.074   .     S
C230   C232    1.411   .     A
C230   N264    1.362   .     A
C231   C233    1.417   .     A
C231   H261    1.081   .     S
C232   C234    1.417   .     A
C232   H262    1.080   .     S
C233   C678    1.519   1_554 S
C234   C677    1.519   .     S
C235   O271    1.307   .     A
C235   C237    1.465   .     S
C235   O269    1.290   .     A
C236   C238    1.435   .     S
C236   O272    1.301   .     A
C236   O270    1.282   .     A
C237   C386    1.352   1_455 S
C237   S423    1.798   1_455 S
C238   C311    1.352   .     S
C238   S354    1.774   .     S
C239   H251    1.085   .     S
C239   C249    1.389   .     A
C239   C241    1.379   .     A
C240   H252    1.084   .     S
C240   C242    1.383   .     A
C240   C250    1.395   .     A
C241   C243    1.420   .     A
C241   Br285   1.917   .     S
C242   Br286   1.922   .     S
C242   C244    1.406   .     A
C243   C245    1.404   .     A
C244   C246    1.394   .     A
C245   C247    1.383   .     A
C245   H253    1.077   .     S
C246   H254    1.084   .     S
C246   C248    1.380   .     A
C247   C249    1.392   .     A
C247   H255    1.084   .     S
C248   C250    1.399   .     A
C248   H256    1.084   .     S
C250   C27     1.436   1_565 S
N263   Zn274   2.023   .     S
N264   Zn273   2.023   .     S
O265   Zn273   1.989   .     S
O266   Zn274   1.989   .     S
O267   Zn274   2.006   .     S
O268   Zn273   2.006   .     S
O269   Zn273   1.950   .     S
O270   Zn274   1.950   .     S
O271   Zn274   1.980   .     S
O272   Zn273   1.980   .     S
S275   O277    1.499   .     D
S275   C311    1.798   .     S
S275   O350    1.500   .     S
S275   O352    1.679   .     S
O276   S423    1.500   1_455 S
O278   S423    1.679   1_455 S
O278   H427    0.991   1_455 S
H279   O352    0.991   .     S
S280   O282    1.502   .     D
S280   O281    1.503   .     D
S280   C386    1.774   1_455 S
S280   O431    1.680   1_455 S
O283   H284    0.991   .     S
O283   S354    1.680   .     S
S287   O289    1.503   .     D
S287   O290    1.658   .     S
S287   O288    1.504   .     D
O290   H291    0.991   .     S
S292   O294    1.504   .     D
S292   O293    1.503   .     D
S292   O295    1.676   .     S
O295   H296    0.991   .     S
C297   C317    1.460   .     S
C297   O341    1.307   .     A
C297   O339    1.291   .     A
C298   O342    1.294   .     A
C298   C318    1.425   .     S
C298   O340    1.285   .     A
C299   H331    1.079   .     S
C299   C307    1.382   .     A
C299   C301    1.398   .     A
C300   H332    1.080   .     S
C300   C302    1.406   .     A
C300   C308    1.384   .     A
C301   S361    1.775   .     S
C301   N337    1.394   .     A
C302   N338    1.398   .     A
C302   S366    1.784   .     S
C303   C305    1.419   .     A
C303   H333    1.081   .     S
C303   N337    1.368   .     A
C304   H334    1.074   .     S
C304   C306    1.411   .     A
C304   N338    1.362   .     A
C305   C307    1.417   .     A
C305   H335    1.081   .     S
C306   C308    1.417   .     A
C306   H336    1.080   .     S
C307   C752    1.519   1_554 S
C308   C751    1.519   .     S
C309   O345    1.307   .     A
C309   C311    1.465   .     S
C309   O343    1.290   .     A
C310   C312    1.435   .     S
C310   O346    1.301   .     A
C310   O344    1.282   .     A
C312   C385    1.352   .     S
C312   S428    1.774   .     S
C313   H325    1.085   .     S
C313   C323    1.389   .     A
C313   C315    1.379   .     A
C314   H326    1.084   .     S
C314   C316    1.383   .     A
C314   C324    1.395   .     A
C315   C317    1.420   .     A
C315   Br359   1.917   .     S
C316   Br360   1.922   .     S
C316   C318    1.406   .     A
C317   C319    1.404   .     A
C318   C320    1.394   .     A
C319   C321    1.383   .     A
C319   H327    1.077   .     S
C320   H328    1.084   .     S
C320   C322    1.380   .     A
C321   C323    1.392   .     A
C321   H329    1.084   .     S
C322   C324    1.399   .     A
C322   H330    1.084   .     S
C324   C101    1.436   1_565 S
N337   Zn348   2.023   .     S
N338   Zn347   2.023   .     S
O339   Zn347   1.989   .     S
O340   Zn348   1.989   .     S
O341   Zn348   2.006   .     S
O342   Zn347   2.006   .     S
O343   Zn347   1.950   .     S
O344   Zn348   1.950   .     S
O345   Zn348   1.980   .     S
O346   Zn347   1.980   .     S
S349   O351    1.499   .     D
S349   C385    1.798   .     S
S349   O424    1.500   .     S
S349   O426    1.679   .     S
H353   O426    0.991   .     S
S354   O356    1.502   .     D
S354   O355    1.503   .     D
O357   H358    0.991   .     S
O357   S428    1.680   .     S
S361   O363    1.503   .     D
S361   O364    1.658   .     S
S361   O362    1.504   .     D
O364   H365    0.991   .     S
S366   O368    1.504   .     D
S366   O367    1.503   .     D
S366   O369    1.676   .     S
O369   H370    0.991   .     S
C371   C391    1.460   .     S
C371   O415    1.307   .     A
C371   O413    1.291   .     A
C372   O416    1.294   .     A
C372   C392    1.425   .     S
C372   O414    1.285   .     A
C373   H405    1.079   .     S
C373   C381    1.382   .     A
C373   C375    1.398   .     A
C374   H406    1.080   .     S
C374   C376    1.406   .     A
C374   C382    1.384   .     A
C375   S435    1.775   .     S
C375   N411    1.394   .     A
C376   N412    1.398   .     A
C376   S440    1.784   .     S
C377   C379    1.419   .     A
C377   H407    1.081   .     S
C377   N411    1.368   .     A
C378   H408    1.074   .     S
C378   C380    1.411   .     A
C378   N412    1.362   .     A
C379   C381    1.417   .     A
C379   H409    1.081   .     S
C380   C382    1.417   .     A
C380   H410    1.080   .     S
C381   C826    1.519   1_554 S
C382   C825    1.519   .     S
C383   O419    1.307   .     A
C383   C385    1.465   .     S
C383   O417    1.290   .     A
C384   C386    1.435   .     S
C384   O420    1.301   .     A
C384   O418    1.282   .     A
C386   C237    1.352   1_655 S
C386   S280    1.774   1_655 S
C387   H399    1.085   .     S
C387   C397    1.389   .     A
C387   C389    1.379   .     A
C388   H400    1.084   .     S
C388   C390    1.383   .     A
C388   C398    1.395   .     A
C389   C391    1.420   .     A
C389   Br433   1.917   .     S
C390   Br434   1.922   .     S
C390   C392    1.406   .     A
C391   C393    1.404   .     A
C392   C394    1.394   .     A
C393   C395    1.383   .     A
C393   H401    1.077   .     S
C394   H402    1.084   .     S
C394   C396    1.380   .     A
C395   C397    1.392   .     A
C395   H403    1.084   .     S
C396   C398    1.399   .     A
C396   H404    1.084   .     S
C398   C175    1.436   1_565 S
N411   Zn422   2.023   .     S
N412   Zn421   2.023   .     S
O413   Zn421   1.989   .     S
O414   Zn422   1.989   .     S
O415   Zn422   2.006   .     S
O416   Zn421   2.006   .     S
O417   Zn421   1.950   .     S
O418   Zn422   1.950   .     S
O419   Zn422   1.980   .     S
O420   Zn421   1.980   .     S
S423   O425    1.499   .     D
S423   C237    1.798   1_655 S
S423   O276    1.500   1_655 S
S423   O278    1.679   1_655 S
H427   O278    0.991   1_655 S
S428   O430    1.502   .     D
S428   O429    1.503   .     D
O431   H432    0.991   .     S
O431   S280    1.680   1_655 S
S435   O437    1.503   .     D
S435   O438    1.658   .     S
S435   O436    1.504   .     D
O438   H439    0.991   .     S
S440   O442    1.504   .     D
S440   O441    1.503   .     D
S440   O443    1.676   .     S
O443   H444    0.991   .     S
C445   C465    1.460   .     S
C445   O489    1.307   .     A
C445   O487    1.291   .     A
C446   O490    1.294   .     A
C446   C466    1.425   .     S
C446   O488    1.285   .     A
C447   H479    1.079   .     S
C447   C455    1.382   .     A
C447   C449    1.398   .     A
C448   H480    1.080   .     S
C448   C450    1.406   .     A
C448   C456    1.384   .     A
C449   S509    1.775   .     S
C449   N485    1.394   .     A
C450   N486    1.398   .     A
C450   S514    1.784   .     S
C451   C453    1.419   .     A
C451   H481    1.081   .     S
C451   N485    1.368   .     A
C452   H482    1.074   .     S
C452   C454    1.411   .     A
C452   N486    1.362   .     A
C453   C455    1.417   .     A
C453   H483    1.081   .     S
C454   C456    1.417   .     A
C454   H484    1.080   .     S
C456   C11     1.519   1_556 S
C457   O493    1.307   .     A
C457   C459    1.465   .     S
C457   O491    1.290   .     A
C458   C460    1.435   .     S
C458   O494    1.301   .     A
C458   O492    1.282   .     A
C459   C608    1.352   1_455 S
C459   S645    1.798   1_455 S
C460   C533    1.352   .     S
C460   S576    1.774   .     S
C461   H473    1.085   .     S
C461   C471    1.389   .     A
C461   C463    1.379   .     A
C462   H474    1.084   .     S
C462   C464    1.383   .     A
C462   C472    1.395   .     A
C463   C465    1.420   .     A
C463   Br507   1.917   .     S
C464   Br508   1.922   .     S
C464   C466    1.406   .     A
C465   C467    1.404   .     A
C466   C468    1.394   .     A
C467   C469    1.383   .     A
C467   H475    1.077   .     S
C468   H476    1.084   .     S
C468   C470    1.380   .     A
C469   C471    1.392   .     A
C469   H477    1.084   .     S
C470   C472    1.399   .     A
C470   H478    1.084   .     S
C471   C694    1.436   1_545 S
C472   C693    1.436   .     S
N485   Zn496   2.023   .     S
N486   Zn495   2.023   .     S
O487   Zn495   1.989   .     S
O488   Zn496   1.989   .     S
O489   Zn496   2.006   .     S
O490   Zn495   2.006   .     S
O491   Zn495   1.950   .     S
O492   Zn496   1.950   .     S
O493   Zn496   1.980   .     S
O494   Zn495   1.980   .     S
S497   O499    1.499   .     D
S497   C533    1.798   .     S
S497   O572    1.500   .     S
S497   O574    1.679   .     S
O498   S645    1.500   1_455 S
O500   S645    1.679   1_455 S
O500   H649    0.991   1_455 S
H501   O574    0.991   .     S
S502   O504    1.502   .     D
S502   O503    1.503   .     D
S502   C608    1.774   1_455 S
S502   O653    1.680   1_455 S
O505   H506    0.991   .     S
O505   S576    1.680   .     S
S509   O511    1.503   .     D
S509   O512    1.658   .     S
S509   O510    1.504   .     D
O512   H513    0.991   .     S
S514   O516    1.504   .     D
S514   O515    1.503   .     D
S514   O517    1.676   .     S
O517   H518    0.991   .     S
C519   C539    1.460   .     S
C519   O563    1.307   .     A
C519   O561    1.291   .     A
C520   O564    1.294   .     A
C520   C540    1.425   .     S
C520   O562    1.285   .     A
C521   H553    1.079   .     S
C521   C529    1.382   .     A
C521   C523    1.398   .     A
C522   H554    1.080   .     S
C522   C524    1.406   .     A
C522   C530    1.384   .     A
C523   S583    1.775   .     S
C523   N559    1.394   .     A
C524   N560    1.398   .     A
C524   S588    1.784   .     S
C525   C527    1.419   .     A
C525   H555    1.081   .     S
C525   N559    1.368   .     A
C526   H556    1.074   .     S
C526   C528    1.411   .     A
C526   N560    1.362   .     A
C527   C529    1.417   .     A
C527   H557    1.081   .     S
C528   C530    1.417   .     A
C528   H558    1.080   .     S
C530   C85     1.519   1_556 S
C531   O567    1.307   .     A
C531   C533    1.465   .     S
C531   O565    1.290   .     A
C532   C534    1.435   .     S
C532   O568    1.301   .     A
C532   O566    1.282   .     A
C534   C607    1.352   .     S
C534   S650    1.774   .     S
C535   H547    1.085   .     S
C535   C545    1.389   .     A
C535   C537    1.379   .     A
C536   H548    1.084   .     S
C536   C538    1.383   .     A
C536   C546    1.395   .     A
C537   C539    1.420   .     A
C537   Br581   1.917   .     S
C538   Br582   1.922   .     S
C538   C540    1.406   .     A
C539   C541    1.404   .     A
C540   C542    1.394   .     A
C541   C543    1.383   .     A
C541   H549    1.077   .     S
C542   H550    1.084   .     S
C542   C544    1.380   .     A
C543   C545    1.392   .     A
C543   H551    1.084   .     S
C544   C546    1.399   .     A
C544   H552    1.084   .     S
C545   C768    1.436   1_545 S
C546   C767    1.436   .     S
N559   Zn570   2.023   .     S
N560   Zn569   2.023   .     S
O561   Zn569   1.989   .     S
O562   Zn570   1.989   .     S
O563   Zn570   2.006   .     S
O564   Zn569   2.006   .     S
O565   Zn569   1.950   .     S
O566   Zn570   1.950   .     S
O567   Zn570   1.980   .     S
O568   Zn569   1.980   .     S
S571   O573    1.499   .     D
S571   C607    1.798   .     S
S571   O646    1.500   .     S
S571   O648    1.679   .     S
H575   O648    0.991   .     S
S576   O578    1.502   .     D
S576   O577    1.503   .     D
O579   H580    0.991   .     S
O579   S650    1.680   .     S
S583   O585    1.503   .     D
S583   O586    1.658   .     S
S583   O584    1.504   .     D
O586   H587    0.991   .     S
S588   O590    1.504   .     D
S588   O589    1.503   .     D
S588   O591    1.676   .     S
O591   H592    0.991   .     S
C593   C613    1.460   .     S
C593   O637    1.307   .     A
C593   O635    1.291   .     A
C594   O638    1.294   .     A
C594   C614    1.425   .     S
C594   O636    1.285   .     A
C595   H627    1.079   .     S
C595   C603    1.382   .     A
C595   C597    1.398   .     A
C596   H628    1.080   .     S
C596   C598    1.406   .     A
C596   C604    1.384   .     A
C597   S657    1.775   .     S
C597   N633    1.394   .     A
C598   N634    1.398   .     A
C598   S662    1.784   .     S
C599   C601    1.419   .     A
C599   H629    1.081   .     S
C599   N633    1.368   .     A
C600   H630    1.074   .     S
C600   C602    1.411   .     A
C600   N634    1.362   .     A
C601   C603    1.417   .     A
C601   H631    1.081   .     S
C602   C604    1.417   .     A
C602   H632    1.080   .     S
C604   C159    1.519   1_556 S
C605   O641    1.307   .     A
C605   C607    1.465   .     S
C605   O639    1.290   .     A
C606   C608    1.435   .     S
C606   O642    1.301   .     A
C606   O640    1.282   .     A
C608   C459    1.352   1_655 S
C608   S502    1.774   1_655 S
C609   H621    1.085   .     S
C609   C619    1.389   .     A
C609   C611    1.379   .     A
C610   H622    1.084   .     S
C610   C612    1.383   .     A
C610   C620    1.395   .     A
C611   C613    1.420   .     A
C611   Br655   1.917   .     S
C612   Br656   1.922   .     S
C612   C614    1.406   .     A
C613   C615    1.404   .     A
C614   C616    1.394   .     A
C615   C617    1.383   .     A
C615   H623    1.077   .     S
C616   H624    1.084   .     S
C616   C618    1.380   .     A
C617   C619    1.392   .     A
C617   H625    1.084   .     S
C618   C620    1.399   .     A
C618   H626    1.084   .     S
C619   C842    1.436   1_545 S
C620   C841    1.436   .     S
N633   Zn644   2.023   .     S
N634   Zn643   2.023   .     S
O635   Zn643   1.989   .     S
O636   Zn644   1.989   .     S
O637   Zn644   2.006   .     S
O638   Zn643   2.006   .     S
O639   Zn643   1.950   .     S
O640   Zn644   1.950   .     S
O641   Zn644   1.980   .     S
O642   Zn643   1.980   .     S
S645   O647    1.499   .     D
S645   C459    1.798   1_655 S
S645   O498    1.500   1_655 S
S645   O500    1.679   1_655 S
H649   O500    0.991   1_655 S
S650   O652    1.502   .     D
S650   O651    1.503   .     D
O653   H654    0.991   .     S
O653   S502    1.680   1_655 S
S657   O659    1.503   .     D
S657   O660    1.658   .     S
S657   O658    1.504   .     D
O660   H661    0.991   .     S
S662   O664    1.504   .     D
S662   O663    1.503   .     D
S662   O665    1.676   .     S
O665   H666    0.991   .     S
C667   C687    1.460   .     S
C667   O711    1.307   .     A
C667   O709    1.291   .     A
C668   O712    1.294   .     A
C668   C688    1.425   .     S
C668   O710    1.285   .     A
C669   H701    1.079   .     S
C669   C677    1.382   .     A
C669   C671    1.398   .     A
C670   H702    1.080   .     S
C670   C672    1.406   .     A
C670   C678    1.384   .     A
C671   S731    1.775   .     S
C671   N707    1.394   .     A
C672   N708    1.398   .     A
C672   S736    1.784   .     S
C673   C675    1.419   .     A
C673   H703    1.081   .     S
C673   N707    1.368   .     A
C674   H704    1.074   .     S
C674   C676    1.411   .     A
C674   N708    1.362   .     A
C675   C677    1.417   .     A
C675   H705    1.081   .     S
C676   C678    1.417   .     A
C676   H706    1.080   .     S
C678   C233    1.519   1_556 S
C679   O715    1.307   .     A
C679   C681    1.465   .     S
C679   O713    1.290   .     A
C680   C682    1.435   .     S
C680   O716    1.301   .     A
C680   O714    1.282   .     A
C681   C830    1.352   1_455 S
C681   S867    1.798   1_455 S
C682   C755    1.352   .     S
C682   S798    1.774   .     S
C683   H695    1.085   .     S
C683   C693    1.389   .     A
C683   C685    1.379   .     A
C684   H696    1.084   .     S
C684   C686    1.383   .     A
C684   C694    1.395   .     A
C685   C687    1.420   .     A
C685   Br729   1.917   .     S
C686   Br730   1.922   .     S
C686   C688    1.406   .     A
C687   C689    1.404   .     A
C688   C690    1.394   .     A
C689   C691    1.383   .     A
C689   H697    1.077   .     S
C690   H698    1.084   .     S
C690   C692    1.380   .     A
C691   C693    1.392   .     A
C691   H699    1.084   .     S
C692   C694    1.399   .     A
C692   H700    1.084   .     S
C694   C471    1.436   1_565 S
N707   Zn718   2.023   .     S
N708   Zn717   2.023   .     S
O709   Zn717   1.989   .     S
O710   Zn718   1.989   .     S
O711   Zn718   2.006   .     S
O712   Zn717   2.006   .     S
O713   Zn717   1.950   .     S
O714   Zn718   1.950   .     S
O715   Zn718   1.980   .     S
O716   Zn717   1.980   .     S
S719   O721    1.499   .     D
S719   C755    1.798   .     S
S719   O794    1.500   .     S
S719   O796    1.679   .     S
O720   S867    1.500   1_455 S
O722   S867    1.679   1_455 S
O722   H871    0.991   1_455 S
H723   O796    0.991   .     S
S724   O726    1.502   .     D
S724   O725    1.503   .     D
S724   C830    1.774   1_455 S
S724   O875    1.680   1_455 S
O727   H728    0.991   .     S
O727   S798    1.680   .     S
S731   O733    1.503   .     D
S731   O734    1.658   .     S
S731   O732    1.504   .     D
O734   H735    0.991   .     S
S736   O738    1.504   .     D
S736   O737    1.503   .     D
S736   O739    1.676   .     S
O739   H740    0.991   .     S
C741   C761    1.460   .     S
C741   O785    1.307   .     A
C741   O783    1.291   .     A
C742   O786    1.294   .     A
C742   C762    1.425   .     S
C742   O784    1.285   .     A
C743   H775    1.079   .     S
C743   C751    1.382   .     A
C743   C745    1.398   .     A
C744   H776    1.080   .     S
C744   C746    1.406   .     A
C744   C752    1.384   .     A
C745   S805    1.775   .     S
C745   N781    1.394   .     A
C746   N782    1.398   .     A
C746   S810    1.784   .     S
C747   C749    1.419   .     A
C747   H777    1.081   .     S
C747   N781    1.368   .     A
C748   H778    1.074   .     S
C748   C750    1.411   .     A
C748   N782    1.362   .     A
C749   C751    1.417   .     A
C749   H779    1.081   .     S
C750   C752    1.417   .     A
C750   H780    1.080   .     S
C752   C307    1.519   1_556 S
C753   O789    1.307   .     A
C753   C755    1.465   .     S
C753   O787    1.290   .     A
C754   C756    1.435   .     S
C754   O790    1.301   .     A
C754   O788    1.282   .     A
C756   C829    1.352   .     S
C756   S872    1.774   .     S
C757   H769    1.085   .     S
C757   C767    1.389   .     A
C757   C759    1.379   .     A
C758   H770    1.084   .     S
C758   C760    1.383   .     A
C758   C768    1.395   .     A
C759   C761    1.420   .     A
C759   Br803   1.917   .     S
C760   Br804   1.922   .     S
C760   C762    1.406   .     A
C761   C763    1.404   .     A
C762   C764    1.394   .     A
C763   C765    1.383   .     A
C763   H771    1.077   .     S
C764   H772    1.084   .     S
C764   C766    1.380   .     A
C765   C767    1.392   .     A
C765   H773    1.084   .     S
C766   C768    1.399   .     A
C766   H774    1.084   .     S
C768   C545    1.436   1_565 S
N781   Zn792   2.023   .     S
N782   Zn791   2.023   .     S
O783   Zn791   1.989   .     S
O784   Zn792   1.989   .     S
O785   Zn792   2.006   .     S
O786   Zn791   2.006   .     S
O787   Zn791   1.950   .     S
O788   Zn792   1.950   .     S
O789   Zn792   1.980   .     S
O790   Zn791   1.980   .     S
S793   O795    1.499   .     D
S793   C829    1.798   .     S
S793   O868    1.500   .     S
S793   O870    1.679   .     S
H797   O870    0.991   .     S
S798   O800    1.502   .     D
S798   O799    1.503   .     D
O801   H802    0.991   .     S
O801   S872    1.680   .     S
S805   O807    1.503   .     D
S805   O808    1.658   .     S
S805   O806    1.504   .     D
O808   H809    0.991   .     S
S810   O812    1.504   .     D
S810   O811    1.503   .     D
S810   O813    1.676   .     S
O813   H814    0.991   .     S
C815   C835    1.460   .     S
C815   O859    1.307   .     A
C815   O857    1.291   .     A
C816   O860    1.294   .     A
C816   C836    1.425   .     S
C816   O858    1.285   .     A
C817   H849    1.079   .     S
C817   C825    1.382   .     A
C817   C819    1.398   .     A
C818   H850    1.080   .     S
C818   C820    1.406   .     A
C818   C826    1.384   .     A
C819   S879    1.775   .     S
C819   N855    1.394   .     A
C820   N856    1.398   .     A
C820   S884    1.784   .     S
C821   C823    1.419   .     A
C821   H851    1.081   .     S
C821   N855    1.368   .     A
C822   H852    1.074   .     S
C822   C824    1.411   .     A
C822   N856    1.362   .     A
C823   C825    1.417   .     A
C823   H853    1.081   .     S
C824   C826    1.417   .     A
C824   H854    1.080   .     S
C826   C381    1.519   1_556 S
C827   O863    1.307   .     A
C827   C829    1.465   .     S
C827   O861    1.290   .     A
C828   C830    1.435   .     S
C828   O864    1.301   .     A
C828   O862    1.282   .     A
C830   C681    1.352   1_655 S
C830   S724    1.774   1_655 S
C831   H843    1.085   .     S
C831   C841    1.389   .     A
C831   C833    1.379   .     A
C832   H844    1.084   .     S
C832   C834    1.383   .     A
C832   C842    1.395   .     A
C833   C835    1.420   .     A
C833   Br877   1.917   .     S
C834   Br878   1.922   .     S
C834   C836    1.406   .     A
C835   C837    1.404   .     A
C836   C838    1.394   .     A
C837   C839    1.383   .     A
C837   H845    1.077   .     S
C838   H846    1.084   .     S
C838   C840    1.380   .     A
C839   C841    1.392   .     A
C839   H847    1.084   .     S
C840   C842    1.399   .     A
C840   H848    1.084   .     S
C842   C619    1.436   1_565 S
N855   Zn866   2.023   .     S
N856   Zn865   2.023   .     S
O857   Zn865   1.989   .     S
O858   Zn866   1.989   .     S
O859   Zn866   2.006   .     S
O860   Zn865   2.006   .     S
O861   Zn865   1.950   .     S
O862   Zn866   1.950   .     S
O863   Zn866   1.980   .     S
O864   Zn865   1.980   .     S
S867   O869    1.499   .     D
S867   C681    1.798   1_655 S
S867   O720    1.500   1_655 S
S867   O722    1.679   1_655 S
H871   O722    0.991   1_655 S
S872   O874    1.502   .     D
S872   O873    1.503   .     D
O875   H876    0.991   .     S
O875   S724    1.680   1_655 S
S879   O881    1.503   .     D
S879   O882    1.658   .     S
S879   O880    1.504   .     D
O882   H883    0.991   .     S
S884   O886    1.504   .     D
S884   O885    1.503   .     D
S884   O887    1.676   .     S
O887   H888    0.991   .     S
