data_str_m2_o2_o10_pcu_sym.86
_audit_creation_date              2020-01-03
_audit_creation_method            'Materials Studio'
_symmetry_space_group_name_H-M    'P1'
_symmetry_Int_Tables_number       1
_symmetry_cell_setting            triclinic
loop_
_symmetry_equiv_pos_as_xyz
  x,y,z
_cell_length_a                    26.5448
_cell_length_b                    30.2281
_cell_length_c                    28.0245
_cell_angle_alpha                 89.0699
_cell_angle_beta                  97.9432
_cell_angle_gamma                 94.0884
loop_
_atom_site_label
_atom_site_type_symbol
_atom_site_fract_x
_atom_site_fract_y
_atom_site_fract_z
_atom_site_U_iso_or_equiv
_atom_site_adp_type
_atom_site_occupancy
C1     C     0.16639   0.16535   0.25034   0.00000  Uiso   1.00
C2     C     0.18329   0.28736   0.44870   0.00000  Uiso   1.00
C3     C     0.16658   0.24799   0.02735   0.00000  Uiso   1.00
C4     C     0.16778   0.24842   0.47305   0.00000  Uiso   1.00
C5     C     0.06826   0.25081   0.23773   0.00000  Uiso   1.00
C6     C     0.26518   0.24973   0.26239   0.00000  Uiso   1.00
C7     C     0.01329   0.25337   0.23111   0.00000  Uiso   1.00
C8     C     0.32038   0.24814   0.26943   0.00000  Uiso   1.00
C9     C     0.11377   0.04730   0.25159   0.00000  Uiso   1.00
C10    C     0.16653   0.45531   0.20737   0.00000  Uiso   1.00
C11    C     0.11685   0.09410   0.25058   0.00000  Uiso   1.00
C12    C     0.16363   0.33492   0.24916   0.00000  Uiso   1.00
C13    C     0.16732   0.40870   0.20646   0.00000  Uiso   1.00
C14    C     0.16464   0.11733   0.25128   0.00000  Uiso   1.00
C15    C     0.15672   0.38320   0.24717   0.00000  Uiso   1.00
C16    C     0.20978   0.09491   0.25333   0.00000  Uiso   1.00
C17    C     0.13867   0.40407   0.28583   0.00000  Uiso   1.00
C18    C     0.20687   0.04875   0.25454   0.00000  Uiso   1.00
C19    C     0.14224   0.45053   0.28860   0.00000  Uiso   1.00
C20    C     0.15878   0.02473   0.25254   0.00000  Uiso   1.00
C21    C     0.15544   0.47588   0.24922   0.00000  Uiso   1.00
C22    C     0.06427   0.02200   0.25397   0.00000  Uiso   1.00
C23    C     0.20962   0.26376   0.05873   0.00000  Uiso   1.00
C24    C     0.18033   0.48262   0.16581   0.00000  Uiso   1.00
C25    C     0.23498   0.31328   0.12797   0.00000  Uiso   1.00
C26    C     0.12139   0.17434   0.36753   0.00000  Uiso   1.00
C27    C     0.08671   0.20047   0.11977   0.00000  Uiso   1.00
C28    C     0.21800   0.32257   0.37816   0.00000  Uiso   1.00
C29    C     0.07515   0.21783   0.01686   0.00000  Uiso   1.00
C30    C     0.19401   0.32994   0.47549   0.00000  Uiso   1.00
C31    C     0.15355   0.20996   0.44495   0.00000  Uiso   1.00
C32    C     0.20495   0.27252   0.10752   0.00000  Uiso   1.00
C33    C     0.14788   0.21295   0.39403   0.00000  Uiso   1.00
C34    C     0.12712   0.22777   0.09961   0.00000  Uiso   1.00
C35    C     0.18768   0.28586   0.39858   0.00000  Uiso   1.00
C36    C     0.12347   0.23146   0.04834   0.00000  Uiso   1.00
Cu37   Cu    0.16667   0.25000   0.29821   0.00000  Uiso   1.00
Cu38   Cu    0.16667   0.25001   0.20178   0.00000  Uiso   1.00
H39    H     0.01284   0.27569   0.16526   0.00000  Uiso   1.00
H40    H     0.12744   0.45076   0.35512   0.00000  Uiso   1.00
H41    H     0.28337   0.27487   0.06782   0.00000  Uiso   1.00
H42    H     0.16144   0.16851   0.49901   0.00000  Uiso   1.00
H43    H     0.26903   0.37318   0.11380   0.00000  Uiso   1.00
H44    H     0.11831   0.10839   0.35607   0.00000  Uiso   1.00
H45    H     0.01210   0.19145   0.12682   0.00000  Uiso   1.00
H46    H     0.22867   0.38837   0.36641   0.00000  Uiso   1.00
H47    H     0.01824   0.17077   0.49870   0.00000  Uiso   1.00
H48    H     0.26898   0.33485   0.46849   0.00000  Uiso   1.00
H49    H     0.32116   0.23455   0.33852   0.00000  Uiso   1.00
H50    H     0.00749   0.00650   0.29334   0.00000  Uiso   1.00
H51    H     0.22912   0.49486   0.11723   0.00000  Uiso   1.00
H52    H     0.04284   0.09927   0.23908   0.00000  Uiso   1.00
H53    H     0.16570   0.40453   0.13689   0.00000  Uiso   1.00
H54    H     0.25559   0.14903   0.25426   0.00000  Uiso   1.00
H55    H     0.09540   0.35427   0.30419   0.00000  Uiso   1.00
H56    H     0.24714   0.49698   0.26686   0.00000  Uiso   1.00
N57    N     0.16667   0.25001   0.12934   0.00000  Uiso   1.00
N58    N     0.16667   0.24999   0.37065   0.00000  Uiso   1.00
O59    O     0.16667   0.18573   0.29071   0.00000  Uiso   1.00
O60    O     0.01237   0.24175   0.31551   0.00000  Uiso   1.00
O61    O     0.04751   0.49464   0.22308   0.00000  Uiso   1.00
O62    O     0.03789   0.02862   0.29279   0.00000  Uiso   1.00
O63    O     0.15412   0.01264   0.14999   0.00000  Uiso   1.00
O64    O     0.22359   0.47405   0.14506   0.00000  Uiso   1.00
O65    O     0.07430   0.11853   0.24806   0.00000  Uiso   1.00
O66    O     0.17759   0.38728   0.16610   0.00000  Uiso   1.00
O67    O     0.25775   0.11653   0.25466   0.00000  Uiso   1.00
O68    O     0.11538   0.38020   0.32015   0.00000  Uiso   1.00
O69    O     0.25220   0.02841   0.25723   0.00000  Uiso   1.00
O70    O     0.16666   0.31428   0.20928   0.00000  Uiso   1.00
O71    O     0.13208   0.47236   0.32889   0.00000  Uiso   1.00
O72    O     0.25522   0.27233   0.04058   0.00000  Uiso   1.00
O73    O     0.14319   0.16907   0.46574   0.00000  Uiso   1.00
O74    O     0.24721   0.31862   0.17098   0.00000  Uiso   1.00
O75    O     0.24904   0.34693   0.09645   0.00000  Uiso   1.00
O76    O     0.08229   0.17866   0.33988   0.00000  Uiso   1.00
O77    O     0.14019   0.13240   0.37557   0.00000  Uiso   1.00
O78    O     0.09589   0.16459   0.13835   0.00000  Uiso   1.00
O79    O     0.03685   0.21373   0.11322   0.00000  Uiso   1.00
O80    O     0.25671   0.31509   0.36161   0.00000  Uiso   1.00
O81    O     0.16667   0.18573   0.20928   0.00000  Uiso   1.00
O82    O     0.20432   0.36618   0.38066   0.00000  Uiso   1.00
O83    O     0.05741   0.24315   0.48548   0.00000  Uiso   1.00
O84    O     0.05051   0.17600   0.02244   0.00000  Uiso   1.00
O85    O     0.15987   0.34558   0.49338   0.00000  Uiso   1.00
O86    O     0.24250   0.35214   0.48138   0.00000  Uiso   1.00
O87    O     0.16666   0.31427   0.29072   0.00000  Uiso   1.00
O88    O     0.09161   0.25000   0.28132   0.00000  Uiso   1.00
O89    O     0.24172   0.25001   0.21868   0.00000  Uiso   1.00
O90    O     0.09161   0.25000   0.19988   0.00000  Uiso   1.00
O91    O     0.24172   0.25000   0.30011   0.00000  Uiso   1.00
O92    O     0.32175   0.26121   0.18534   0.00000  Uiso   1.00
C93    C     0.49972   0.16535   0.25034   0.00000  Uiso   1.00
C94    C     0.51662   0.28736   0.44870   0.00000  Uiso   1.00
C95    C     0.49992   0.24799   0.02735   0.00000  Uiso   1.00
C96    C     0.50111   0.24842   0.47305   0.00000  Uiso   1.00
C97    C     0.40160   0.25081   0.23773   0.00000  Uiso   1.00
C98    C     0.59852   0.24973   0.26239   0.00000  Uiso   1.00
C99    C     0.34662   0.25337   0.23111   0.00000  Uiso   1.00
C100   C     0.65372   0.24814   0.26943   0.00000  Uiso   1.00
C101   C     0.44710   0.04730   0.25159   0.00000  Uiso   1.00
C102   C     0.49986   0.45531   0.20737   0.00000  Uiso   1.00
C103   C     0.45019   0.09410   0.25058   0.00000  Uiso   1.00
C104   C     0.49697   0.33492   0.24916   0.00000  Uiso   1.00
C105   C     0.50065   0.40870   0.20646   0.00000  Uiso   1.00
C106   C     0.49798   0.11733   0.25128   0.00000  Uiso   1.00
C107   C     0.49005   0.38320   0.24717   0.00000  Uiso   1.00
C108   C     0.54311   0.09491   0.25333   0.00000  Uiso   1.00
C109   C     0.47200   0.40407   0.28583   0.00000  Uiso   1.00
C110   C     0.54020   0.04875   0.25454   0.00000  Uiso   1.00
C111   C     0.47558   0.45053   0.28860   0.00000  Uiso   1.00
C112   C     0.49212   0.02473   0.25254   0.00000  Uiso   1.00
C113   C     0.48877   0.47588   0.24922   0.00000  Uiso   1.00
C114   C     0.39761   0.02200   0.25397   0.00000  Uiso   1.00
C115   C     0.54295   0.26376   0.05873   0.00000  Uiso   1.00
C116   C     0.51366   0.48262   0.16581   0.00000  Uiso   1.00
C117   C     0.56831   0.31328   0.12797   0.00000  Uiso   1.00
C118   C     0.45473   0.17434   0.36753   0.00000  Uiso   1.00
C119   C     0.42005   0.20047   0.11977   0.00000  Uiso   1.00
C120   C     0.55134   0.32257   0.37816   0.00000  Uiso   1.00
C121   C     0.40848   0.21783   0.01686   0.00000  Uiso   1.00
C122   C     0.52734   0.32994   0.47549   0.00000  Uiso   1.00
C123   C     0.48688   0.20996   0.44495   0.00000  Uiso   1.00
C124   C     0.53828   0.27252   0.10752   0.00000  Uiso   1.00
C125   C     0.48121   0.21295   0.39403   0.00000  Uiso   1.00
C126   C     0.46045   0.22777   0.09961   0.00000  Uiso   1.00
C127   C     0.52102   0.28586   0.39858   0.00000  Uiso   1.00
C128   C     0.45680   0.23146   0.04834   0.00000  Uiso   1.00
Cu129  Cu    0.50000   0.25000   0.29821   0.00000  Uiso   1.00
Cu130  Cu    0.50000   0.25001   0.20178   0.00000  Uiso   1.00
H131   H     0.34617   0.27569   0.16526   0.00000  Uiso   1.00
H132   H     0.46077   0.45076   0.35512   0.00000  Uiso   1.00
H133   H     0.61670   0.27487   0.06782   0.00000  Uiso   1.00
H134   H     0.49477   0.16851   0.49901   0.00000  Uiso   1.00
H135   H     0.60236   0.37318   0.11380   0.00000  Uiso   1.00
H136   H     0.45164   0.10839   0.35607   0.00000  Uiso   1.00
H137   H     0.34543   0.19145   0.12682   0.00000  Uiso   1.00
H138   H     0.56201   0.38837   0.36641   0.00000  Uiso   1.00
H139   H     0.35158   0.17077   0.49870   0.00000  Uiso   1.00
H140   H     0.60231   0.33485   0.46849   0.00000  Uiso   1.00
H141   H     0.65449   0.23455   0.33852   0.00000  Uiso   1.00
H142   H     0.34083   0.00650   0.29334   0.00000  Uiso   1.00
H143   H     0.56246   0.49486   0.11723   0.00000  Uiso   1.00
H144   H     0.37618   0.09927   0.23908   0.00000  Uiso   1.00
H145   H     0.49904   0.40453   0.13689   0.00000  Uiso   1.00
H146   H     0.58892   0.14903   0.25426   0.00000  Uiso   1.00
H147   H     0.42873   0.35427   0.30419   0.00000  Uiso   1.00
H148   H     0.58047   0.49698   0.26686   0.00000  Uiso   1.00
N149   N     0.50000   0.25001   0.12934   0.00000  Uiso   1.00
N150   N     0.50000   0.24999   0.37065   0.00000  Uiso   1.00
O151   O     0.50000   0.18573   0.29071   0.00000  Uiso   1.00
O152   O     0.34571   0.24175   0.31551   0.00000  Uiso   1.00
O153   O     0.38085   0.49464   0.22308   0.00000  Uiso   1.00
O154   O     0.37123   0.02862   0.29279   0.00000  Uiso   1.00
O155   O     0.48745   0.01264   0.14999   0.00000  Uiso   1.00
O156   O     0.55693   0.47405   0.14506   0.00000  Uiso   1.00
O157   O     0.40763   0.11853   0.24806   0.00000  Uiso   1.00
O158   O     0.51093   0.38728   0.16610   0.00000  Uiso   1.00
O159   O     0.59108   0.11653   0.25466   0.00000  Uiso   1.00
O160   O     0.44871   0.38020   0.32015   0.00000  Uiso   1.00
O161   O     0.58553   0.02841   0.25723   0.00000  Uiso   1.00
O162   O     0.50000   0.31428   0.20928   0.00000  Uiso   1.00
O163   O     0.46541   0.47236   0.32889   0.00000  Uiso   1.00
O164   O     0.58855   0.27233   0.04058   0.00000  Uiso   1.00
O165   O     0.47652   0.16907   0.46574   0.00000  Uiso   1.00
O166   O     0.58055   0.31862   0.17098   0.00000  Uiso   1.00
O167   O     0.58237   0.34693   0.09645   0.00000  Uiso   1.00
O168   O     0.41562   0.17866   0.33988   0.00000  Uiso   1.00
O169   O     0.47352   0.13240   0.37557   0.00000  Uiso   1.00
O170   O     0.42922   0.16459   0.13835   0.00000  Uiso   1.00
O171   O     0.37018   0.21373   0.11322   0.00000  Uiso   1.00
O172   O     0.59004   0.31509   0.36161   0.00000  Uiso   1.00
O173   O     0.50000   0.18573   0.20928   0.00000  Uiso   1.00
O174   O     0.53765   0.36618   0.38066   0.00000  Uiso   1.00
O175   O     0.39074   0.24315   0.48548   0.00000  Uiso   1.00
O176   O     0.38384   0.17600   0.02244   0.00000  Uiso   1.00
O177   O     0.49321   0.34558   0.49338   0.00000  Uiso   1.00
O178   O     0.57584   0.35214   0.48138   0.00000  Uiso   1.00
O179   O     0.50000   0.31427   0.29072   0.00000  Uiso   1.00
O180   O     0.42495   0.25000   0.28132   0.00000  Uiso   1.00
O181   O     0.57505   0.25001   0.21868   0.00000  Uiso   1.00
O182   O     0.42495   0.25000   0.19988   0.00000  Uiso   1.00
O183   O     0.57505   0.25000   0.30011   0.00000  Uiso   1.00
O184   O     0.65508   0.26121   0.18534   0.00000  Uiso   1.00
C185   C     0.83305   0.16535   0.25034   0.00000  Uiso   1.00
C186   C     0.84995   0.28736   0.44870   0.00000  Uiso   1.00
C187   C     0.83325   0.24799   0.02735   0.00000  Uiso   1.00
C188   C     0.83444   0.24842   0.47305   0.00000  Uiso   1.00
C189   C     0.73493   0.25081   0.23773   0.00000  Uiso   1.00
C190   C     0.93185   0.24973   0.26239   0.00000  Uiso   1.00
C191   C     0.67995   0.25337   0.23111   0.00000  Uiso   1.00
C192   C     0.98705   0.24814   0.26943   0.00000  Uiso   1.00
C193   C     0.78044   0.04730   0.25159   0.00000  Uiso   1.00
C194   C     0.83319   0.45531   0.20737   0.00000  Uiso   1.00
C195   C     0.78352   0.09410   0.25058   0.00000  Uiso   1.00
C196   C     0.83030   0.33492   0.24916   0.00000  Uiso   1.00
C197   C     0.83398   0.40870   0.20646   0.00000  Uiso   1.00
C198   C     0.83131   0.11733   0.25128   0.00000  Uiso   1.00
C199   C     0.82338   0.38320   0.24717   0.00000  Uiso   1.00
C200   C     0.87644   0.09491   0.25333   0.00000  Uiso   1.00
C201   C     0.80534   0.40407   0.28583   0.00000  Uiso   1.00
C202   C     0.87354   0.04875   0.25454   0.00000  Uiso   1.00
C203   C     0.80891   0.45053   0.28860   0.00000  Uiso   1.00
C204   C     0.82545   0.02473   0.25254   0.00000  Uiso   1.00
C205   C     0.82210   0.47588   0.24922   0.00000  Uiso   1.00
C206   C     0.73094   0.02200   0.25397   0.00000  Uiso   1.00
C207   C     0.87629   0.26376   0.05873   0.00000  Uiso   1.00
C208   C     0.84700   0.48262   0.16581   0.00000  Uiso   1.00
C209   C     0.90165   0.31328   0.12797   0.00000  Uiso   1.00
C210   C     0.78806   0.17434   0.36753   0.00000  Uiso   1.00
C211   C     0.75338   0.20047   0.11977   0.00000  Uiso   1.00
C212   C     0.88467   0.32257   0.37816   0.00000  Uiso   1.00
C213   C     0.74182   0.21783   0.01686   0.00000  Uiso   1.00
C214   C     0.86067   0.32994   0.47549   0.00000  Uiso   1.00
C215   C     0.82022   0.20996   0.44495   0.00000  Uiso   1.00
C216   C     0.87161   0.27252   0.10752   0.00000  Uiso   1.00
C217   C     0.81455   0.21295   0.39403   0.00000  Uiso   1.00
C218   C     0.79378   0.22777   0.09961   0.00000  Uiso   1.00
C219   C     0.85435   0.28586   0.39858   0.00000  Uiso   1.00
C220   C     0.79014   0.23146   0.04834   0.00000  Uiso   1.00
Cu221  Cu    0.83333   0.25000   0.29821   0.00000  Uiso   1.00
Cu222  Cu    0.83333   0.25001   0.20178   0.00000  Uiso   1.00
H223   H     0.67951   0.27569   0.16526   0.00000  Uiso   1.00
H224   H     0.79411   0.45076   0.35512   0.00000  Uiso   1.00
H225   H     0.95004   0.27487   0.06782   0.00000  Uiso   1.00
H226   H     0.82810   0.16851   0.49901   0.00000  Uiso   1.00
H227   H     0.93569   0.37318   0.11380   0.00000  Uiso   1.00
H228   H     0.78497   0.10839   0.35607   0.00000  Uiso   1.00
H229   H     0.67877   0.19145   0.12682   0.00000  Uiso   1.00
H230   H     0.89534   0.38837   0.36641   0.00000  Uiso   1.00
H231   H     0.68491   0.17077   0.49870   0.00000  Uiso   1.00
H232   H     0.93565   0.33485   0.46849   0.00000  Uiso   1.00
H233   H     0.98783   0.23455   0.33852   0.00000  Uiso   1.00
H234   H     0.67416   0.00650   0.29334   0.00000  Uiso   1.00
H235   H     0.89579   0.49486   0.11723   0.00000  Uiso   1.00
H236   H     0.70951   0.09927   0.23908   0.00000  Uiso   1.00
H237   H     0.83237   0.40453   0.13689   0.00000  Uiso   1.00
H238   H     0.92226   0.14903   0.25426   0.00000  Uiso   1.00
H239   H     0.76207   0.35427   0.30419   0.00000  Uiso   1.00
H240   H     0.91380   0.49698   0.26686   0.00000  Uiso   1.00
N241   N     0.83333   0.25001   0.12934   0.00000  Uiso   1.00
N242   N     0.83333   0.24999   0.37065   0.00000  Uiso   1.00
O243   O     0.83334   0.18573   0.29071   0.00000  Uiso   1.00
O244   O     0.67904   0.24175   0.31551   0.00000  Uiso   1.00
O245   O     0.71418   0.49464   0.22308   0.00000  Uiso   1.00
O246   O     0.70456   0.02862   0.29279   0.00000  Uiso   1.00
O247   O     0.82079   0.01264   0.14999   0.00000  Uiso   1.00
O248   O     0.89026   0.47405   0.14506   0.00000  Uiso   1.00
O249   O     0.74096   0.11853   0.24806   0.00000  Uiso   1.00
O250   O     0.84426   0.38728   0.16610   0.00000  Uiso   1.00
O251   O     0.92442   0.11653   0.25466   0.00000  Uiso   1.00
O252   O     0.78204   0.38020   0.32015   0.00000  Uiso   1.00
O253   O     0.91887   0.02841   0.25723   0.00000  Uiso   1.00
O254   O     0.83333   0.31428   0.20928   0.00000  Uiso   1.00
O255   O     0.79874   0.47236   0.32889   0.00000  Uiso   1.00
O256   O     0.92188   0.27233   0.04058   0.00000  Uiso   1.00
O257   O     0.80985   0.16907   0.46574   0.00000  Uiso   1.00
O258   O     0.91388   0.31862   0.17098   0.00000  Uiso   1.00
O259   O     0.91571   0.34693   0.09645   0.00000  Uiso   1.00
O260   O     0.74896   0.17866   0.33988   0.00000  Uiso   1.00
O261   O     0.80686   0.13240   0.37557   0.00000  Uiso   1.00
O262   O     0.76255   0.16459   0.13835   0.00000  Uiso   1.00
O263   O     0.70352   0.21373   0.11322   0.00000  Uiso   1.00
O264   O     0.92337   0.31509   0.36161   0.00000  Uiso   1.00
O265   O     0.83334   0.18573   0.20928   0.00000  Uiso   1.00
O266   O     0.87098   0.36618   0.38066   0.00000  Uiso   1.00
O267   O     0.72408   0.24315   0.48548   0.00000  Uiso   1.00
O268   O     0.71717   0.17600   0.02244   0.00000  Uiso   1.00
O269   O     0.82654   0.34558   0.49338   0.00000  Uiso   1.00
O270   O     0.90917   0.35214   0.48138   0.00000  Uiso   1.00
O271   O     0.83333   0.31427   0.29072   0.00000  Uiso   1.00
O272   O     0.75828   0.25000   0.28132   0.00000  Uiso   1.00
O273   O     0.90839   0.25001   0.21868   0.00000  Uiso   1.00
O274   O     0.75828   0.25000   0.19988   0.00000  Uiso   1.00
O275   O     0.90839   0.25000   0.30011   0.00000  Uiso   1.00
O276   O     0.98841   0.26121   0.18534   0.00000  Uiso   1.00
C277   C     0.16639   0.66535   0.25034   0.00000  Uiso   1.00
C278   C     0.18329   0.78736   0.44870   0.00000  Uiso   1.00
C279   C     0.16658   0.74799   0.02735   0.00000  Uiso   1.00
C280   C     0.16778   0.74842   0.47305   0.00000  Uiso   1.00
C281   C     0.06826   0.75081   0.23773   0.00000  Uiso   1.00
C282   C     0.26518   0.74973   0.26239   0.00000  Uiso   1.00
C283   C     0.01329   0.75337   0.23111   0.00000  Uiso   1.00
C284   C     0.32038   0.74814   0.26943   0.00000  Uiso   1.00
C285   C     0.11377   0.54730   0.25159   0.00000  Uiso   1.00
C286   C     0.16653   0.95531   0.20737   0.00000  Uiso   1.00
C287   C     0.11685   0.59410   0.25058   0.00000  Uiso   1.00
C288   C     0.16363   0.83492   0.24916   0.00000  Uiso   1.00
C289   C     0.16732   0.90870   0.20646   0.00000  Uiso   1.00
C290   C     0.16464   0.61733   0.25128   0.00000  Uiso   1.00
C291   C     0.15672   0.88320   0.24717   0.00000  Uiso   1.00
C292   C     0.20978   0.59491   0.25333   0.00000  Uiso   1.00
C293   C     0.13867   0.90407   0.28583   0.00000  Uiso   1.00
C294   C     0.20687   0.54875   0.25454   0.00000  Uiso   1.00
C295   C     0.14224   0.95053   0.28860   0.00000  Uiso   1.00
C296   C     0.15878   0.52473   0.25254   0.00000  Uiso   1.00
C297   C     0.15544   0.97588   0.24922   0.00000  Uiso   1.00
C298   C     0.06427   0.52200   0.25397   0.00000  Uiso   1.00
C299   C     0.20962   0.76376   0.05873   0.00000  Uiso   1.00
C300   C     0.18033   0.98262   0.16581   0.00000  Uiso   1.00
C301   C     0.23498   0.81328   0.12797   0.00000  Uiso   1.00
C302   C     0.12139   0.67434   0.36753   0.00000  Uiso   1.00
C303   C     0.08671   0.70047   0.11977   0.00000  Uiso   1.00
C304   C     0.21800   0.82257   0.37816   0.00000  Uiso   1.00
C305   C     0.07515   0.71783   0.01686   0.00000  Uiso   1.00
C306   C     0.19401   0.82994   0.47549   0.00000  Uiso   1.00
C307   C     0.15355   0.70996   0.44495   0.00000  Uiso   1.00
C308   C     0.20495   0.77252   0.10752   0.00000  Uiso   1.00
C309   C     0.14788   0.71295   0.39403   0.00000  Uiso   1.00
C310   C     0.12712   0.72777   0.09961   0.00000  Uiso   1.00
C311   C     0.18768   0.78586   0.39858   0.00000  Uiso   1.00
C312   C     0.12347   0.73146   0.04834   0.00000  Uiso   1.00
Cu313  Cu    0.16667   0.75000   0.29821   0.00000  Uiso   1.00
Cu314  Cu    0.16667   0.75001   0.20178   0.00000  Uiso   1.00
H315   H     0.01284   0.77569   0.16526   0.00000  Uiso   1.00
H316   H     0.12744   0.95076   0.35512   0.00000  Uiso   1.00
H317   H     0.28337   0.77487   0.06782   0.00000  Uiso   1.00
H318   H     0.16144   0.66851   0.49901   0.00000  Uiso   1.00
H319   H     0.26903   0.87318   0.11380   0.00000  Uiso   1.00
H320   H     0.11831   0.60839   0.35607   0.00000  Uiso   1.00
H321   H     0.01210   0.69145   0.12682   0.00000  Uiso   1.00
H322   H     0.22867   0.88837   0.36641   0.00000  Uiso   1.00
H323   H     0.01824   0.67077   0.49870   0.00000  Uiso   1.00
H324   H     0.26898   0.83485   0.46849   0.00000  Uiso   1.00
H325   H     0.32116   0.73455   0.33852   0.00000  Uiso   1.00
H326   H     0.00749   0.50650   0.29334   0.00000  Uiso   1.00
H327   H     0.22912   0.99486   0.11723   0.00000  Uiso   1.00
H328   H     0.04284   0.59927   0.23908   0.00000  Uiso   1.00
H329   H     0.16570   0.90453   0.13689   0.00000  Uiso   1.00
H330   H     0.25559   0.64903   0.25426   0.00000  Uiso   1.00
H331   H     0.09540   0.85427   0.30419   0.00000  Uiso   1.00
H332   H     0.24714   0.99698   0.26686   0.00000  Uiso   1.00
N333   N     0.16667   0.75001   0.12934   0.00000  Uiso   1.00
N334   N     0.16667   0.74999   0.37065   0.00000  Uiso   1.00
O335   O     0.16667   0.68573   0.29071   0.00000  Uiso   1.00
O336   O     0.01237   0.74175   0.31551   0.00000  Uiso   1.00
O337   O     0.04751   0.99464   0.22308   0.00000  Uiso   1.00
O338   O     0.03789   0.52862   0.29279   0.00000  Uiso   1.00
O339   O     0.15412   0.51264   0.14999   0.00000  Uiso   1.00
O340   O     0.22359   0.97405   0.14506   0.00000  Uiso   1.00
O341   O     0.07430   0.61853   0.24806   0.00000  Uiso   1.00
O342   O     0.17759   0.88728   0.16610   0.00000  Uiso   1.00
O343   O     0.25775   0.61653   0.25466   0.00000  Uiso   1.00
O344   O     0.11538   0.88020   0.32015   0.00000  Uiso   1.00
O345   O     0.25220   0.52841   0.25723   0.00000  Uiso   1.00
O346   O     0.16666   0.81428   0.20928   0.00000  Uiso   1.00
O347   O     0.13208   0.97236   0.32889   0.00000  Uiso   1.00
O348   O     0.25522   0.77233   0.04058   0.00000  Uiso   1.00
O349   O     0.14319   0.66907   0.46574   0.00000  Uiso   1.00
O350   O     0.24721   0.81862   0.17098   0.00000  Uiso   1.00
O351   O     0.24904   0.84693   0.09645   0.00000  Uiso   1.00
O352   O     0.08229   0.67866   0.33988   0.00000  Uiso   1.00
O353   O     0.14019   0.63240   0.37557   0.00000  Uiso   1.00
O354   O     0.09589   0.66459   0.13835   0.00000  Uiso   1.00
O355   O     0.03685   0.71373   0.11322   0.00000  Uiso   1.00
O356   O     0.25671   0.81509   0.36161   0.00000  Uiso   1.00
O357   O     0.16667   0.68573   0.20928   0.00000  Uiso   1.00
O358   O     0.20432   0.86618   0.38066   0.00000  Uiso   1.00
O359   O     0.05741   0.74315   0.48548   0.00000  Uiso   1.00
O360   O     0.05051   0.67600   0.02244   0.00000  Uiso   1.00
O361   O     0.15987   0.84558   0.49338   0.00000  Uiso   1.00
O362   O     0.24250   0.85214   0.48138   0.00000  Uiso   1.00
O363   O     0.16666   0.81427   0.29072   0.00000  Uiso   1.00
O364   O     0.09161   0.75000   0.28132   0.00000  Uiso   1.00
O365   O     0.24172   0.75001   0.21868   0.00000  Uiso   1.00
O366   O     0.09161   0.75000   0.19988   0.00000  Uiso   1.00
O367   O     0.24172   0.75000   0.30011   0.00000  Uiso   1.00
O368   O     0.32175   0.76121   0.18534   0.00000  Uiso   1.00
C369   C     0.49972   0.66535   0.25034   0.00000  Uiso   1.00
C370   C     0.51662   0.78736   0.44870   0.00000  Uiso   1.00
C371   C     0.49992   0.74799   0.02735   0.00000  Uiso   1.00
C372   C     0.50111   0.74842   0.47305   0.00000  Uiso   1.00
C373   C     0.40160   0.75081   0.23773   0.00000  Uiso   1.00
C374   C     0.59852   0.74973   0.26239   0.00000  Uiso   1.00
C375   C     0.34662   0.75337   0.23111   0.00000  Uiso   1.00
C376   C     0.65372   0.74814   0.26943   0.00000  Uiso   1.00
C377   C     0.44710   0.54730   0.25159   0.00000  Uiso   1.00
C378   C     0.49986   0.95531   0.20737   0.00000  Uiso   1.00
C379   C     0.45019   0.59410   0.25058   0.00000  Uiso   1.00
C380   C     0.49697   0.83492   0.24916   0.00000  Uiso   1.00
C381   C     0.50065   0.90870   0.20646   0.00000  Uiso   1.00
C382   C     0.49798   0.61733   0.25128   0.00000  Uiso   1.00
C383   C     0.49005   0.88320   0.24717   0.00000  Uiso   1.00
C384   C     0.54311   0.59491   0.25333   0.00000  Uiso   1.00
C385   C     0.47200   0.90407   0.28583   0.00000  Uiso   1.00
C386   C     0.54020   0.54875   0.25454   0.00000  Uiso   1.00
C387   C     0.47558   0.95053   0.28860   0.00000  Uiso   1.00
C388   C     0.49212   0.52473   0.25254   0.00000  Uiso   1.00
C389   C     0.48877   0.97588   0.24922   0.00000  Uiso   1.00
C390   C     0.39761   0.52200   0.25397   0.00000  Uiso   1.00
C391   C     0.54295   0.76376   0.05873   0.00000  Uiso   1.00
C392   C     0.51366   0.98262   0.16581   0.00000  Uiso   1.00
C393   C     0.56831   0.81328   0.12797   0.00000  Uiso   1.00
C394   C     0.45473   0.67434   0.36753   0.00000  Uiso   1.00
C395   C     0.42005   0.70047   0.11977   0.00000  Uiso   1.00
C396   C     0.55134   0.82257   0.37816   0.00000  Uiso   1.00
C397   C     0.40848   0.71783   0.01686   0.00000  Uiso   1.00
C398   C     0.52734   0.82994   0.47549   0.00000  Uiso   1.00
C399   C     0.48688   0.70996   0.44495   0.00000  Uiso   1.00
C400   C     0.53828   0.77252   0.10752   0.00000  Uiso   1.00
C401   C     0.48121   0.71295   0.39403   0.00000  Uiso   1.00
C402   C     0.46045   0.72777   0.09961   0.00000  Uiso   1.00
C403   C     0.52102   0.78586   0.39858   0.00000  Uiso   1.00
C404   C     0.45680   0.73146   0.04834   0.00000  Uiso   1.00
Cu405  Cu    0.50000   0.75000   0.29821   0.00000  Uiso   1.00
Cu406  Cu    0.50000   0.75001   0.20178   0.00000  Uiso   1.00
H407   H     0.34617   0.77569   0.16526   0.00000  Uiso   1.00
H408   H     0.46077   0.95076   0.35512   0.00000  Uiso   1.00
H409   H     0.61670   0.77487   0.06782   0.00000  Uiso   1.00
H410   H     0.49477   0.66851   0.49901   0.00000  Uiso   1.00
H411   H     0.60236   0.87318   0.11380   0.00000  Uiso   1.00
H412   H     0.45164   0.60839   0.35607   0.00000  Uiso   1.00
H413   H     0.34543   0.69145   0.12682   0.00000  Uiso   1.00
H414   H     0.56201   0.88837   0.36641   0.00000  Uiso   1.00
H415   H     0.35158   0.67077   0.49870   0.00000  Uiso   1.00
H416   H     0.60231   0.83485   0.46849   0.00000  Uiso   1.00
H417   H     0.65449   0.73455   0.33852   0.00000  Uiso   1.00
H418   H     0.34083   0.50650   0.29334   0.00000  Uiso   1.00
H419   H     0.56246   0.99486   0.11723   0.00000  Uiso   1.00
H420   H     0.37618   0.59927   0.23908   0.00000  Uiso   1.00
H421   H     0.49904   0.90453   0.13689   0.00000  Uiso   1.00
H422   H     0.58892   0.64903   0.25426   0.00000  Uiso   1.00
H423   H     0.42873   0.85427   0.30419   0.00000  Uiso   1.00
H424   H     0.58047   0.99698   0.26686   0.00000  Uiso   1.00
N425   N     0.50000   0.75001   0.12934   0.00000  Uiso   1.00
N426   N     0.50000   0.74999   0.37065   0.00000  Uiso   1.00
O427   O     0.50000   0.68573   0.29071   0.00000  Uiso   1.00
O428   O     0.34571   0.74175   0.31551   0.00000  Uiso   1.00
O429   O     0.38085   0.99464   0.22308   0.00000  Uiso   1.00
O430   O     0.37123   0.52862   0.29279   0.00000  Uiso   1.00
O431   O     0.48745   0.51264   0.14999   0.00000  Uiso   1.00
O432   O     0.55693   0.97405   0.14506   0.00000  Uiso   1.00
O433   O     0.40763   0.61853   0.24806   0.00000  Uiso   1.00
O434   O     0.51093   0.88728   0.16610   0.00000  Uiso   1.00
O435   O     0.59108   0.61653   0.25466   0.00000  Uiso   1.00
O436   O     0.44871   0.88020   0.32015   0.00000  Uiso   1.00
O437   O     0.58553   0.52841   0.25723   0.00000  Uiso   1.00
O438   O     0.50000   0.81428   0.20928   0.00000  Uiso   1.00
O439   O     0.46541   0.97236   0.32889   0.00000  Uiso   1.00
O440   O     0.58855   0.77233   0.04058   0.00000  Uiso   1.00
O441   O     0.47652   0.66907   0.46574   0.00000  Uiso   1.00
O442   O     0.58055   0.81862   0.17098   0.00000  Uiso   1.00
O443   O     0.58237   0.84693   0.09645   0.00000  Uiso   1.00
O444   O     0.41562   0.67866   0.33988   0.00000  Uiso   1.00
O445   O     0.47352   0.63240   0.37557   0.00000  Uiso   1.00
O446   O     0.42922   0.66459   0.13835   0.00000  Uiso   1.00
O447   O     0.37018   0.71373   0.11322   0.00000  Uiso   1.00
O448   O     0.59004   0.81509   0.36161   0.00000  Uiso   1.00
O449   O     0.50000   0.68573   0.20928   0.00000  Uiso   1.00
O450   O     0.53765   0.86618   0.38066   0.00000  Uiso   1.00
O451   O     0.39074   0.74315   0.48548   0.00000  Uiso   1.00
O452   O     0.38384   0.67600   0.02244   0.00000  Uiso   1.00
O453   O     0.49321   0.84558   0.49338   0.00000  Uiso   1.00
O454   O     0.57584   0.85214   0.48138   0.00000  Uiso   1.00
O455   O     0.50000   0.81427   0.29072   0.00000  Uiso   1.00
O456   O     0.42495   0.75000   0.28132   0.00000  Uiso   1.00
O457   O     0.57505   0.75001   0.21868   0.00000  Uiso   1.00
O458   O     0.42495   0.75000   0.19988   0.00000  Uiso   1.00
O459   O     0.57505   0.75000   0.30011   0.00000  Uiso   1.00
O460   O     0.65508   0.76121   0.18534   0.00000  Uiso   1.00
C461   C     0.83305   0.66535   0.25034   0.00000  Uiso   1.00
C462   C     0.84995   0.78736   0.44870   0.00000  Uiso   1.00
C463   C     0.83325   0.74799   0.02735   0.00000  Uiso   1.00
C464   C     0.83444   0.74842   0.47305   0.00000  Uiso   1.00
C465   C     0.73493   0.75081   0.23773   0.00000  Uiso   1.00
C466   C     0.93185   0.74973   0.26239   0.00000  Uiso   1.00
C467   C     0.67995   0.75337   0.23111   0.00000  Uiso   1.00
C468   C     0.98705   0.74814   0.26943   0.00000  Uiso   1.00
C469   C     0.78044   0.54730   0.25159   0.00000  Uiso   1.00
C470   C     0.83319   0.95531   0.20737   0.00000  Uiso   1.00
C471   C     0.78352   0.59410   0.25058   0.00000  Uiso   1.00
C472   C     0.83030   0.83492   0.24916   0.00000  Uiso   1.00
C473   C     0.83398   0.90870   0.20646   0.00000  Uiso   1.00
C474   C     0.83131   0.61733   0.25128   0.00000  Uiso   1.00
C475   C     0.82338   0.88320   0.24717   0.00000  Uiso   1.00
C476   C     0.87644   0.59491   0.25333   0.00000  Uiso   1.00
C477   C     0.80534   0.90407   0.28583   0.00000  Uiso   1.00
C478   C     0.87354   0.54875   0.25454   0.00000  Uiso   1.00
C479   C     0.80891   0.95053   0.28860   0.00000  Uiso   1.00
C480   C     0.82545   0.52473   0.25254   0.00000  Uiso   1.00
C481   C     0.82210   0.97588   0.24922   0.00000  Uiso   1.00
C482   C     0.73094   0.52200   0.25397   0.00000  Uiso   1.00
C483   C     0.87629   0.76376   0.05873   0.00000  Uiso   1.00
C484   C     0.84700   0.98262   0.16581   0.00000  Uiso   1.00
C485   C     0.90165   0.81328   0.12797   0.00000  Uiso   1.00
C486   C     0.78806   0.67434   0.36753   0.00000  Uiso   1.00
C487   C     0.75338   0.70047   0.11977   0.00000  Uiso   1.00
C488   C     0.88467   0.82257   0.37816   0.00000  Uiso   1.00
C489   C     0.74182   0.71783   0.01686   0.00000  Uiso   1.00
C490   C     0.86067   0.82994   0.47549   0.00000  Uiso   1.00
C491   C     0.82022   0.70996   0.44495   0.00000  Uiso   1.00
C492   C     0.87161   0.77252   0.10752   0.00000  Uiso   1.00
C493   C     0.81455   0.71295   0.39403   0.00000  Uiso   1.00
C494   C     0.79378   0.72777   0.09961   0.00000  Uiso   1.00
C495   C     0.85435   0.78586   0.39858   0.00000  Uiso   1.00
C496   C     0.79014   0.73146   0.04834   0.00000  Uiso   1.00
Cu497  Cu    0.83333   0.75000   0.29821   0.00000  Uiso   1.00
Cu498  Cu    0.83333   0.75001   0.20178   0.00000  Uiso   1.00
H499   H     0.67951   0.77569   0.16526   0.00000  Uiso   1.00
H500   H     0.79411   0.95076   0.35512   0.00000  Uiso   1.00
H501   H     0.95004   0.77487   0.06782   0.00000  Uiso   1.00
H502   H     0.82810   0.66851   0.49901   0.00000  Uiso   1.00
H503   H     0.93569   0.87318   0.11380   0.00000  Uiso   1.00
H504   H     0.78497   0.60839   0.35607   0.00000  Uiso   1.00
H505   H     0.67877   0.69145   0.12682   0.00000  Uiso   1.00
H506   H     0.89534   0.88837   0.36641   0.00000  Uiso   1.00
H507   H     0.68491   0.67077   0.49870   0.00000  Uiso   1.00
H508   H     0.93565   0.83485   0.46849   0.00000  Uiso   1.00
H509   H     0.98783   0.73455   0.33852   0.00000  Uiso   1.00
H510   H     0.67416   0.50650   0.29334   0.00000  Uiso   1.00
H511   H     0.89579   0.99486   0.11723   0.00000  Uiso   1.00
H512   H     0.70951   0.59927   0.23908   0.00000  Uiso   1.00
H513   H     0.83237   0.90453   0.13689   0.00000  Uiso   1.00
H514   H     0.92226   0.64903   0.25426   0.00000  Uiso   1.00
H515   H     0.76207   0.85427   0.30419   0.00000  Uiso   1.00
H516   H     0.91380   0.99698   0.26686   0.00000  Uiso   1.00
N517   N     0.83333   0.75001   0.12934   0.00000  Uiso   1.00
N518   N     0.83333   0.74999   0.37065   0.00000  Uiso   1.00
O519   O     0.83334   0.68573   0.29071   0.00000  Uiso   1.00
O520   O     0.67904   0.74175   0.31551   0.00000  Uiso   1.00
O521   O     0.71418   0.99464   0.22308   0.00000  Uiso   1.00
O522   O     0.70456   0.52862   0.29279   0.00000  Uiso   1.00
O523   O     0.82079   0.51264   0.14999   0.00000  Uiso   1.00
O524   O     0.89026   0.97405   0.14506   0.00000  Uiso   1.00
O525   O     0.74096   0.61853   0.24806   0.00000  Uiso   1.00
O526   O     0.84426   0.88728   0.16610   0.00000  Uiso   1.00
O527   O     0.92442   0.61653   0.25466   0.00000  Uiso   1.00
O528   O     0.78204   0.88020   0.32015   0.00000  Uiso   1.00
O529   O     0.91887   0.52841   0.25723   0.00000  Uiso   1.00
O530   O     0.83333   0.81428   0.20928   0.00000  Uiso   1.00
O531   O     0.79874   0.97236   0.32889   0.00000  Uiso   1.00
O532   O     0.92188   0.77233   0.04058   0.00000  Uiso   1.00
O533   O     0.80985   0.66907   0.46574   0.00000  Uiso   1.00
O534   O     0.91388   0.81862   0.17098   0.00000  Uiso   1.00
O535   O     0.91571   0.84693   0.09645   0.00000  Uiso   1.00
O536   O     0.74896   0.67866   0.33988   0.00000  Uiso   1.00
O537   O     0.80686   0.63240   0.37557   0.00000  Uiso   1.00
O538   O     0.76255   0.66459   0.13835   0.00000  Uiso   1.00
O539   O     0.70352   0.71373   0.11322   0.00000  Uiso   1.00
O540   O     0.92337   0.81509   0.36161   0.00000  Uiso   1.00
O541   O     0.83334   0.68573   0.20928   0.00000  Uiso   1.00
O542   O     0.87098   0.86618   0.38066   0.00000  Uiso   1.00
O543   O     0.72408   0.74315   0.48548   0.00000  Uiso   1.00
O544   O     0.71717   0.67600   0.02244   0.00000  Uiso   1.00
O545   O     0.82654   0.84558   0.49338   0.00000  Uiso   1.00
O546   O     0.90917   0.85214   0.48138   0.00000  Uiso   1.00
O547   O     0.83333   0.81427   0.29072   0.00000  Uiso   1.00
O548   O     0.75828   0.75000   0.28132   0.00000  Uiso   1.00
O549   O     0.90839   0.75001   0.21868   0.00000  Uiso   1.00
O550   O     0.75828   0.75000   0.19988   0.00000  Uiso   1.00
O551   O     0.90839   0.75000   0.30011   0.00000  Uiso   1.00
O552   O     0.98841   0.76121   0.18534   0.00000  Uiso   1.00
C553   C     0.16639   0.16535   0.75034   0.00000  Uiso   1.00
C554   C     0.18329   0.28736   0.94870   0.00000  Uiso   1.00
C555   C     0.16658   0.24799   0.52735   0.00000  Uiso   1.00
C556   C     0.16778   0.24842   0.97305   0.00000  Uiso   1.00
C557   C     0.06826   0.25081   0.73773   0.00000  Uiso   1.00
C558   C     0.26518   0.24973   0.76239   0.00000  Uiso   1.00
C559   C     0.01329   0.25337   0.73111   0.00000  Uiso   1.00
C560   C     0.32038   0.24814   0.76943   0.00000  Uiso   1.00
C561   C     0.11377   0.04730   0.75159   0.00000  Uiso   1.00
C562   C     0.16653   0.45531   0.70737   0.00000  Uiso   1.00
C563   C     0.11685   0.09410   0.75058   0.00000  Uiso   1.00
C564   C     0.16363   0.33492   0.74916   0.00000  Uiso   1.00
C565   C     0.16732   0.40870   0.70646   0.00000  Uiso   1.00
C566   C     0.16464   0.11733   0.75128   0.00000  Uiso   1.00
C567   C     0.15672   0.38320   0.74717   0.00000  Uiso   1.00
C568   C     0.20978   0.09491   0.75333   0.00000  Uiso   1.00
C569   C     0.13867   0.40407   0.78583   0.00000  Uiso   1.00
C570   C     0.20687   0.04875   0.75454   0.00000  Uiso   1.00
C571   C     0.14224   0.45053   0.78860   0.00000  Uiso   1.00
C572   C     0.15878   0.02473   0.75254   0.00000  Uiso   1.00
C573   C     0.15544   0.47588   0.74922   0.00000  Uiso   1.00
C574   C     0.06427   0.02200   0.75397   0.00000  Uiso   1.00
C575   C     0.20962   0.26376   0.55873   0.00000  Uiso   1.00
C576   C     0.18033   0.48262   0.66581   0.00000  Uiso   1.00
C577   C     0.23498   0.31328   0.62797   0.00000  Uiso   1.00
C578   C     0.12139   0.17434   0.86753   0.00000  Uiso   1.00
C579   C     0.08671   0.20047   0.61977   0.00000  Uiso   1.00
C580   C     0.21800   0.32257   0.87816   0.00000  Uiso   1.00
C581   C     0.07515   0.21783   0.51686   0.00000  Uiso   1.00
C582   C     0.19401   0.32994   0.97549   0.00000  Uiso   1.00
C583   C     0.15355   0.20996   0.94495   0.00000  Uiso   1.00
C584   C     0.20495   0.27252   0.60752   0.00000  Uiso   1.00
C585   C     0.14788   0.21295   0.89403   0.00000  Uiso   1.00
C586   C     0.12712   0.22777   0.59961   0.00000  Uiso   1.00
C587   C     0.18768   0.28586   0.89858   0.00000  Uiso   1.00
C588   C     0.12347   0.23146   0.54834   0.00000  Uiso   1.00
Cu589  Cu    0.16667   0.25000   0.79821   0.00000  Uiso   1.00
Cu590  Cu    0.16667   0.25001   0.70178   0.00000  Uiso   1.00
H591   H     0.01284   0.27569   0.66526   0.00000  Uiso   1.00
H592   H     0.12744   0.45076   0.85512   0.00000  Uiso   1.00
H593   H     0.28337   0.27487   0.56782   0.00000  Uiso   1.00
H594   H     0.16144   0.16851   0.99901   0.00000  Uiso   1.00
H595   H     0.26903   0.37318   0.61380   0.00000  Uiso   1.00
H596   H     0.11831   0.10839   0.85607   0.00000  Uiso   1.00
H597   H     0.01210   0.19145   0.62682   0.00000  Uiso   1.00
H598   H     0.22867   0.38837   0.86641   0.00000  Uiso   1.00
H599   H     0.01824   0.17077   0.99870   0.00000  Uiso   1.00
H600   H     0.26898   0.33485   0.96849   0.00000  Uiso   1.00
H601   H     0.32116   0.23455   0.83852   0.00000  Uiso   1.00
H602   H     0.00749   0.00650   0.79334   0.00000  Uiso   1.00
H603   H     0.22912   0.49486   0.61723   0.00000  Uiso   1.00
H604   H     0.04284   0.09927   0.73908   0.00000  Uiso   1.00
H605   H     0.16570   0.40453   0.63689   0.00000  Uiso   1.00
H606   H     0.25559   0.14903   0.75426   0.00000  Uiso   1.00
H607   H     0.09540   0.35427   0.80419   0.00000  Uiso   1.00
H608   H     0.24714   0.49698   0.76686   0.00000  Uiso   1.00
N609   N     0.16667   0.25001   0.62934   0.00000  Uiso   1.00
N610   N     0.16667   0.24999   0.87065   0.00000  Uiso   1.00
O611   O     0.16667   0.18573   0.79071   0.00000  Uiso   1.00
O612   O     0.01237   0.24175   0.81551   0.00000  Uiso   1.00
O613   O     0.04751   0.49464   0.72308   0.00000  Uiso   1.00
O614   O     0.03789   0.02862   0.79279   0.00000  Uiso   1.00
O615   O     0.15412   0.01264   0.64999   0.00000  Uiso   1.00
O616   O     0.22359   0.47405   0.64506   0.00000  Uiso   1.00
O617   O     0.07430   0.11853   0.74806   0.00000  Uiso   1.00
O618   O     0.17759   0.38728   0.66610   0.00000  Uiso   1.00
O619   O     0.25775   0.11653   0.75466   0.00000  Uiso   1.00
O620   O     0.11538   0.38020   0.82015   0.00000  Uiso   1.00
O621   O     0.25220   0.02841   0.75723   0.00000  Uiso   1.00
O622   O     0.16666   0.31428   0.70928   0.00000  Uiso   1.00
O623   O     0.13208   0.47236   0.82889   0.00000  Uiso   1.00
O624   O     0.25522   0.27233   0.54058   0.00000  Uiso   1.00
O625   O     0.14319   0.16907   0.96574   0.00000  Uiso   1.00
O626   O     0.24721   0.31862   0.67098   0.00000  Uiso   1.00
O627   O     0.24904   0.34693   0.59645   0.00000  Uiso   1.00
O628   O     0.08229   0.17866   0.83988   0.00000  Uiso   1.00
O629   O     0.14019   0.13240   0.87557   0.00000  Uiso   1.00
O630   O     0.09589   0.16459   0.63835   0.00000  Uiso   1.00
O631   O     0.03685   0.21373   0.61322   0.00000  Uiso   1.00
O632   O     0.25671   0.31509   0.86161   0.00000  Uiso   1.00
O633   O     0.16667   0.18573   0.70928   0.00000  Uiso   1.00
O634   O     0.20432   0.36618   0.88066   0.00000  Uiso   1.00
O635   O     0.05741   0.24315   0.98548   0.00000  Uiso   1.00
O636   O     0.05051   0.17600   0.52244   0.00000  Uiso   1.00
O637   O     0.15987   0.34558   0.99338   0.00000  Uiso   1.00
O638   O     0.24250   0.35214   0.98138   0.00000  Uiso   1.00
O639   O     0.16666   0.31427   0.79072   0.00000  Uiso   1.00
O640   O     0.09161   0.25000   0.78132   0.00000  Uiso   1.00
O641   O     0.24172   0.25001   0.71868   0.00000  Uiso   1.00
O642   O     0.09161   0.25000   0.69988   0.00000  Uiso   1.00
O643   O     0.24172   0.25000   0.80011   0.00000  Uiso   1.00
O644   O     0.32175   0.26121   0.68534   0.00000  Uiso   1.00
C645   C     0.49972   0.16535   0.75034   0.00000  Uiso   1.00
C646   C     0.51662   0.28736   0.94870   0.00000  Uiso   1.00
C647   C     0.49992   0.24799   0.52735   0.00000  Uiso   1.00
C648   C     0.50111   0.24842   0.97305   0.00000  Uiso   1.00
C649   C     0.40160   0.25081   0.73773   0.00000  Uiso   1.00
C650   C     0.59852   0.24973   0.76239   0.00000  Uiso   1.00
C651   C     0.34662   0.25337   0.73111   0.00000  Uiso   1.00
C652   C     0.65372   0.24814   0.76943   0.00000  Uiso   1.00
C653   C     0.44710   0.04730   0.75159   0.00000  Uiso   1.00
C654   C     0.49986   0.45531   0.70737   0.00000  Uiso   1.00
C655   C     0.45019   0.09410   0.75058   0.00000  Uiso   1.00
C656   C     0.49697   0.33492   0.74916   0.00000  Uiso   1.00
C657   C     0.50065   0.40870   0.70646   0.00000  Uiso   1.00
C658   C     0.49798   0.11733   0.75128   0.00000  Uiso   1.00
C659   C     0.49005   0.38320   0.74717   0.00000  Uiso   1.00
C660   C     0.54311   0.09491   0.75333   0.00000  Uiso   1.00
C661   C     0.47200   0.40407   0.78583   0.00000  Uiso   1.00
C662   C     0.54020   0.04875   0.75454   0.00000  Uiso   1.00
C663   C     0.47558   0.45053   0.78860   0.00000  Uiso   1.00
C664   C     0.49212   0.02473   0.75254   0.00000  Uiso   1.00
C665   C     0.48877   0.47588   0.74922   0.00000  Uiso   1.00
C666   C     0.39761   0.02200   0.75397   0.00000  Uiso   1.00
C667   C     0.54295   0.26376   0.55873   0.00000  Uiso   1.00
C668   C     0.51366   0.48262   0.66581   0.00000  Uiso   1.00
C669   C     0.56831   0.31328   0.62797   0.00000  Uiso   1.00
C670   C     0.45473   0.17434   0.86753   0.00000  Uiso   1.00
C671   C     0.42005   0.20047   0.61977   0.00000  Uiso   1.00
C672   C     0.55134   0.32257   0.87816   0.00000  Uiso   1.00
C673   C     0.40848   0.21783   0.51686   0.00000  Uiso   1.00
C674   C     0.52734   0.32994   0.97549   0.00000  Uiso   1.00
C675   C     0.48688   0.20996   0.94495   0.00000  Uiso   1.00
C676   C     0.53828   0.27252   0.60752   0.00000  Uiso   1.00
C677   C     0.48121   0.21295   0.89403   0.00000  Uiso   1.00
C678   C     0.46045   0.22777   0.59961   0.00000  Uiso   1.00
C679   C     0.52102   0.28586   0.89858   0.00000  Uiso   1.00
C680   C     0.45680   0.23146   0.54834   0.00000  Uiso   1.00
Cu681  Cu    0.50000   0.25000   0.79821   0.00000  Uiso   1.00
Cu682  Cu    0.50000   0.25001   0.70178   0.00000  Uiso   1.00
H683   H     0.34617   0.27569   0.66526   0.00000  Uiso   1.00
H684   H     0.46077   0.45076   0.85512   0.00000  Uiso   1.00
H685   H     0.61670   0.27487   0.56782   0.00000  Uiso   1.00
H686   H     0.49477   0.16851   0.99901   0.00000  Uiso   1.00
H687   H     0.60236   0.37318   0.61380   0.00000  Uiso   1.00
H688   H     0.45164   0.10839   0.85607   0.00000  Uiso   1.00
H689   H     0.34543   0.19145   0.62682   0.00000  Uiso   1.00
H690   H     0.56201   0.38837   0.86641   0.00000  Uiso   1.00
H691   H     0.35158   0.17077   0.99870   0.00000  Uiso   1.00
H692   H     0.60231   0.33485   0.96849   0.00000  Uiso   1.00
H693   H     0.65449   0.23455   0.83852   0.00000  Uiso   1.00
H694   H     0.34083   0.00650   0.79334   0.00000  Uiso   1.00
H695   H     0.56246   0.49486   0.61723   0.00000  Uiso   1.00
H696   H     0.37618   0.09927   0.73908   0.00000  Uiso   1.00
H697   H     0.49904   0.40453   0.63689   0.00000  Uiso   1.00
H698   H     0.58892   0.14903   0.75426   0.00000  Uiso   1.00
H699   H     0.42873   0.35427   0.80419   0.00000  Uiso   1.00
H700   H     0.58047   0.49698   0.76686   0.00000  Uiso   1.00
N701   N     0.50000   0.25001   0.62934   0.00000  Uiso   1.00
N702   N     0.50000   0.24999   0.87065   0.00000  Uiso   1.00
O703   O     0.50000   0.18573   0.79071   0.00000  Uiso   1.00
O704   O     0.34571   0.24175   0.81551   0.00000  Uiso   1.00
O705   O     0.38085   0.49464   0.72308   0.00000  Uiso   1.00
O706   O     0.37123   0.02862   0.79279   0.00000  Uiso   1.00
O707   O     0.48745   0.01264   0.64999   0.00000  Uiso   1.00
O708   O     0.55693   0.47405   0.64506   0.00000  Uiso   1.00
O709   O     0.40763   0.11853   0.74806   0.00000  Uiso   1.00
O710   O     0.51093   0.38728   0.66610   0.00000  Uiso   1.00
O711   O     0.59108   0.11653   0.75466   0.00000  Uiso   1.00
O712   O     0.44871   0.38020   0.82015   0.00000  Uiso   1.00
O713   O     0.58553   0.02841   0.75723   0.00000  Uiso   1.00
O714   O     0.50000   0.31428   0.70928   0.00000  Uiso   1.00
O715   O     0.46541   0.47236   0.82889   0.00000  Uiso   1.00
O716   O     0.58855   0.27233   0.54058   0.00000  Uiso   1.00
O717   O     0.47652   0.16907   0.96574   0.00000  Uiso   1.00
O718   O     0.58055   0.31862   0.67098   0.00000  Uiso   1.00
O719   O     0.58237   0.34693   0.59645   0.00000  Uiso   1.00
O720   O     0.41562   0.17866   0.83988   0.00000  Uiso   1.00
O721   O     0.47352   0.13240   0.87557   0.00000  Uiso   1.00
O722   O     0.42922   0.16459   0.63835   0.00000  Uiso   1.00
O723   O     0.37018   0.21373   0.61322   0.00000  Uiso   1.00
O724   O     0.59004   0.31509   0.86161   0.00000  Uiso   1.00
O725   O     0.50000   0.18573   0.70928   0.00000  Uiso   1.00
O726   O     0.53765   0.36618   0.88066   0.00000  Uiso   1.00
O727   O     0.39074   0.24315   0.98548   0.00000  Uiso   1.00
O728   O     0.38384   0.17600   0.52244   0.00000  Uiso   1.00
O729   O     0.49321   0.34558   0.99338   0.00000  Uiso   1.00
O730   O     0.57584   0.35214   0.98138   0.00000  Uiso   1.00
O731   O     0.50000   0.31427   0.79072   0.00000  Uiso   1.00
O732   O     0.42495   0.25000   0.78132   0.00000  Uiso   1.00
O733   O     0.57505   0.25001   0.71868   0.00000  Uiso   1.00
O734   O     0.42495   0.25000   0.69988   0.00000  Uiso   1.00
O735   O     0.57505   0.25000   0.80011   0.00000  Uiso   1.00
O736   O     0.65508   0.26121   0.68534   0.00000  Uiso   1.00
C737   C     0.83305   0.16535   0.75034   0.00000  Uiso   1.00
C738   C     0.84995   0.28736   0.94870   0.00000  Uiso   1.00
C739   C     0.83325   0.24799   0.52735   0.00000  Uiso   1.00
C740   C     0.83444   0.24842   0.97305   0.00000  Uiso   1.00
C741   C     0.73493   0.25081   0.73773   0.00000  Uiso   1.00
C742   C     0.93185   0.24973   0.76239   0.00000  Uiso   1.00
C743   C     0.67995   0.25337   0.73111   0.00000  Uiso   1.00
C744   C     0.98705   0.24814   0.76943   0.00000  Uiso   1.00
C745   C     0.78044   0.04730   0.75159   0.00000  Uiso   1.00
C746   C     0.83319   0.45531   0.70737   0.00000  Uiso   1.00
C747   C     0.78352   0.09410   0.75058   0.00000  Uiso   1.00
C748   C     0.83030   0.33492   0.74916   0.00000  Uiso   1.00
C749   C     0.83398   0.40870   0.70646   0.00000  Uiso   1.00
C750   C     0.83131   0.11733   0.75128   0.00000  Uiso   1.00
C751   C     0.82338   0.38320   0.74717   0.00000  Uiso   1.00
C752   C     0.87644   0.09491   0.75333   0.00000  Uiso   1.00
C753   C     0.80534   0.40407   0.78583   0.00000  Uiso   1.00
C754   C     0.87354   0.04875   0.75454   0.00000  Uiso   1.00
C755   C     0.80891   0.45053   0.78860   0.00000  Uiso   1.00
C756   C     0.82545   0.02473   0.75254   0.00000  Uiso   1.00
C757   C     0.82210   0.47588   0.74922   0.00000  Uiso   1.00
C758   C     0.73094   0.02200   0.75397   0.00000  Uiso   1.00
C759   C     0.87629   0.26376   0.55873   0.00000  Uiso   1.00
C760   C     0.84700   0.48262   0.66581   0.00000  Uiso   1.00
C761   C     0.90165   0.31328   0.62797   0.00000  Uiso   1.00
C762   C     0.78806   0.17434   0.86753   0.00000  Uiso   1.00
C763   C     0.75338   0.20047   0.61977   0.00000  Uiso   1.00
C764   C     0.88467   0.32257   0.87816   0.00000  Uiso   1.00
C765   C     0.74182   0.21783   0.51686   0.00000  Uiso   1.00
C766   C     0.86067   0.32994   0.97549   0.00000  Uiso   1.00
C767   C     0.82022   0.20996   0.94495   0.00000  Uiso   1.00
C768   C     0.87161   0.27252   0.60752   0.00000  Uiso   1.00
C769   C     0.81455   0.21295   0.89403   0.00000  Uiso   1.00
C770   C     0.79378   0.22777   0.59961   0.00000  Uiso   1.00
C771   C     0.85435   0.28586   0.89858   0.00000  Uiso   1.00
C772   C     0.79014   0.23146   0.54834   0.00000  Uiso   1.00
Cu773  Cu    0.83333   0.25000   0.79821   0.00000  Uiso   1.00
Cu774  Cu    0.83333   0.25001   0.70178   0.00000  Uiso   1.00
H775   H     0.67951   0.27569   0.66526   0.00000  Uiso   1.00
H776   H     0.79411   0.45076   0.85512   0.00000  Uiso   1.00
H777   H     0.95004   0.27487   0.56782   0.00000  Uiso   1.00
H778   H     0.82810   0.16851   0.99901   0.00000  Uiso   1.00
H779   H     0.93569   0.37318   0.61380   0.00000  Uiso   1.00
H780   H     0.78497   0.10839   0.85607   0.00000  Uiso   1.00
H781   H     0.67877   0.19145   0.62682   0.00000  Uiso   1.00
H782   H     0.89534   0.38837   0.86641   0.00000  Uiso   1.00
H783   H     0.68491   0.17077   0.99870   0.00000  Uiso   1.00
H784   H     0.93565   0.33485   0.96849   0.00000  Uiso   1.00
H785   H     0.98783   0.23455   0.83852   0.00000  Uiso   1.00
H786   H     0.67416   0.00650   0.79334   0.00000  Uiso   1.00
H787   H     0.89579   0.49486   0.61723   0.00000  Uiso   1.00
H788   H     0.70951   0.09927   0.73908   0.00000  Uiso   1.00
H789   H     0.83237   0.40453   0.63689   0.00000  Uiso   1.00
H790   H     0.92226   0.14903   0.75426   0.00000  Uiso   1.00
H791   H     0.76207   0.35427   0.80419   0.00000  Uiso   1.00
H792   H     0.91380   0.49698   0.76686   0.00000  Uiso   1.00
N793   N     0.83333   0.25001   0.62934   0.00000  Uiso   1.00
N794   N     0.83333   0.24999   0.87065   0.00000  Uiso   1.00
O795   O     0.83334   0.18573   0.79071   0.00000  Uiso   1.00
O796   O     0.67904   0.24175   0.81551   0.00000  Uiso   1.00
O797   O     0.71418   0.49464   0.72308   0.00000  Uiso   1.00
O798   O     0.70456   0.02862   0.79279   0.00000  Uiso   1.00
O799   O     0.82079   0.01264   0.64999   0.00000  Uiso   1.00
O800   O     0.89026   0.47405   0.64506   0.00000  Uiso   1.00
O801   O     0.74096   0.11853   0.74806   0.00000  Uiso   1.00
O802   O     0.84426   0.38728   0.66610   0.00000  Uiso   1.00
O803   O     0.92442   0.11653   0.75466   0.00000  Uiso   1.00
O804   O     0.78204   0.38020   0.82015   0.00000  Uiso   1.00
O805   O     0.91887   0.02841   0.75723   0.00000  Uiso   1.00
O806   O     0.83333   0.31428   0.70928   0.00000  Uiso   1.00
O807   O     0.79874   0.47236   0.82889   0.00000  Uiso   1.00
O808   O     0.92188   0.27233   0.54058   0.00000  Uiso   1.00
O809   O     0.80985   0.16907   0.96574   0.00000  Uiso   1.00
O810   O     0.91388   0.31862   0.67098   0.00000  Uiso   1.00
O811   O     0.91571   0.34693   0.59645   0.00000  Uiso   1.00
O812   O     0.74896   0.17866   0.83988   0.00000  Uiso   1.00
O813   O     0.80686   0.13240   0.87557   0.00000  Uiso   1.00
O814   O     0.76255   0.16459   0.63835   0.00000  Uiso   1.00
O815   O     0.70352   0.21373   0.61322   0.00000  Uiso   1.00
O816   O     0.92337   0.31509   0.86161   0.00000  Uiso   1.00
O817   O     0.83334   0.18573   0.70928   0.00000  Uiso   1.00
O818   O     0.87098   0.36618   0.88066   0.00000  Uiso   1.00
O819   O     0.72408   0.24315   0.98548   0.00000  Uiso   1.00
O820   O     0.71717   0.17600   0.52244   0.00000  Uiso   1.00
O821   O     0.82654   0.34558   0.99338   0.00000  Uiso   1.00
O822   O     0.90917   0.35214   0.98138   0.00000  Uiso   1.00
O823   O     0.83333   0.31427   0.79072   0.00000  Uiso   1.00
O824   O     0.75828   0.25000   0.78132   0.00000  Uiso   1.00
O825   O     0.90839   0.25001   0.71868   0.00000  Uiso   1.00
O826   O     0.75828   0.25000   0.69988   0.00000  Uiso   1.00
O827   O     0.90839   0.25000   0.80011   0.00000  Uiso   1.00
O828   O     0.98841   0.26121   0.68534   0.00000  Uiso   1.00
C829   C     0.16639   0.66535   0.75034   0.00000  Uiso   1.00
C830   C     0.18329   0.78736   0.94870   0.00000  Uiso   1.00
C831   C     0.16658   0.74799   0.52735   0.00000  Uiso   1.00
C832   C     0.16778   0.74842   0.97305   0.00000  Uiso   1.00
C833   C     0.06826   0.75081   0.73773   0.00000  Uiso   1.00
C834   C     0.26518   0.74973   0.76239   0.00000  Uiso   1.00
C835   C     0.01329   0.75337   0.73111   0.00000  Uiso   1.00
C836   C     0.32038   0.74814   0.76943   0.00000  Uiso   1.00
C837   C     0.11377   0.54730   0.75159   0.00000  Uiso   1.00
C838   C     0.16653   0.95531   0.70737   0.00000  Uiso   1.00
C839   C     0.11685   0.59410   0.75058   0.00000  Uiso   1.00
C840   C     0.16363   0.83492   0.74916   0.00000  Uiso   1.00
C841   C     0.16732   0.90870   0.70646   0.00000  Uiso   1.00
C842   C     0.16464   0.61733   0.75128   0.00000  Uiso   1.00
C843   C     0.15672   0.88320   0.74717   0.00000  Uiso   1.00
C844   C     0.20978   0.59491   0.75333   0.00000  Uiso   1.00
C845   C     0.13867   0.90407   0.78583   0.00000  Uiso   1.00
C846   C     0.20687   0.54875   0.75454   0.00000  Uiso   1.00
C847   C     0.14224   0.95053   0.78860   0.00000  Uiso   1.00
C848   C     0.15878   0.52473   0.75254   0.00000  Uiso   1.00
C849   C     0.15544   0.97588   0.74922   0.00000  Uiso   1.00
C850   C     0.06427   0.52200   0.75397   0.00000  Uiso   1.00
C851   C     0.20962   0.76376   0.55873   0.00000  Uiso   1.00
C852   C     0.18033   0.98262   0.66581   0.00000  Uiso   1.00
C853   C     0.23498   0.81328   0.62797   0.00000  Uiso   1.00
C854   C     0.12139   0.67434   0.86753   0.00000  Uiso   1.00
C855   C     0.08671   0.70047   0.61977   0.00000  Uiso   1.00
C856   C     0.21800   0.82257   0.87816   0.00000  Uiso   1.00
C857   C     0.07515   0.71783   0.51686   0.00000  Uiso   1.00
C858   C     0.19401   0.82994   0.97549   0.00000  Uiso   1.00
C859   C     0.15355   0.70996   0.94495   0.00000  Uiso   1.00
C860   C     0.20495   0.77252   0.60752   0.00000  Uiso   1.00
C861   C     0.14788   0.71295   0.89403   0.00000  Uiso   1.00
C862   C     0.12712   0.72777   0.59961   0.00000  Uiso   1.00
C863   C     0.18768   0.78586   0.89858   0.00000  Uiso   1.00
C864   C     0.12347   0.73146   0.54834   0.00000  Uiso   1.00
Cu865  Cu    0.16667   0.75000   0.79821   0.00000  Uiso   1.00
Cu866  Cu    0.16667   0.75001   0.70178   0.00000  Uiso   1.00
H867   H     0.01284   0.77569   0.66526   0.00000  Uiso   1.00
H868   H     0.12744   0.95076   0.85512   0.00000  Uiso   1.00
H869   H     0.28337   0.77487   0.56782   0.00000  Uiso   1.00
H870   H     0.16144   0.66851   0.99901   0.00000  Uiso   1.00
H871   H     0.26903   0.87318   0.61380   0.00000  Uiso   1.00
H872   H     0.11831   0.60839   0.85607   0.00000  Uiso   1.00
H873   H     0.01210   0.69145   0.62682   0.00000  Uiso   1.00
H874   H     0.22867   0.88837   0.86641   0.00000  Uiso   1.00
H875   H     0.01824   0.67077   0.99870   0.00000  Uiso   1.00
H876   H     0.26898   0.83485   0.96849   0.00000  Uiso   1.00
H877   H     0.32116   0.73455   0.83852   0.00000  Uiso   1.00
H878   H     0.00749   0.50650   0.79334   0.00000  Uiso   1.00
H879   H     0.22912   0.99486   0.61723   0.00000  Uiso   1.00
H880   H     0.04284   0.59927   0.73908   0.00000  Uiso   1.00
H881   H     0.16570   0.90453   0.63689   0.00000  Uiso   1.00
H882   H     0.25559   0.64903   0.75426   0.00000  Uiso   1.00
H883   H     0.09540   0.85427   0.80419   0.00000  Uiso   1.00
H884   H     0.24714   0.99698   0.76686   0.00000  Uiso   1.00
N885   N     0.16667   0.75001   0.62934   0.00000  Uiso   1.00
N886   N     0.16667   0.74999   0.87065   0.00000  Uiso   1.00
O887   O     0.16667   0.68573   0.79071   0.00000  Uiso   1.00
O888   O     0.01237   0.74175   0.81551   0.00000  Uiso   1.00
O889   O     0.04751   0.99464   0.72308   0.00000  Uiso   1.00
O890   O     0.03789   0.52862   0.79279   0.00000  Uiso   1.00
O891   O     0.15412   0.51264   0.64999   0.00000  Uiso   1.00
O892   O     0.22359   0.97405   0.64506   0.00000  Uiso   1.00
O893   O     0.07430   0.61853   0.74806   0.00000  Uiso   1.00
O894   O     0.17759   0.88728   0.66610   0.00000  Uiso   1.00
O895   O     0.25775   0.61653   0.75466   0.00000  Uiso   1.00
O896   O     0.11538   0.88020   0.82015   0.00000  Uiso   1.00
O897   O     0.25220   0.52841   0.75723   0.00000  Uiso   1.00
O898   O     0.16666   0.81428   0.70928   0.00000  Uiso   1.00
O899   O     0.13208   0.97236   0.82889   0.00000  Uiso   1.00
O900   O     0.25522   0.77233   0.54058   0.00000  Uiso   1.00
O901   O     0.14319   0.66907   0.96574   0.00000  Uiso   1.00
O902   O     0.24721   0.81862   0.67098   0.00000  Uiso   1.00
O903   O     0.24904   0.84693   0.59645   0.00000  Uiso   1.00
O904   O     0.08229   0.67866   0.83988   0.00000  Uiso   1.00
O905   O     0.14019   0.63240   0.87557   0.00000  Uiso   1.00
O906   O     0.09589   0.66459   0.63835   0.00000  Uiso   1.00
O907   O     0.03685   0.71373   0.61322   0.00000  Uiso   1.00
O908   O     0.25671   0.81509   0.86161   0.00000  Uiso   1.00
O909   O     0.16667   0.68573   0.70928   0.00000  Uiso   1.00
O910   O     0.20432   0.86618   0.88066   0.00000  Uiso   1.00
O911   O     0.05741   0.74315   0.98548   0.00000  Uiso   1.00
O912   O     0.05051   0.67600   0.52244   0.00000  Uiso   1.00
O913   O     0.15987   0.84558   0.99338   0.00000  Uiso   1.00
O914   O     0.24250   0.85214   0.98138   0.00000  Uiso   1.00
O915   O     0.16666   0.81427   0.79072   0.00000  Uiso   1.00
O916   O     0.09161   0.75000   0.78132   0.00000  Uiso   1.00
O917   O     0.24172   0.75001   0.71868   0.00000  Uiso   1.00
O918   O     0.09161   0.75000   0.69988   0.00000  Uiso   1.00
O919   O     0.24172   0.75000   0.80011   0.00000  Uiso   1.00
O920   O     0.32175   0.76121   0.68534   0.00000  Uiso   1.00
C921   C     0.49972   0.66535   0.75034   0.00000  Uiso   1.00
C922   C     0.51662   0.78736   0.94870   0.00000  Uiso   1.00
C923   C     0.49992   0.74799   0.52735   0.00000  Uiso   1.00
C924   C     0.50111   0.74842   0.97305   0.00000  Uiso   1.00
C925   C     0.40160   0.75081   0.73773   0.00000  Uiso   1.00
C926   C     0.59852   0.74973   0.76239   0.00000  Uiso   1.00
C927   C     0.34662   0.75337   0.73111   0.00000  Uiso   1.00
C928   C     0.65372   0.74814   0.76943   0.00000  Uiso   1.00
C929   C     0.44710   0.54730   0.75159   0.00000  Uiso   1.00
C930   C     0.49986   0.95531   0.70737   0.00000  Uiso   1.00
C931   C     0.45019   0.59410   0.75058   0.00000  Uiso   1.00
C932   C     0.49697   0.83492   0.74916   0.00000  Uiso   1.00
C933   C     0.50065   0.90870   0.70646   0.00000  Uiso   1.00
C934   C     0.49798   0.61733   0.75128   0.00000  Uiso   1.00
C935   C     0.49005   0.88320   0.74717   0.00000  Uiso   1.00
C936   C     0.54311   0.59491   0.75333   0.00000  Uiso   1.00
C937   C     0.47200   0.90407   0.78583   0.00000  Uiso   1.00
C938   C     0.54020   0.54875   0.75454   0.00000  Uiso   1.00
C939   C     0.47558   0.95053   0.78860   0.00000  Uiso   1.00
C940   C     0.49212   0.52473   0.75254   0.00000  Uiso   1.00
C941   C     0.48877   0.97588   0.74922   0.00000  Uiso   1.00
C942   C     0.39761   0.52200   0.75397   0.00000  Uiso   1.00
C943   C     0.54295   0.76376   0.55873   0.00000  Uiso   1.00
C944   C     0.51366   0.98262   0.66581   0.00000  Uiso   1.00
C945   C     0.56831   0.81328   0.62797   0.00000  Uiso   1.00
C946   C     0.45473   0.67434   0.86753   0.00000  Uiso   1.00
C947   C     0.42005   0.70047   0.61977   0.00000  Uiso   1.00
C948   C     0.55134   0.82257   0.87816   0.00000  Uiso   1.00
C949   C     0.40848   0.71783   0.51686   0.00000  Uiso   1.00
C950   C     0.52734   0.82994   0.97549   0.00000  Uiso   1.00
C951   C     0.48688   0.70996   0.94495   0.00000  Uiso   1.00
C952   C     0.53828   0.77252   0.60752   0.00000  Uiso   1.00
C953   C     0.48121   0.71295   0.89403   0.00000  Uiso   1.00
C954   C     0.46045   0.72777   0.59961   0.00000  Uiso   1.00
C955   C     0.52102   0.78586   0.89858   0.00000  Uiso   1.00
C956   C     0.45680   0.73146   0.54834   0.00000  Uiso   1.00
Cu957  Cu    0.50000   0.75000   0.79821   0.00000  Uiso   1.00
Cu958  Cu    0.50000   0.75001   0.70178   0.00000  Uiso   1.00
H959   H     0.34617   0.77569   0.66526   0.00000  Uiso   1.00
H960   H     0.46077   0.95076   0.85512   0.00000  Uiso   1.00
H961   H     0.61670   0.77487   0.56782   0.00000  Uiso   1.00
H962   H     0.49477   0.66851   0.99901   0.00000  Uiso   1.00
H963   H     0.60236   0.87318   0.61380   0.00000  Uiso   1.00
H964   H     0.45164   0.60839   0.85607   0.00000  Uiso   1.00
H965   H     0.34543   0.69145   0.62682   0.00000  Uiso   1.00
H966   H     0.56201   0.88837   0.86641   0.00000  Uiso   1.00
H967   H     0.35158   0.67077   0.99870   0.00000  Uiso   1.00
H968   H     0.60231   0.83485   0.96849   0.00000  Uiso   1.00
H969   H     0.65449   0.73455   0.83852   0.00000  Uiso   1.00
H970   H     0.34083   0.50650   0.79334   0.00000  Uiso   1.00
H971   H     0.56246   0.99486   0.61723   0.00000  Uiso   1.00
H972   H     0.37618   0.59927   0.73908   0.00000  Uiso   1.00
H973   H     0.49904   0.90453   0.63689   0.00000  Uiso   1.00
H974   H     0.58892   0.64903   0.75426   0.00000  Uiso   1.00
H975   H     0.42873   0.85427   0.80419   0.00000  Uiso   1.00
H976   H     0.58047   0.99698   0.76686   0.00000  Uiso   1.00
N977   N     0.50000   0.75001   0.62934   0.00000  Uiso   1.00
N978   N     0.50000   0.74999   0.87065   0.00000  Uiso   1.00
O979   O     0.50000   0.68573   0.79071   0.00000  Uiso   1.00
O980   O     0.34571   0.74175   0.81551   0.00000  Uiso   1.00
O981   O     0.38085   0.99464   0.72308   0.00000  Uiso   1.00
O982   O     0.37123   0.52862   0.79279   0.00000  Uiso   1.00
O983   O     0.48745   0.51264   0.64999   0.00000  Uiso   1.00
O984   O     0.55693   0.97405   0.64506   0.00000  Uiso   1.00
O985   O     0.40763   0.61853   0.74806   0.00000  Uiso   1.00
O986   O     0.51093   0.88728   0.66610   0.00000  Uiso   1.00
O987   O     0.59108   0.61653   0.75466   0.00000  Uiso   1.00
O988   O     0.44871   0.88020   0.82015   0.00000  Uiso   1.00
O989   O     0.58553   0.52841   0.75723   0.00000  Uiso   1.00
O990   O     0.50000   0.81428   0.70928   0.00000  Uiso   1.00
O991   O     0.46541   0.97236   0.82889   0.00000  Uiso   1.00
O992   O     0.58855   0.77233   0.54058   0.00000  Uiso   1.00
O993   O     0.47652   0.66907   0.96574   0.00000  Uiso   1.00
O994   O     0.58055   0.81862   0.67098   0.00000  Uiso   1.00
O995   O     0.58237   0.84693   0.59645   0.00000  Uiso   1.00
O996   O     0.41562   0.67866   0.83988   0.00000  Uiso   1.00
O997   O     0.47352   0.63240   0.87557   0.00000  Uiso   1.00
O998   O     0.42922   0.66459   0.63835   0.00000  Uiso   1.00
O999   O     0.37018   0.71373   0.61322   0.00000  Uiso   1.00
O1000  O     0.59004   0.81509   0.86161   0.00000  Uiso   1.00
O1001  O     0.50000   0.68573   0.70928   0.00000  Uiso   1.00
O1002  O     0.53765   0.86618   0.88066   0.00000  Uiso   1.00
O1003  O     0.39074   0.74315   0.98548   0.00000  Uiso   1.00
O1004  O     0.38384   0.67600   0.52244   0.00000  Uiso   1.00
O1005  O     0.49321   0.84558   0.99338   0.00000  Uiso   1.00
O1006  O     0.57584   0.85214   0.98138   0.00000  Uiso   1.00
O1007  O     0.50000   0.81427   0.79072   0.00000  Uiso   1.00
O1008  O     0.42495   0.75000   0.78132   0.00000  Uiso   1.00
O1009  O     0.57505   0.75001   0.71868   0.00000  Uiso   1.00
O1010  O     0.42495   0.75000   0.69988   0.00000  Uiso   1.00
O1011  O     0.57505   0.75000   0.80011   0.00000  Uiso   1.00
O1012  O     0.65508   0.76121   0.68534   0.00000  Uiso   1.00
C1013  C     0.83305   0.66535   0.75034   0.00000  Uiso   1.00
C1014  C     0.84995   0.78736   0.94870   0.00000  Uiso   1.00
C1015  C     0.83325   0.74799   0.52735   0.00000  Uiso   1.00
C1016  C     0.83444   0.74842   0.97305   0.00000  Uiso   1.00
C1017  C     0.73493   0.75081   0.73773   0.00000  Uiso   1.00
C1018  C     0.93185   0.74973   0.76239   0.00000  Uiso   1.00
C1019  C     0.67995   0.75337   0.73111   0.00000  Uiso   1.00
C1020  C     0.98705   0.74814   0.76943   0.00000  Uiso   1.00
C1021  C     0.78044   0.54730   0.75159   0.00000  Uiso   1.00
C1022  C     0.83319   0.95531   0.70737   0.00000  Uiso   1.00
C1023  C     0.78352   0.59410   0.75058   0.00000  Uiso   1.00
C1024  C     0.83030   0.83492   0.74916   0.00000  Uiso   1.00
C1025  C     0.83398   0.90870   0.70646   0.00000  Uiso   1.00
C1026  C     0.83131   0.61733   0.75128   0.00000  Uiso   1.00
C1027  C     0.82338   0.88320   0.74717   0.00000  Uiso   1.00
C1028  C     0.87644   0.59491   0.75333   0.00000  Uiso   1.00
C1029  C     0.80534   0.90407   0.78583   0.00000  Uiso   1.00
C1030  C     0.87354   0.54875   0.75454   0.00000  Uiso   1.00
C1031  C     0.80891   0.95053   0.78860   0.00000  Uiso   1.00
C1032  C     0.82545   0.52473   0.75254   0.00000  Uiso   1.00
C1033  C     0.82210   0.97588   0.74922   0.00000  Uiso   1.00
C1034  C     0.73094   0.52200   0.75397   0.00000  Uiso   1.00
C1035  C     0.87629   0.76376   0.55873   0.00000  Uiso   1.00
C1036  C     0.84700   0.98262   0.66581   0.00000  Uiso   1.00
C1037  C     0.90165   0.81328   0.62797   0.00000  Uiso   1.00
C1038  C     0.78806   0.67434   0.86753   0.00000  Uiso   1.00
C1039  C     0.75338   0.70047   0.61977   0.00000  Uiso   1.00
C1040  C     0.88467   0.82257   0.87816   0.00000  Uiso   1.00
C1041  C     0.74182   0.71783   0.51686   0.00000  Uiso   1.00
C1042  C     0.86067   0.82994   0.97549   0.00000  Uiso   1.00
C1043  C     0.82022   0.70996   0.94495   0.00000  Uiso   1.00
C1044  C     0.87161   0.77252   0.60752   0.00000  Uiso   1.00
C1045  C     0.81455   0.71295   0.89403   0.00000  Uiso   1.00
C1046  C     0.79378   0.72777   0.59961   0.00000  Uiso   1.00
C1047  C     0.85435   0.78586   0.89858   0.00000  Uiso   1.00
C1048  C     0.79014   0.73146   0.54834   0.00000  Uiso   1.00
Cu1049 Cu    0.83333   0.75000   0.79821   0.00000  Uiso   1.00
Cu1050 Cu    0.83333   0.75001   0.70178   0.00000  Uiso   1.00
H1051  H     0.67951   0.77569   0.66526   0.00000  Uiso   1.00
H1052  H     0.79411   0.95076   0.85512   0.00000  Uiso   1.00
H1053  H     0.95004   0.77487   0.56782   0.00000  Uiso   1.00
H1054  H     0.82810   0.66851   0.99901   0.00000  Uiso   1.00
H1055  H     0.93569   0.87318   0.61380   0.00000  Uiso   1.00
H1056  H     0.78497   0.60839   0.85607   0.00000  Uiso   1.00
H1057  H     0.67877   0.69145   0.62682   0.00000  Uiso   1.00
H1058  H     0.89534   0.88837   0.86641   0.00000  Uiso   1.00
H1059  H     0.68491   0.67077   0.99870   0.00000  Uiso   1.00
H1060  H     0.93565   0.83485   0.96849   0.00000  Uiso   1.00
H1061  H     0.98783   0.73455   0.83852   0.00000  Uiso   1.00
H1062  H     0.67416   0.50650   0.79334   0.00000  Uiso   1.00
H1063  H     0.89579   0.99486   0.61723   0.00000  Uiso   1.00
H1064  H     0.70951   0.59927   0.73908   0.00000  Uiso   1.00
H1065  H     0.83237   0.90453   0.63689   0.00000  Uiso   1.00
H1066  H     0.92226   0.64903   0.75426   0.00000  Uiso   1.00
H1067  H     0.76207   0.85427   0.80419   0.00000  Uiso   1.00
H1068  H     0.91380   0.99698   0.76686   0.00000  Uiso   1.00
N1069  N     0.83333   0.75001   0.62934   0.00000  Uiso   1.00
N1070  N     0.83333   0.74999   0.87065   0.00000  Uiso   1.00
O1071  O     0.83334   0.68573   0.79071   0.00000  Uiso   1.00
O1072  O     0.67904   0.74175   0.81551   0.00000  Uiso   1.00
O1073  O     0.71418   0.99464   0.72308   0.00000  Uiso   1.00
O1074  O     0.70456   0.52862   0.79279   0.00000  Uiso   1.00
O1075  O     0.82079   0.51264   0.64999   0.00000  Uiso   1.00
O1076  O     0.89026   0.97405   0.64506   0.00000  Uiso   1.00
O1077  O     0.74096   0.61853   0.74806   0.00000  Uiso   1.00
O1078  O     0.84426   0.88728   0.66610   0.00000  Uiso   1.00
O1079  O     0.92442   0.61653   0.75466   0.00000  Uiso   1.00
O1080  O     0.78204   0.88020   0.82015   0.00000  Uiso   1.00
O1081  O     0.91887   0.52841   0.75723   0.00000  Uiso   1.00
O1082  O     0.83333   0.81428   0.70928   0.00000  Uiso   1.00
O1083  O     0.79874   0.97236   0.82889   0.00000  Uiso   1.00
O1084  O     0.92188   0.77233   0.54058   0.00000  Uiso   1.00
O1085  O     0.80985   0.66907   0.96574   0.00000  Uiso   1.00
O1086  O     0.91388   0.81862   0.67098   0.00000  Uiso   1.00
O1087  O     0.91571   0.84693   0.59645   0.00000  Uiso   1.00
O1088  O     0.74896   0.67866   0.83988   0.00000  Uiso   1.00
O1089  O     0.80686   0.63240   0.87557   0.00000  Uiso   1.00
O1090  O     0.76255   0.66459   0.63835   0.00000  Uiso   1.00
O1091  O     0.70352   0.71373   0.61322   0.00000  Uiso   1.00
O1092  O     0.92337   0.81509   0.86161   0.00000  Uiso   1.00
O1093  O     0.83334   0.68573   0.70928   0.00000  Uiso   1.00
O1094  O     0.87098   0.86618   0.88066   0.00000  Uiso   1.00
O1095  O     0.72408   0.74315   0.98548   0.00000  Uiso   1.00
O1096  O     0.71717   0.67600   0.52244   0.00000  Uiso   1.00
O1097  O     0.82654   0.84558   0.99338   0.00000  Uiso   1.00
O1098  O     0.90917   0.85214   0.98138   0.00000  Uiso   1.00
O1099  O     0.83333   0.81427   0.79072   0.00000  Uiso   1.00
O1100  O     0.75828   0.75000   0.78132   0.00000  Uiso   1.00
O1101  O     0.90839   0.75001   0.71868   0.00000  Uiso   1.00
O1102  O     0.75828   0.75000   0.69988   0.00000  Uiso   1.00
O1103  O     0.90839   0.75000   0.80011   0.00000  Uiso   1.00
O1104  O     0.98841   0.76121   0.68534   0.00000  Uiso   1.00
loop_
_geom_bond_atom_site_label_1
_geom_bond_atom_site_label_2
_geom_bond_distance
_geom_bond_site_symmetry_2
_ccdc_geom_bond_type
C1     O59     1.296   .     A
C1     O81     1.297   .     A
C1     C14     1.449   .     S
C2     C35     1.427   .     A
C2     C4      1.415   .     A
C2     C30     1.491   .     S
C3     C23     1.401   .     A
C3     C36     1.414   .     A
C3     C556    1.526   1_554 S
C4     C31     1.414   .     A
C4     C555    1.526   .     S
C5     O88     1.292   .     A
C5     C7      1.453   .     S
C5     O90     1.302   .     A
C6     O91     1.300   .     A
C6     C8      1.455   .     S
C6     O89     1.295   .     A
C7     C192    1.360   1_455 S
C7     O276    1.384   1_455 S
C8     C99     1.360   .     S
C8     O152    1.388   .     S
C9     C22     1.482   .     S
C9     C20     1.415   .     A
C9     C11     1.411   .     A
C10    C24     1.489   .     S
C10    C13     1.411   .     A
C10    C21     1.412   .     A
C11    C14     1.403   .     A
C11    O65     1.386   .     S
C12    C15     1.483   .     S
C12    O70     1.304   .     A
C12    O87     1.308   .     A
C13    O66     1.381   .     S
C13    C15     1.416   .     A
C14    C16     1.412   .     A
C15    C17     1.418   .     A
C16    O67     1.385   .     S
C16    C18     1.392   .     A
C17    O68     1.381   .     S
C17    C19     1.403   .     A
C18    C20     1.417   .     A
C18    O69     1.382   .     S
C19    C21     1.403   .     A
C19    O71     1.384   .     S
C20    C297    1.477   1_545 S
C21    C296    1.477   .     S
C22    O62     1.397   .     S
C22    O337    1.223   1_545 S
C23    O72     1.383   .     S
C23    C32     1.421   .     A
C24    O64     1.399   .     S
C24    O339    1.223   .     S
C25    O74     1.215   .     D
C25    C32     1.496   .     S
C25    O75     1.401   .     S
C26    O76     1.220   .     D
C26    O77     1.399   .     S
C26    C33     1.475   .     S
C27    O78     1.221   .     D
C27    O79     1.397   .     S
C27    C34     1.475   .     S
C28    C35     1.478   .     S
C28    O82     1.398   .     S
C28    O80     1.221   .     D
C29    O84     1.398   .     S
C29    C36     1.489   .     S
C29    O635    1.223   1_554 S
C30    O86     1.399   .     S
C30    O85     1.221   .     D
C31    O73     1.384   .     S
C31    C33     1.416   .     A
C32    N57     1.389   .     A
C33    N58     1.385   .     A
C34    N57     1.387   .     A
C34    C36     1.430   .     A
C35    N58     1.386   .     A
Cu37   O88     1.983   .     S
Cu37   N58     2.030   .     S
Cu37   O91     1.986   .     S
Cu37   Cu38    2.702   .     S
Cu37   O59     1.957   .     S
Cu37   O87     1.951   .     S
Cu38   O70     1.957   .     S
Cu38   O89     1.983   .     S
Cu38   N57     2.030   .     S
Cu38   O81     1.951   .     S
Cu38   O90     1.986   .     S
H39    O276    0.990   1_455 S
H40    O71     0.990   .     S
H41    O72     0.992   .     S
H42    O73     0.990   .     S
H43    O75     1.014   .     S
H44    O77     1.014   .     S
H45    O79     1.014   .     S
H46    O82     1.014   .     S
H47    O636    1.014   .     S
H48    O86     1.013   .     S
H49    O152    0.989   .     S
H50    O62     1.012   .     S
H51    O64     1.014   .     S
H52    O65     0.988   .     S
H53    O66     0.990   .     S
H54    O67     0.988   .     S
H55    O68     0.991   .     S
H56    O345    0.989   .     S
O60    H233    0.989   1_455 S
O60    C192    1.388   1_455 S
O61    C298    1.223   .     S
O63    C300    1.223   1_545 S
O69    H332    0.989   1_545 S
O83    C581    1.223   .     S
O84    H599    1.014   1_554 S
O92    C99     1.384   .     S
O92    H131    0.990   .     S
C93    O151    1.296   .     A
C93    O173    1.297   .     A
C93    C106    1.449   .     S
C94    C127    1.427   .     A
C94    C96     1.415   .     A
C94    C122    1.491   .     S
C95    C115    1.401   .     A
C95    C128    1.414   .     A
C95    C648    1.526   1_554 S
C96    C123    1.414   .     A
C96    C647    1.526   .     S
C97    O180    1.292   .     A
C97    C99     1.453   .     S
C97    O182    1.302   .     A
C98    O183    1.300   .     A
C98    C100    1.455   .     S
C98    O181    1.295   .     A
C100   C191    1.360   .     S
C100   O244    1.388   .     S
C101   C114    1.482   .     S
C101   C112    1.415   .     A
C101   C103    1.411   .     A
C102   C116    1.489   .     S
C102   C105    1.411   .     A
C102   C113    1.412   .     A
C103   C106    1.403   .     A
C103   O157    1.386   .     S
C104   C107    1.483   .     S
C104   O162    1.304   .     A
C104   O179    1.308   .     A
C105   O158    1.381   .     S
C105   C107    1.416   .     A
C106   C108    1.412   .     A
C107   C109    1.418   .     A
C108   O159    1.385   .     S
C108   C110    1.392   .     A
C109   O160    1.381   .     S
C109   C111    1.403   .     A
C110   C112    1.417   .     A
C110   O161    1.382   .     S
C111   C113    1.403   .     A
C111   O163    1.384   .     S
C112   C389    1.477   1_545 S
C113   C388    1.477   .     S
C114   O154    1.397   .     S
C114   O429    1.223   1_545 S
C115   O164    1.383   .     S
C115   C124    1.421   .     A
C116   O156    1.399   .     S
C116   O431    1.223   .     S
C117   O166    1.215   .     D
C117   C124    1.496   .     S
C117   O167    1.401   .     S
C118   O168    1.220   .     D
C118   O169    1.399   .     S
C118   C125    1.475   .     S
C119   O170    1.221   .     D
C119   O171    1.397   .     S
C119   C126    1.475   .     S
C120   C127    1.478   .     S
C120   O174    1.398   .     S
C120   O172    1.221   .     D
C121   O176    1.398   .     S
C121   C128    1.489   .     S
C121   O727    1.223   1_554 S
C122   O178    1.399   .     S
C122   O177    1.221   .     D
C123   O165    1.384   .     S
C123   C125    1.416   .     A
C124   N149    1.389   .     A
C125   N150    1.385   .     A
C126   N149    1.387   .     A
C126   C128    1.430   .     A
C127   N150    1.386   .     A
Cu129  O180    1.983   .     S
Cu129  N150    2.030   .     S
Cu129  O183    1.986   .     S
Cu129  Cu130   2.702   .     S
Cu129  O151    1.957   .     S
Cu129  O179    1.951   .     S
Cu130  O162    1.957   .     S
Cu130  O181    1.983   .     S
Cu130  N149    2.030   .     S
Cu130  O173    1.951   .     S
Cu130  O182    1.986   .     S
H132   O163    0.990   .     S
H133   O164    0.992   .     S
H134   O165    0.990   .     S
H135   O167    1.014   .     S
H136   O169    1.014   .     S
H137   O171    1.014   .     S
H138   O174    1.014   .     S
H139   O728    1.014   .     S
H140   O178    1.013   .     S
H141   O244    0.989   .     S
H142   O154    1.012   .     S
H143   O156    1.014   .     S
H144   O157    0.988   .     S
H145   O158    0.990   .     S
H146   O159    0.988   .     S
H147   O160    0.991   .     S
H148   O437    0.989   .     S
O153   C390    1.223   .     S
O155   C392    1.223   1_545 S
O161   H424    0.989   1_545 S
O175   C673    1.223   .     S
O176   H691    1.014   1_554 S
O184   C191    1.384   .     S
O184   H223    0.990   .     S
C185   O243    1.296   .     A
C185   O265    1.297   .     A
C185   C198    1.449   .     S
C186   C219    1.427   .     A
C186   C188    1.415   .     A
C186   C214    1.491   .     S
C187   C207    1.401   .     A
C187   C220    1.414   .     A
C187   C740    1.526   1_554 S
C188   C215    1.414   .     A
C188   C739    1.526   .     S
C189   O272    1.292   .     A
C189   C191    1.453   .     S
C189   O274    1.302   .     A
C190   O275    1.300   .     A
C190   C192    1.455   .     S
C190   O273    1.295   .     A
C192   C7      1.360   1_655 S
C192   O60     1.388   1_655 S
C193   C206    1.482   .     S
C193   C204    1.415   .     A
C193   C195    1.411   .     A
C194   C208    1.489   .     S
C194   C197    1.411   .     A
C194   C205    1.412   .     A
C195   C198    1.403   .     A
C195   O249    1.386   .     S
C196   C199    1.483   .     S
C196   O254    1.304   .     A
C196   O271    1.308   .     A
C197   O250    1.381   .     S
C197   C199    1.416   .     A
C198   C200    1.412   .     A
C199   C201    1.418   .     A
C200   O251    1.385   .     S
C200   C202    1.392   .     A
C201   O252    1.381   .     S
C201   C203    1.403   .     A
C202   C204    1.417   .     A
C202   O253    1.382   .     S
C203   C205    1.403   .     A
C203   O255    1.384   .     S
C204   C481    1.477   1_545 S
C205   C480    1.477   .     S
C206   O246    1.397   .     S
C206   O521    1.223   1_545 S
C207   O256    1.383   .     S
C207   C216    1.421   .     A
C208   O248    1.399   .     S
C208   O523    1.223   .     S
C209   O258    1.215   .     D
C209   C216    1.496   .     S
C209   O259    1.401   .     S
C210   O260    1.220   .     D
C210   O261    1.399   .     S
C210   C217    1.475   .     S
C211   O262    1.221   .     D
C211   O263    1.397   .     S
C211   C218    1.475   .     S
C212   C219    1.478   .     S
C212   O266    1.398   .     S
C212   O264    1.221   .     D
C213   O268    1.398   .     S
C213   C220    1.489   .     S
C213   O819    1.223   1_554 S
C214   O270    1.399   .     S
C214   O269    1.221   .     D
C215   O257    1.384   .     S
C215   C217    1.416   .     A
C216   N241    1.389   .     A
C217   N242    1.385   .     A
C218   N241    1.387   .     A
C218   C220    1.430   .     A
C219   N242    1.386   .     A
Cu221  O272    1.983   .     S
Cu221  N242    2.030   .     S
Cu221  O275    1.986   .     S
Cu221  Cu222   2.702   .     S
Cu221  O243    1.957   .     S
Cu221  O271    1.951   .     S
Cu222  O254    1.957   .     S
Cu222  O273    1.983   .     S
Cu222  N241    2.030   .     S
Cu222  O265    1.951   .     S
Cu222  O274    1.986   .     S
H224   O255    0.990   .     S
H225   O256    0.992   .     S
H226   O257    0.990   .     S
H227   O259    1.014   .     S
H228   O261    1.014   .     S
H229   O263    1.014   .     S
H230   O266    1.014   .     S
H231   O820    1.014   .     S
H232   O270    1.013   .     S
H233   O60     0.989   1_655 S
H234   O246    1.012   .     S
H235   O248    1.014   .     S
H236   O249    0.988   .     S
H237   O250    0.990   .     S
H238   O251    0.988   .     S
H239   O252    0.991   .     S
H240   O529    0.989   .     S
O245   C482    1.223   .     S
O247   C484    1.223   1_545 S
O253   H516    0.989   1_545 S
O267   C765    1.223   .     S
O268   H783    1.014   1_554 S
O276   C7      1.384   1_655 S
O276   H39     0.990   1_655 S
C277   O335    1.296   .     A
C277   O357    1.297   .     A
C277   C290    1.449   .     S
C278   C311    1.427   .     A
C278   C280    1.415   .     A
C278   C306    1.491   .     S
C279   C299    1.401   .     A
C279   C312    1.414   .     A
C279   C832    1.526   1_554 S
C280   C307    1.414   .     A
C280   C831    1.526   .     S
C281   O364    1.292   .     A
C281   C283    1.453   .     S
C281   O366    1.302   .     A
C282   O367    1.300   .     A
C282   C284    1.455   .     S
C282   O365    1.295   .     A
C283   C468    1.360   1_455 S
C283   O552    1.384   1_455 S
C284   C375    1.360   .     S
C284   O428    1.388   .     S
C285   C298    1.482   .     S
C285   C296    1.415   .     A
C285   C287    1.411   .     A
C286   C300    1.489   .     S
C286   C289    1.411   .     A
C286   C297    1.412   .     A
C287   C290    1.403   .     A
C287   O341    1.386   .     S
C288   C291    1.483   .     S
C288   O346    1.304   .     A
C288   O363    1.308   .     A
C289   O342    1.381   .     S
C289   C291    1.416   .     A
C290   C292    1.412   .     A
C291   C293    1.418   .     A
C292   O343    1.385   .     S
C292   C294    1.392   .     A
C293   O344    1.381   .     S
C293   C295    1.403   .     A
C294   C296    1.417   .     A
C294   O345    1.382   .     S
C295   C297    1.403   .     A
C295   O347    1.384   .     S
C297   C20     1.477   1_565 S
C298   O338    1.397   .     S
C299   O348    1.383   .     S
C299   C308    1.421   .     A
C300   O340    1.399   .     S
C300   O63     1.223   1_565 S
C301   O350    1.215   .     D
C301   C308    1.496   .     S
C301   O351    1.401   .     S
C302   O352    1.220   .     D
C302   O353    1.399   .     S
C302   C309    1.475   .     S
C303   O354    1.221   .     D
C303   O355    1.397   .     S
C303   C310    1.475   .     S
C304   C311    1.478   .     S
C304   O358    1.398   .     S
C304   O356    1.221   .     D
C305   O360    1.398   .     S
C305   C312    1.489   .     S
C305   O911    1.223   1_554 S
C306   O362    1.399   .     S
C306   O361    1.221   .     D
C307   O349    1.384   .     S
C307   C309    1.416   .     A
C308   N333    1.389   .     A
C309   N334    1.385   .     A
C310   N333    1.387   .     A
C310   C312    1.430   .     A
C311   N334    1.386   .     A
Cu313  O364    1.983   .     S
Cu313  N334    2.030   .     S
Cu313  O367    1.986   .     S
Cu313  Cu314   2.702   .     S
Cu313  O335    1.957   .     S
Cu313  O363    1.951   .     S
Cu314  O346    1.957   .     S
Cu314  O365    1.983   .     S
Cu314  N333    2.030   .     S
Cu314  O357    1.951   .     S
Cu314  O366    1.986   .     S
H315   O552    0.990   1_455 S
H316   O347    0.990   .     S
H317   O348    0.992   .     S
H318   O349    0.990   .     S
H319   O351    1.014   .     S
H320   O353    1.014   .     S
H321   O355    1.014   .     S
H322   O358    1.014   .     S
H323   O912    1.014   .     S
H324   O362    1.013   .     S
H325   O428    0.989   .     S
H326   O338    1.012   .     S
H327   O340    1.014   .     S
H328   O341    0.988   .     S
H329   O342    0.990   .     S
H330   O343    0.988   .     S
H331   O344    0.991   .     S
H332   O69     0.989   1_565 S
O336   H509    0.989   1_455 S
O336   C468    1.388   1_455 S
O337   C22     1.223   1_565 S
O359   C857    1.223   .     S
O360   H875    1.014   1_554 S
O368   C375    1.384   .     S
O368   H407    0.990   .     S
C369   O427    1.296   .     A
C369   O449    1.297   .     A
C369   C382    1.449   .     S
C370   C403    1.427   .     A
C370   C372    1.415   .     A
C370   C398    1.491   .     S
C371   C391    1.401   .     A
C371   C404    1.414   .     A
C371   C924    1.526   1_554 S
C372   C399    1.414   .     A
C372   C923    1.526   .     S
C373   O456    1.292   .     A
C373   C375    1.453   .     S
C373   O458    1.302   .     A
C374   O459    1.300   .     A
C374   C376    1.455   .     S
C374   O457    1.295   .     A
C376   C467    1.360   .     S
C376   O520    1.388   .     S
C377   C390    1.482   .     S
C377   C388    1.415   .     A
C377   C379    1.411   .     A
C378   C392    1.489   .     S
C378   C381    1.411   .     A
C378   C389    1.412   .     A
C379   C382    1.403   .     A
C379   O433    1.386   .     S
C380   C383    1.483   .     S
C380   O438    1.304   .     A
C380   O455    1.308   .     A
C381   O434    1.381   .     S
C381   C383    1.416   .     A
C382   C384    1.412   .     A
C383   C385    1.418   .     A
C384   O435    1.385   .     S
C384   C386    1.392   .     A
C385   O436    1.381   .     S
C385   C387    1.403   .     A
C386   C388    1.417   .     A
C386   O437    1.382   .     S
C387   C389    1.403   .     A
C387   O439    1.384   .     S
C389   C112    1.477   1_565 S
C390   O430    1.397   .     S
C391   O440    1.383   .     S
C391   C400    1.421   .     A
C392   O432    1.399   .     S
C392   O155    1.223   1_565 S
C393   O442    1.215   .     D
C393   C400    1.496   .     S
C393   O443    1.401   .     S
C394   O444    1.220   .     D
C394   O445    1.399   .     S
C394   C401    1.475   .     S
C395   O446    1.221   .     D
C395   O447    1.397   .     S
C395   C402    1.475   .     S
C396   C403    1.478   .     S
C396   O450    1.398   .     S
C396   O448    1.221   .     D
C397   O452    1.398   .     S
C397   C404    1.489   .     S
C397   O1003   1.223   1_554 S
C398   O454    1.399   .     S
C398   O453    1.221   .     D
C399   O441    1.384   .     S
C399   C401    1.416   .     A
C400   N425    1.389   .     A
C401   N426    1.385   .     A
C402   N425    1.387   .     A
C402   C404    1.430   .     A
C403   N426    1.386   .     A
Cu405  O456    1.983   .     S
Cu405  N426    2.030   .     S
Cu405  O459    1.986   .     S
Cu405  Cu406   2.702   .     S
Cu405  O427    1.957   .     S
Cu405  O455    1.951   .     S
Cu406  O438    1.957   .     S
Cu406  O457    1.983   .     S
Cu406  N425    2.030   .     S
Cu406  O449    1.951   .     S
Cu406  O458    1.986   .     S
H408   O439    0.990   .     S
H409   O440    0.992   .     S
H410   O441    0.990   .     S
H411   O443    1.014   .     S
H412   O445    1.014   .     S
H413   O447    1.014   .     S
H414   O450    1.014   .     S
H415   O1004   1.014   .     S
H416   O454    1.013   .     S
H417   O520    0.989   .     S
H418   O430    1.012   .     S
H419   O432    1.014   .     S
H420   O433    0.988   .     S
H421   O434    0.990   .     S
H422   O435    0.988   .     S
H423   O436    0.991   .     S
H424   O161    0.989   1_565 S
O429   C114    1.223   1_565 S
O451   C949    1.223   .     S
O452   H967    1.014   1_554 S
O460   C467    1.384   .     S
O460   H499    0.990   .     S
C461   O519    1.296   .     A
C461   O541    1.297   .     A
C461   C474    1.449   .     S
C462   C495    1.427   .     A
C462   C464    1.415   .     A
C462   C490    1.491   .     S
C463   C483    1.401   .     A
C463   C496    1.414   .     A
C463   C1016   1.526   1_554 S
C464   C491    1.414   .     A
C464   C1015   1.526   .     S
C465   O548    1.292   .     A
C465   C467    1.453   .     S
C465   O550    1.302   .     A
C466   O551    1.300   .     A
C466   C468    1.455   .     S
C466   O549    1.295   .     A
C468   C283    1.360   1_655 S
C468   O336    1.388   1_655 S
C469   C482    1.482   .     S
C469   C480    1.415   .     A
C469   C471    1.411   .     A
C470   C484    1.489   .     S
C470   C473    1.411   .     A
C470   C481    1.412   .     A
C471   C474    1.403   .     A
C471   O525    1.386   .     S
C472   C475    1.483   .     S
C472   O530    1.304   .     A
C472   O547    1.308   .     A
C473   O526    1.381   .     S
C473   C475    1.416   .     A
C474   C476    1.412   .     A
C475   C477    1.418   .     A
C476   O527    1.385   .     S
C476   C478    1.392   .     A
C477   O528    1.381   .     S
C477   C479    1.403   .     A
C478   C480    1.417   .     A
C478   O529    1.382   .     S
C479   C481    1.403   .     A
C479   O531    1.384   .     S
C481   C204    1.477   1_565 S
C482   O522    1.397   .     S
C483   O532    1.383   .     S
C483   C492    1.421   .     A
C484   O524    1.399   .     S
C484   O247    1.223   1_565 S
C485   O534    1.215   .     D
C485   C492    1.496   .     S
C485   O535    1.401   .     S
C486   O536    1.220   .     D
C486   O537    1.399   .     S
C486   C493    1.475   .     S
C487   O538    1.221   .     D
C487   O539    1.397   .     S
C487   C494    1.475   .     S
C488   C495    1.478   .     S
C488   O542    1.398   .     S
C488   O540    1.221   .     D
C489   O544    1.398   .     S
C489   C496    1.489   .     S
C489   O1095   1.223   1_554 S
C490   O546    1.399   .     S
C490   O545    1.221   .     D
C491   O533    1.384   .     S
C491   C493    1.416   .     A
C492   N517    1.389   .     A
C493   N518    1.385   .     A
C494   N517    1.387   .     A
C494   C496    1.430   .     A
C495   N518    1.386   .     A
Cu497  O548    1.983   .     S
Cu497  N518    2.030   .     S
Cu497  O551    1.986   .     S
Cu497  Cu498   2.702   .     S
Cu497  O519    1.957   .     S
Cu497  O547    1.951   .     S
Cu498  O530    1.957   .     S
Cu498  O549    1.983   .     S
Cu498  N517    2.030   .     S
Cu498  O541    1.951   .     S
Cu498  O550    1.986   .     S
H500   O531    0.990   .     S
H501   O532    0.992   .     S
H502   O533    0.990   .     S
H503   O535    1.014   .     S
H504   O537    1.014   .     S
H505   O539    1.014   .     S
H506   O542    1.014   .     S
H507   O1096   1.014   .     S
H508   O546    1.013   .     S
H509   O336    0.989   1_655 S
H510   O522    1.012   .     S
H511   O524    1.014   .     S
H512   O525    0.988   .     S
H513   O526    0.990   .     S
H514   O527    0.988   .     S
H515   O528    0.991   .     S
H516   O253    0.989   1_565 S
O521   C206    1.223   1_565 S
O543   C1041   1.223   .     S
O544   H1059   1.014   1_554 S
O552   C283    1.384   1_655 S
O552   H315    0.990   1_655 S
C553   O611    1.296   .     A
C553   O633    1.297   .     A
C553   C566    1.449   .     S
C554   C587    1.427   .     A
C554   C556    1.415   .     A
C554   C582    1.491   .     S
C555   C575    1.401   .     A
C555   C588    1.414   .     A
C556   C583    1.414   .     A
C556   C3      1.526   1_556 S
C557   O640    1.292   .     A
C557   C559    1.453   .     S
C557   O642    1.302   .     A
C558   O643    1.300   .     A
C558   C560    1.455   .     S
C558   O641    1.295   .     A
C559   C744    1.360   1_455 S
C559   O828    1.384   1_455 S
C560   C651    1.360   .     S
C560   O704    1.388   .     S
C561   C574    1.482   .     S
C561   C572    1.415   .     A
C561   C563    1.411   .     A
C562   C576    1.489   .     S
C562   C565    1.411   .     A
C562   C573    1.412   .     A
C563   C566    1.403   .     A
C563   O617    1.386   .     S
C564   C567    1.483   .     S
C564   O622    1.304   .     A
C564   O639    1.308   .     A
C565   O618    1.381   .     S
C565   C567    1.416   .     A
C566   C568    1.412   .     A
C567   C569    1.418   .     A
C568   O619    1.385   .     S
C568   C570    1.392   .     A
C569   O620    1.381   .     S
C569   C571    1.403   .     A
C570   C572    1.417   .     A
C570   O621    1.382   .     S
C571   C573    1.403   .     A
C571   O623    1.384   .     S
C572   C849    1.477   1_545 S
C573   C848    1.477   .     S
C574   O614    1.397   .     S
C574   O889    1.223   1_545 S
C575   O624    1.383   .     S
C575   C584    1.421   .     A
C576   O616    1.399   .     S
C576   O891    1.223   .     S
C577   O626    1.215   .     D
C577   C584    1.496   .     S
C577   O627    1.401   .     S
C578   O628    1.220   .     D
C578   O629    1.399   .     S
C578   C585    1.475   .     S
C579   O630    1.221   .     D
C579   O631    1.397   .     S
C579   C586    1.475   .     S
C580   C587    1.478   .     S
C580   O634    1.398   .     S
C580   O632    1.221   .     D
C581   O636    1.398   .     S
C581   C588    1.489   .     S
C582   O638    1.399   .     S
C582   O637    1.221   .     D
C583   O625    1.384   .     S
C583   C585    1.416   .     A
C584   N609    1.389   .     A
C585   N610    1.385   .     A
C586   N609    1.387   .     A
C586   C588    1.430   .     A
C587   N610    1.386   .     A
Cu589  O640    1.983   .     S
Cu589  N610    2.030   .     S
Cu589  O643    1.986   .     S
Cu589  Cu590   2.702   .     S
Cu589  O611    1.957   .     S
Cu589  O639    1.951   .     S
Cu590  O622    1.957   .     S
Cu590  O641    1.983   .     S
Cu590  N609    2.030   .     S
Cu590  O633    1.951   .     S
Cu590  O642    1.986   .     S
H591   O828    0.990   1_455 S
H592   O623    0.990   .     S
H593   O624    0.992   .     S
H594   O625    0.990   .     S
H595   O627    1.014   .     S
H596   O629    1.014   .     S
H597   O631    1.014   .     S
H598   O634    1.014   .     S
H599   O84     1.014   1_556 S
H600   O638    1.013   .     S
H601   O704    0.989   .     S
H602   O614    1.012   .     S
H603   O616    1.014   .     S
H604   O617    0.988   .     S
H605   O618    0.990   .     S
H606   O619    0.988   .     S
H607   O620    0.991   .     S
H608   O897    0.989   .     S
O612   H785    0.989   1_455 S
O612   C744    1.388   1_455 S
O613   C850    1.223   .     S
O615   C852    1.223   1_545 S
O621   H884    0.989   1_545 S
O635   C29     1.223   1_556 S
O644   C651    1.384   .     S
O644   H683    0.990   .     S
C645   O703    1.296   .     A
C645   O725    1.297   .     A
C645   C658    1.449   .     S
C646   C679    1.427   .     A
C646   C648    1.415   .     A
C646   C674    1.491   .     S
C647   C667    1.401   .     A
C647   C680    1.414   .     A
C648   C675    1.414   .     A
C648   C95     1.526   1_556 S
C649   O732    1.292   .     A
C649   C651    1.453   .     S
C649   O734    1.302   .     A
C650   O735    1.300   .     A
C650   C652    1.455   .     S
C650   O733    1.295   .     A
C652   C743    1.360   .     S
C652   O796    1.388   .     S
C653   C666    1.482   .     S
C653   C664    1.415   .     A
C653   C655    1.411   .     A
C654   C668    1.489   .     S
C654   C657    1.411   .     A
C654   C665    1.412   .     A
C655   C658    1.403   .     A
C655   O709    1.386   .     S
C656   C659    1.483   .     S
C656   O714    1.304   .     A
C656   O731    1.308   .     A
C657   O710    1.381   .     S
C657   C659    1.416   .     A
C658   C660    1.412   .     A
C659   C661    1.418   .     A
C660   O711    1.385   .     S
C660   C662    1.392   .     A
C661   O712    1.381   .     S
C661   C663    1.403   .     A
C662   C664    1.417   .     A
C662   O713    1.382   .     S
C663   C665    1.403   .     A
C663   O715    1.384   .     S
C664   C941    1.477   1_545 S
C665   C940    1.477   .     S
C666   O706    1.397   .     S
C666   O981    1.223   1_545 S
C667   O716    1.383   .     S
C667   C676    1.421   .     A
C668   O708    1.399   .     S
C668   O983    1.223   .     S
C669   O718    1.215   .     D
C669   C676    1.496   .     S
C669   O719    1.401   .     S
C670   O720    1.220   .     D
C670   O721    1.399   .     S
C670   C677    1.475   .     S
C671   O722    1.221   .     D
C671   O723    1.397   .     S
C671   C678    1.475   .     S
C672   C679    1.478   .     S
C672   O726    1.398   .     S
C672   O724    1.221   .     D
C673   O728    1.398   .     S
C673   C680    1.489   .     S
C674   O730    1.399   .     S
C674   O729    1.221   .     D
C675   O717    1.384   .     S
C675   C677    1.416   .     A
C676   N701    1.389   .     A
C677   N702    1.385   .     A
C678   N701    1.387   .     A
C678   C680    1.430   .     A
C679   N702    1.386   .     A
Cu681  O732    1.983   .     S
Cu681  N702    2.030   .     S
Cu681  O735    1.986   .     S
Cu681  Cu682   2.702   .     S
Cu681  O703    1.957   .     S
Cu681  O731    1.951   .     S
Cu682  O714    1.957   .     S
Cu682  O733    1.983   .     S
Cu682  N701    2.030   .     S
Cu682  O725    1.951   .     S
Cu682  O734    1.986   .     S
H684   O715    0.990   .     S
H685   O716    0.992   .     S
H686   O717    0.990   .     S
H687   O719    1.014   .     S
H688   O721    1.014   .     S
H689   O723    1.014   .     S
H690   O726    1.014   .     S
H691   O176    1.014   1_556 S
H692   O730    1.013   .     S
H693   O796    0.989   .     S
H694   O706    1.012   .     S
H695   O708    1.014   .     S
H696   O709    0.988   .     S
H697   O710    0.990   .     S
H698   O711    0.988   .     S
H699   O712    0.991   .     S
H700   O989    0.989   .     S
O705   C942    1.223   .     S
O707   C944    1.223   1_545 S
O713   H976    0.989   1_545 S
O727   C121    1.223   1_556 S
O736   C743    1.384   .     S
O736   H775    0.990   .     S
C737   O795    1.296   .     A
C737   O817    1.297   .     A
C737   C750    1.449   .     S
C738   C771    1.427   .     A
C738   C740    1.415   .     A
C738   C766    1.491   .     S
C739   C759    1.401   .     A
C739   C772    1.414   .     A
C740   C767    1.414   .     A
C740   C187    1.526   1_556 S
C741   O824    1.292   .     A
C741   C743    1.453   .     S
C741   O826    1.302   .     A
C742   O827    1.300   .     A
C742   C744    1.455   .     S
C742   O825    1.295   .     A
C744   C559    1.360   1_655 S
C744   O612    1.388   1_655 S
C745   C758    1.482   .     S
C745   C756    1.415   .     A
C745   C747    1.411   .     A
C746   C760    1.489   .     S
C746   C749    1.411   .     A
C746   C757    1.412   .     A
C747   C750    1.403   .     A
C747   O801    1.386   .     S
C748   C751    1.483   .     S
C748   O806    1.304   .     A
C748   O823    1.308   .     A
C749   O802    1.381   .     S
C749   C751    1.416   .     A
C750   C752    1.412   .     A
C751   C753    1.418   .     A
C752   O803    1.385   .     S
C752   C754    1.392   .     A
C753   O804    1.381   .     S
C753   C755    1.403   .     A
C754   C756    1.417   .     A
C754   O805    1.382   .     S
C755   C757    1.403   .     A
C755   O807    1.384   .     S
C756   C1033   1.477   1_545 S
C757   C1032   1.477   .     S
C758   O798    1.397   .     S
C758   O1073   1.223   1_545 S
C759   O808    1.383   .     S
C759   C768    1.421   .     A
C760   O800    1.399   .     S
C760   O1075   1.223   .     S
C761   O810    1.215   .     D
C761   C768    1.496   .     S
C761   O811    1.401   .     S
C762   O812    1.220   .     D
C762   O813    1.399   .     S
C762   C769    1.475   .     S
C763   O814    1.221   .     D
C763   O815    1.397   .     S
C763   C770    1.475   .     S
C764   C771    1.478   .     S
C764   O818    1.398   .     S
C764   O816    1.221   .     D
C765   O820    1.398   .     S
C765   C772    1.489   .     S
C766   O822    1.399   .     S
C766   O821    1.221   .     D
C767   O809    1.384   .     S
C767   C769    1.416   .     A
C768   N793    1.389   .     A
C769   N794    1.385   .     A
C770   N793    1.387   .     A
C770   C772    1.430   .     A
C771   N794    1.386   .     A
Cu773  O824    1.983   .     S
Cu773  N794    2.030   .     S
Cu773  O827    1.986   .     S
Cu773  Cu774   2.702   .     S
Cu773  O795    1.957   .     S
Cu773  O823    1.951   .     S
Cu774  O806    1.957   .     S
Cu774  O825    1.983   .     S
Cu774  N793    2.030   .     S
Cu774  O817    1.951   .     S
Cu774  O826    1.986   .     S
H776   O807    0.990   .     S
H777   O808    0.992   .     S
H778   O809    0.990   .     S
H779   O811    1.014   .     S
H780   O813    1.014   .     S
H781   O815    1.014   .     S
H782   O818    1.014   .     S
H783   O268    1.014   1_556 S
H784   O822    1.013   .     S
H785   O612    0.989   1_655 S
H786   O798    1.012   .     S
H787   O800    1.014   .     S
H788   O801    0.988   .     S
H789   O802    0.990   .     S
H790   O803    0.988   .     S
H791   O804    0.991   .     S
H792   O1081   0.989   .     S
O797   C1034   1.223   .     S
O799   C1036   1.223   1_545 S
O805   H1068   0.989   1_545 S
O819   C213    1.223   1_556 S
O828   C559    1.384   1_655 S
O828   H591    0.990   1_655 S
C829   O887    1.296   .     A
C829   O909    1.297   .     A
C829   C842    1.449   .     S
C830   C863    1.427   .     A
C830   C832    1.415   .     A
C830   C858    1.491   .     S
C831   C851    1.401   .     A
C831   C864    1.414   .     A
C832   C859    1.414   .     A
C832   C279    1.526   1_556 S
C833   O916    1.292   .     A
C833   C835    1.453   .     S
C833   O918    1.302   .     A
C834   O919    1.300   .     A
C834   C836    1.455   .     S
C834   O917    1.295   .     A
C835   C1020   1.360   1_455 S
C835   O1104   1.384   1_455 S
C836   C927    1.360   .     S
C836   O980    1.388   .     S
C837   C850    1.482   .     S
C837   C848    1.415   .     A
C837   C839    1.411   .     A
C838   C852    1.489   .     S
C838   C841    1.411   .     A
C838   C849    1.412   .     A
C839   C842    1.403   .     A
C839   O893    1.386   .     S
C840   C843    1.483   .     S
C840   O898    1.304   .     A
C840   O915    1.308   .     A
C841   O894    1.381   .     S
C841   C843    1.416   .     A
C842   C844    1.412   .     A
C843   C845    1.418   .     A
C844   O895    1.385   .     S
C844   C846    1.392   .     A
C845   O896    1.381   .     S
C845   C847    1.403   .     A
C846   C848    1.417   .     A
C846   O897    1.382   .     S
C847   C849    1.403   .     A
C847   O899    1.384   .     S
C849   C572    1.477   1_565 S
C850   O890    1.397   .     S
C851   O900    1.383   .     S
C851   C860    1.421   .     A
C852   O892    1.399   .     S
C852   O615    1.223   1_565 S
C853   O902    1.215   .     D
C853   C860    1.496   .     S
C853   O903    1.401   .     S
C854   O904    1.220   .     D
C854   O905    1.399   .     S
C854   C861    1.475   .     S
C855   O906    1.221   .     D
C855   O907    1.397   .     S
C855   C862    1.475   .     S
C856   C863    1.478   .     S
C856   O910    1.398   .     S
C856   O908    1.221   .     D
C857   O912    1.398   .     S
C857   C864    1.489   .     S
C858   O914    1.399   .     S
C858   O913    1.221   .     D
C859   O901    1.384   .     S
C859   C861    1.416   .     A
C860   N885    1.389   .     A
C861   N886    1.385   .     A
C862   N885    1.387   .     A
C862   C864    1.430   .     A
C863   N886    1.386   .     A
Cu865  O916    1.983   .     S
Cu865  N886    2.030   .     S
Cu865  O919    1.986   .     S
Cu865  Cu866   2.702   .     S
Cu865  O887    1.957   .     S
Cu865  O915    1.951   .     S
Cu866  O898    1.957   .     S
Cu866  O917    1.983   .     S
Cu866  N885    2.030   .     S
Cu866  O909    1.951   .     S
Cu866  O918    1.986   .     S
H867   O1104   0.990   1_455 S
H868   O899    0.990   .     S
H869   O900    0.992   .     S
H870   O901    0.990   .     S
H871   O903    1.014   .     S
H872   O905    1.014   .     S
H873   O907    1.014   .     S
H874   O910    1.014   .     S
H875   O360    1.014   1_556 S
H876   O914    1.013   .     S
H877   O980    0.989   .     S
H878   O890    1.012   .     S
H879   O892    1.014   .     S
H880   O893    0.988   .     S
H881   O894    0.990   .     S
H882   O895    0.988   .     S
H883   O896    0.991   .     S
H884   O621    0.989   1_565 S
O888   H1061   0.989   1_455 S
O888   C1020   1.388   1_455 S
O889   C574    1.223   1_565 S
O911   C305    1.223   1_556 S
O920   C927    1.384   .     S
O920   H959    0.990   .     S
C921   O979    1.296   .     A
C921   O1001   1.297   .     A
C921   C934    1.449   .     S
C922   C955    1.427   .     A
C922   C924    1.415   .     A
C922   C950    1.491   .     S
C923   C943    1.401   .     A
C923   C956    1.414   .     A
C924   C951    1.414   .     A
C924   C371    1.526   1_556 S
C925   O1008   1.292   .     A
C925   C927    1.453   .     S
C925   O1010   1.302   .     A
C926   O1011   1.300   .     A
C926   C928    1.455   .     S
C926   O1009   1.295   .     A
C928   C1019   1.360   .     S
C928   O1072   1.388   .     S
C929   C942    1.482   .     S
C929   C940    1.415   .     A
C929   C931    1.411   .     A
C930   C944    1.489   .     S
C930   C933    1.411   .     A
C930   C941    1.412   .     A
C931   C934    1.403   .     A
C931   O985    1.386   .     S
C932   C935    1.483   .     S
C932   O990    1.304   .     A
C932   O1007   1.308   .     A
C933   O986    1.381   .     S
C933   C935    1.416   .     A
C934   C936    1.412   .     A
C935   C937    1.418   .     A
C936   O987    1.385   .     S
C936   C938    1.392   .     A
C937   O988    1.381   .     S
C937   C939    1.403   .     A
C938   C940    1.417   .     A
C938   O989    1.382   .     S
C939   C941    1.403   .     A
C939   O991    1.384   .     S
C941   C664    1.477   1_565 S
C942   O982    1.397   .     S
C943   O992    1.383   .     S
C943   C952    1.421   .     A
C944   O984    1.399   .     S
C944   O707    1.223   1_565 S
C945   O994    1.215   .     D
C945   C952    1.496   .     S
C945   O995    1.401   .     S
C946   O996    1.220   .     D
C946   O997    1.399   .     S
C946   C953    1.475   .     S
C947   O998    1.221   .     D
C947   O999    1.397   .     S
C947   C954    1.475   .     S
C948   C955    1.478   .     S
C948   O1002   1.398   .     S
C948   O1000   1.221   .     D
C949   O1004   1.398   .     S
C949   C956    1.489   .     S
C950   O1006   1.399   .     S
C950   O1005   1.221   .     D
C951   O993    1.384   .     S
C951   C953    1.416   .     A
C952   N977    1.389   .     A
C953   N978    1.385   .     A
C954   N977    1.387   .     A
C954   C956    1.430   .     A
C955   N978    1.386   .     A
Cu957  O1008   1.983   .     S
Cu957  N978    2.030   .     S
Cu957  O1011   1.986   .     S
Cu957  Cu958   2.702   .     S
Cu957  O979    1.957   .     S
Cu957  O1007   1.951   .     S
Cu958  O990    1.957   .     S
Cu958  O1009   1.983   .     S
Cu958  N977    2.030   .     S
Cu958  O1001   1.951   .     S
Cu958  O1010   1.986   .     S
H960   O991    0.990   .     S
H961   O992    0.992   .     S
H962   O993    0.990   .     S
H963   O995    1.014   .     S
H964   O997    1.014   .     S
H965   O999    1.014   .     S
H966   O1002   1.014   .     S
H967   O452    1.014   1_556 S
H968   O1006   1.013   .     S
H969   O1072   0.989   .     S
H970   O982    1.012   .     S
H971   O984    1.014   .     S
H972   O985    0.988   .     S
H973   O986    0.990   .     S
H974   O987    0.988   .     S
H975   O988    0.991   .     S
H976   O713    0.989   1_565 S
O981   C666    1.223   1_565 S
O1003  C397    1.223   1_556 S
O1012  C1019   1.384   .     S
O1012  H1051   0.990   .     S
C1013  O1071   1.296   .     A
C1013  O1093   1.297   .     A
C1013  C1026   1.449   .     S
C1014  C1047   1.427   .     A
C1014  C1016   1.415   .     A
C1014  C1042   1.491   .     S
C1015  C1035   1.401   .     A
C1015  C1048   1.414   .     A
C1016  C1043   1.414   .     A
C1016  C463    1.526   1_556 S
C1017  O1100   1.292   .     A
C1017  C1019   1.453   .     S
C1017  O1102   1.302   .     A
C1018  O1103   1.300   .     A
C1018  C1020   1.455   .     S
C1018  O1101   1.295   .     A
C1020  C835    1.360   1_655 S
C1020  O888    1.388   1_655 S
C1021  C1034   1.482   .     S
C1021  C1032   1.415   .     A
C1021  C1023   1.411   .     A
C1022  C1036   1.489   .     S
C1022  C1025   1.411   .     A
C1022  C1033   1.412   .     A
C1023  C1026   1.403   .     A
C1023  O1077   1.386   .     S
C1024  C1027   1.483   .     S
C1024  O1082   1.304   .     A
C1024  O1099   1.308   .     A
C1025  O1078   1.381   .     S
C1025  C1027   1.416   .     A
C1026  C1028   1.412   .     A
C1027  C1029   1.418   .     A
C1028  O1079   1.385   .     S
C1028  C1030   1.392   .     A
C1029  O1080   1.381   .     S
C1029  C1031   1.403   .     A
C1030  C1032   1.417   .     A
C1030  O1081   1.382   .     S
C1031  C1033   1.403   .     A
C1031  O1083   1.384   .     S
C1033  C756    1.477   1_565 S
C1034  O1074   1.397   .     S
C1035  O1084   1.383   .     S
C1035  C1044   1.421   .     A
C1036  O1076   1.399   .     S
C1036  O799    1.223   1_565 S
C1037  O1086   1.215   .     D
C1037  C1044   1.496   .     S
C1037  O1087   1.401   .     S
C1038  O1088   1.220   .     D
C1038  O1089   1.399   .     S
C1038  C1045   1.475   .     S
C1039  O1090   1.221   .     D
C1039  O1091   1.397   .     S
C1039  C1046   1.475   .     S
C1040  C1047   1.478   .     S
C1040  O1094   1.398   .     S
C1040  O1092   1.221   .     D
C1041  O1096   1.398   .     S
C1041  C1048   1.489   .     S
C1042  O1098   1.399   .     S
C1042  O1097   1.221   .     D
C1043  O1085   1.384   .     S
C1043  C1045   1.416   .     A
C1044  N1069   1.389   .     A
C1045  N1070   1.385   .     A
C1046  N1069   1.387   .     A
C1046  C1048   1.430   .     A
C1047  N1070   1.386   .     A
Cu1049 O1100   1.983   .     S
Cu1049 N1070   2.030   .     S
Cu1049 O1103   1.986   .     S
Cu1049 Cu1050  2.702   .     S
Cu1049 O1071   1.957   .     S
Cu1049 O1099   1.951   .     S
Cu1050 O1082   1.957   .     S
Cu1050 O1101   1.983   .     S
Cu1050 N1069   2.030   .     S
Cu1050 O1093   1.951   .     S
Cu1050 O1102   1.986   .     S
H1052  O1083   0.990   .     S
H1053  O1084   0.992   .     S
H1054  O1085   0.990   .     S
H1055  O1087   1.014   .     S
H1056  O1089   1.014   .     S
H1057  O1091   1.014   .     S
H1058  O1094   1.014   .     S
H1059  O544    1.014   1_556 S
H1060  O1098   1.013   .     S
H1061  O888    0.989   1_655 S
H1062  O1074   1.012   .     S
H1063  O1076   1.014   .     S
H1064  O1077   0.988   .     S
H1065  O1078   0.990   .     S
H1066  O1079   0.988   .     S
H1067  O1080   0.991   .     S
H1068  O805    0.989   1_565 S
O1073  C758    1.223   1_565 S
O1095  C489    1.223   1_556 S
O1104  C835    1.384   1_655 S
O1104  H867    0.990   1_655 S
