data_str_m2_o1_o16_pcu_sym.220
_audit_creation_date              2020-01-03
_audit_creation_method            'Materials Studio'
_symmetry_space_group_name_H-M    'P1'
_symmetry_Int_Tables_number       1
_symmetry_cell_setting            triclinic
loop_
_symmetry_equiv_pos_as_xyz
  x,y,z
_cell_length_a                    28.9548
_cell_length_b                    32.7890
_cell_length_c                    26.9526
_cell_angle_alpha                 94.2617
_cell_angle_beta                  71.7787
_cell_angle_gamma                 87.6533
loop_
_atom_site_label
_atom_site_type_symbol
_atom_site_fract_x
_atom_site_fract_y
_atom_site_fract_z
_atom_site_U_iso_or_equiv
_atom_site_adp_type
_atom_site_occupancy
C1     C     0.16619   0.24591   0.24874   0.00000  Uiso   1.00
C2     C     0.14755   0.17571   0.48876   0.00000  Uiso   1.00
C3     C     0.15722   0.15894   0.43595   0.00000  Uiso   1.00
C4     C     0.18309   0.16698   0.01367   0.00000  Uiso   1.00
C5     C     0.23080   0.15202   0.48323   0.00000  Uiso   1.00
C6     C     0.23909   0.13385   0.43197   0.00000  Uiso   1.00
C7     C     0.20051   0.13406   0.41126   0.00000  Uiso   1.00
C8     C     0.17214   0.17011   0.06816   0.00000  Uiso   1.00
C9     C     0.25805   0.16759   0.05912   0.00000  Uiso   1.00
C10    C     0.12470   0.16899   0.40800   0.00000  Uiso   1.00
C11    C     0.21130   0.30910   0.23044   0.00000  Uiso   1.00
C12    C     0.14046   0.16558   0.35001   0.00000  Uiso   1.00
C13    C     0.21266   0.01789   0.24365   0.00000  Uiso   1.00
C14    C     0.16895   0.04309   0.25448   0.00000  Uiso   1.00
C15    C     0.12458   0.02512   0.26527   0.00000  Uiso   1.00
C16    C     0.12217   0.31638   0.26425   0.00000  Uiso   1.00
C17    C     0.16594   0.29083   0.24632   0.00000  Uiso   1.00
C18    C     0.29669   0.19178   0.28589   0.00000  Uiso   1.00
C19    C     0.01264   0.19182   0.28598   0.00000  Uiso   1.00
C20    C     0.03608   0.14027   0.21557   0.00000  Uiso   1.00
C21    C     0.32084   0.14216   0.21298   0.00000  Uiso   1.00
C22    C     0.16732   0.08762   0.25187   0.00000  Uiso   1.00
C23    C     0.19314   0.16823   0.14991   0.00000  Uiso   1.00
C24    C     0.26847   0.15545   0.00554   0.00000  Uiso   1.00
C25    C     0.20884   0.16911   0.09201   0.00000  Uiso   1.00
C26    C     0.08051   0.19094   0.43459   0.00000  Uiso   1.00
C27    C     0.07141   0.20845   0.48522   0.00000  Uiso   1.00
C28    C     0.10503   0.20312   0.01217   0.00000  Uiso   1.00
Cu29   Cu    0.11978   0.16666   0.25000   0.00000  Uiso   1.00
Cu30   Cu    0.21355   0.16667   0.25000   0.00000  Uiso   1.00
H31    H     0.09092   0.04435   0.27756   0.00000  Uiso   1.00
H32    H     0.30619   0.15036   0.48113   0.00000  Uiso   1.00
H33    H     0.13450   0.17203   0.09216   0.00000  Uiso   1.00
H34    H     0.05508   0.19878   0.41447   0.00000  Uiso   1.00
H35    H     0.03947   0.22937   0.00175   0.00000  Uiso   1.00
H36    H     0.20576   0.11646   0.37412   0.00000  Uiso   1.00
N37    N     0.04931   0.16666   0.24998   0.00000  Uiso   1.00
N38    N     0.28402   0.16669   0.24999   0.00000  Uiso   1.00
O39    O     0.12708   0.22678   0.25000   0.00000  Uiso   1.00
O40    O     0.20627   0.22679   0.25000   0.00000  Uiso   1.00
O41    O     0.10775   0.16665   0.32549   0.00000  Uiso   1.00
O42    O     0.18694   0.16666   0.32549   0.00000  Uiso   1.00
O43    O     0.12706   0.10654   0.24999   0.00000  Uiso   1.00
O44    O     0.20625   0.10655   0.24999   0.00000  Uiso   1.00
O45    O     0.14640   0.16667   0.17451   0.00000  Uiso   1.00
O46    O     0.22559   0.16668   0.17451   0.00000  Uiso   1.00
C47    C     0.29909   0.18452   0.07572   0.00000  Uiso   1.00
H48    H     0.29416   0.18659   0.11789   0.00000  Uiso   1.00
H49    H     0.00037   0.16612   0.05519   0.00000  Uiso   1.00
H50    H     0.30316   0.21622   0.06412   0.00000  Uiso   1.00
C51    C     0.25910   0.03318   0.25081   0.00000  Uiso   1.00
H52    H     0.25345   0.06189   0.27675   0.00000  Uiso   1.00
H53    H     0.27405   0.01114   0.27213   0.00000  Uiso   1.00
H54    H     0.28682   0.03588   0.21232   0.00000  Uiso   1.00
C55    C     0.07241   0.30088   0.28522   0.00000  Uiso   1.00
H56    H     0.06489   0.27899   0.25576   0.00000  Uiso   1.00
H57    H     0.07067   0.28743   0.32210   0.00000  Uiso   1.00
H58    H     0.04284   0.32574   0.29546   0.00000  Uiso   1.00
C59    C     0.25980   0.22098   0.32388   0.00000  Uiso   1.00
O60    O     0.24051   0.21218   0.36858   0.00000  Uiso   1.00
O61    O     0.25256   0.26064   0.31087   0.00000  Uiso   1.00
H62    H     0.22801   0.27840   0.34064   0.00000  Uiso   1.00
C63    C     0.02183   0.21791   0.32969   0.00000  Uiso   1.00
H64    H     0.06014   0.22158   0.32427   0.00000  Uiso   1.00
H65    H     0.00465   0.24925   0.33316   0.00000  Uiso   1.00
H66    H     0.00486   0.20448   0.36711   0.00000  Uiso   1.00
C67    C     0.06931   0.10476   0.18671   0.00000  Uiso   1.00
O68    O     0.06231   0.07098   0.20294   0.00000  Uiso   1.00
O69    O     0.10478   0.10855   0.13876   0.00000  Uiso   1.00
H70    H     0.12398   0.08165   0.12260   0.00000  Uiso   1.00
C71    C     0.31316   0.11890   0.16671   0.00000  Uiso   1.00
O72    O     0.27752   0.09949   0.17081   0.00000  Uiso   1.00
O73    O     0.01582   0.11744   0.11776   0.00000  Uiso   1.00
H74    H     0.00796   0.09925   0.08975   0.00000  Uiso   1.00
C75    C     0.28764   0.11271   0.39968   0.00000  Uiso   1.00
H76    H     0.28671   0.09860   0.36126   0.00000  Uiso   1.00
H77    H     0.31611   0.13517   0.39164   0.00000  Uiso   1.00
H78    H     0.29786   0.08809   0.42119   0.00000  Uiso   1.00
C79    C     0.09693   0.23215   0.06095   0.00000  Uiso   1.00
H80    H     0.07462   0.21814   0.09611   0.00000  Uiso   1.00
H81    H     0.13190   0.24150   0.06543   0.00000  Uiso   1.00
H82    H     0.07673   0.26112   0.05860   0.00000  Uiso   1.00
C83    C     0.25598   0.28533   0.19484   0.00000  Uiso   1.00
O84    O     0.25315   0.26424   0.15668   0.00000  Uiso   1.00
O85    O     0.30068   0.28660   0.20441   0.00000  Uiso   1.00
H86    H     0.32755   0.26861   0.17737   0.00000  Uiso   1.00
C87    C     0.49952   0.24591   0.24874   0.00000  Uiso   1.00
C88    C     0.48088   0.17571   0.48876   0.00000  Uiso   1.00
C89    C     0.49056   0.15894   0.43595   0.00000  Uiso   1.00
C90    C     0.51642   0.16698   0.01367   0.00000  Uiso   1.00
C91    C     0.56413   0.15202   0.48323   0.00000  Uiso   1.00
C92    C     0.57242   0.13385   0.43197   0.00000  Uiso   1.00
C93    C     0.53385   0.13406   0.41126   0.00000  Uiso   1.00
C94    C     0.50547   0.17011   0.06816   0.00000  Uiso   1.00
C95    C     0.59138   0.16759   0.05912   0.00000  Uiso   1.00
C96    C     0.45803   0.16899   0.40800   0.00000  Uiso   1.00
C97    C     0.54463   0.30910   0.23044   0.00000  Uiso   1.00
C98    C     0.47379   0.16558   0.35001   0.00000  Uiso   1.00
C99    C     0.54600   0.01789   0.24365   0.00000  Uiso   1.00
C100   C     0.50228   0.04309   0.25448   0.00000  Uiso   1.00
C101   C     0.45791   0.02512   0.26527   0.00000  Uiso   1.00
C102   C     0.45550   0.31638   0.26425   0.00000  Uiso   1.00
C103   C     0.49928   0.29083   0.24632   0.00000  Uiso   1.00
C104   C     0.63002   0.19178   0.28589   0.00000  Uiso   1.00
C105   C     0.34597   0.19182   0.28598   0.00000  Uiso   1.00
C106   C     0.36941   0.14027   0.21557   0.00000  Uiso   1.00
C107   C     0.65417   0.14216   0.21298   0.00000  Uiso   1.00
C108   C     0.50065   0.08762   0.25187   0.00000  Uiso   1.00
C109   C     0.52648   0.16823   0.14991   0.00000  Uiso   1.00
C110   C     0.60180   0.15545   0.00554   0.00000  Uiso   1.00
C111   C     0.54217   0.16911   0.09201   0.00000  Uiso   1.00
C112   C     0.41384   0.19094   0.43459   0.00000  Uiso   1.00
C113   C     0.40474   0.20845   0.48522   0.00000  Uiso   1.00
C114   C     0.43837   0.20312   0.01217   0.00000  Uiso   1.00
Cu115  Cu    0.45311   0.16666   0.25000   0.00000  Uiso   1.00
Cu116  Cu    0.54689   0.16667   0.25000   0.00000  Uiso   1.00
H117   H     0.42425   0.04435   0.27756   0.00000  Uiso   1.00
H118   H     0.63952   0.15036   0.48113   0.00000  Uiso   1.00
H119   H     0.46783   0.17203   0.09216   0.00000  Uiso   1.00
H120   H     0.38841   0.19878   0.41447   0.00000  Uiso   1.00
H121   H     0.37280   0.22937   0.00175   0.00000  Uiso   1.00
H122   H     0.53910   0.11646   0.37412   0.00000  Uiso   1.00
N123   N     0.38265   0.16666   0.24998   0.00000  Uiso   1.00
N124   N     0.61735   0.16669   0.24999   0.00000  Uiso   1.00
O125   O     0.46042   0.22678   0.25000   0.00000  Uiso   1.00
O126   O     0.53961   0.22679   0.25000   0.00000  Uiso   1.00
O127   O     0.44108   0.16665   0.32549   0.00000  Uiso   1.00
O128   O     0.52027   0.16666   0.32549   0.00000  Uiso   1.00
O129   O     0.46039   0.10654   0.24999   0.00000  Uiso   1.00
O130   O     0.53958   0.10655   0.24999   0.00000  Uiso   1.00
O131   O     0.47973   0.16667   0.17451   0.00000  Uiso   1.00
O132   O     0.55892   0.16668   0.17451   0.00000  Uiso   1.00
C133   C     0.63243   0.18452   0.07572   0.00000  Uiso   1.00
H134   H     0.62749   0.18659   0.11789   0.00000  Uiso   1.00
H135   H     0.33371   0.16612   0.05519   0.00000  Uiso   1.00
H136   H     0.63649   0.21622   0.06412   0.00000  Uiso   1.00
C137   C     0.59243   0.03318   0.25081   0.00000  Uiso   1.00
H138   H     0.58678   0.06189   0.27675   0.00000  Uiso   1.00
H139   H     0.60739   0.01114   0.27213   0.00000  Uiso   1.00
H140   H     0.62016   0.03588   0.21232   0.00000  Uiso   1.00
C141   C     0.40575   0.30088   0.28522   0.00000  Uiso   1.00
H142   H     0.39822   0.27899   0.25576   0.00000  Uiso   1.00
H143   H     0.40401   0.28743   0.32210   0.00000  Uiso   1.00
H144   H     0.37618   0.32574   0.29546   0.00000  Uiso   1.00
C145   C     0.59314   0.22098   0.32388   0.00000  Uiso   1.00
O146   O     0.57384   0.21218   0.36858   0.00000  Uiso   1.00
O147   O     0.58589   0.26064   0.31087   0.00000  Uiso   1.00
H148   H     0.56134   0.27840   0.34064   0.00000  Uiso   1.00
C149   C     0.35516   0.21791   0.32969   0.00000  Uiso   1.00
H150   H     0.39348   0.22158   0.32427   0.00000  Uiso   1.00
H151   H     0.33798   0.24925   0.33316   0.00000  Uiso   1.00
H152   H     0.33819   0.20448   0.36711   0.00000  Uiso   1.00
C153   C     0.40264   0.10476   0.18671   0.00000  Uiso   1.00
O154   O     0.39565   0.07098   0.20294   0.00000  Uiso   1.00
O155   O     0.43811   0.10855   0.13876   0.00000  Uiso   1.00
H156   H     0.45732   0.08165   0.12260   0.00000  Uiso   1.00
C157   C     0.64649   0.11890   0.16671   0.00000  Uiso   1.00
O158   O     0.61085   0.09949   0.17081   0.00000  Uiso   1.00
O159   O     0.34916   0.11744   0.11776   0.00000  Uiso   1.00
H160   H     0.34130   0.09925   0.08975   0.00000  Uiso   1.00
C161   C     0.62098   0.11271   0.39968   0.00000  Uiso   1.00
H162   H     0.62004   0.09860   0.36126   0.00000  Uiso   1.00
H163   H     0.64944   0.13517   0.39164   0.00000  Uiso   1.00
H164   H     0.63119   0.08809   0.42119   0.00000  Uiso   1.00
C165   C     0.43026   0.23215   0.06095   0.00000  Uiso   1.00
H166   H     0.40795   0.21814   0.09611   0.00000  Uiso   1.00
H167   H     0.46523   0.24150   0.06543   0.00000  Uiso   1.00
H168   H     0.41006   0.26112   0.05860   0.00000  Uiso   1.00
C169   C     0.58932   0.28533   0.19484   0.00000  Uiso   1.00
O170   O     0.58649   0.26424   0.15668   0.00000  Uiso   1.00
O171   O     0.63401   0.28660   0.20441   0.00000  Uiso   1.00
H172   H     0.66089   0.26861   0.17737   0.00000  Uiso   1.00
C173   C     0.83285   0.24591   0.24874   0.00000  Uiso   1.00
C174   C     0.81421   0.17571   0.48876   0.00000  Uiso   1.00
C175   C     0.82389   0.15894   0.43595   0.00000  Uiso   1.00
C176   C     0.84975   0.16698   0.01367   0.00000  Uiso   1.00
C177   C     0.89746   0.15202   0.48323   0.00000  Uiso   1.00
C178   C     0.90575   0.13385   0.43197   0.00000  Uiso   1.00
C179   C     0.86718   0.13406   0.41126   0.00000  Uiso   1.00
C180   C     0.83880   0.17011   0.06816   0.00000  Uiso   1.00
C181   C     0.92472   0.16759   0.05912   0.00000  Uiso   1.00
C182   C     0.79136   0.16899   0.40800   0.00000  Uiso   1.00
C183   C     0.87796   0.30910   0.23044   0.00000  Uiso   1.00
C184   C     0.80712   0.16558   0.35001   0.00000  Uiso   1.00
C185   C     0.87933   0.01789   0.24365   0.00000  Uiso   1.00
C186   C     0.83561   0.04309   0.25448   0.00000  Uiso   1.00
C187   C     0.79124   0.02512   0.26527   0.00000  Uiso   1.00
C188   C     0.78883   0.31638   0.26425   0.00000  Uiso   1.00
C189   C     0.83261   0.29083   0.24632   0.00000  Uiso   1.00
C190   C     0.96336   0.19178   0.28589   0.00000  Uiso   1.00
C191   C     0.67931   0.19182   0.28598   0.00000  Uiso   1.00
C192   C     0.70275   0.14027   0.21557   0.00000  Uiso   1.00
C193   C     0.98751   0.14216   0.21298   0.00000  Uiso   1.00
C194   C     0.83398   0.08762   0.25187   0.00000  Uiso   1.00
C195   C     0.85981   0.16823   0.14991   0.00000  Uiso   1.00
C196   C     0.93514   0.15545   0.00554   0.00000  Uiso   1.00
C197   C     0.87550   0.16911   0.09201   0.00000  Uiso   1.00
C198   C     0.74718   0.19094   0.43459   0.00000  Uiso   1.00
C199   C     0.73807   0.20845   0.48522   0.00000  Uiso   1.00
C200   C     0.77170   0.20312   0.01217   0.00000  Uiso   1.00
Cu201  Cu    0.78645   0.16666   0.25000   0.00000  Uiso   1.00
Cu202  Cu    0.88022   0.16667   0.25000   0.00000  Uiso   1.00
H203   H     0.75758   0.04435   0.27756   0.00000  Uiso   1.00
H204   H     0.97286   0.15036   0.48113   0.00000  Uiso   1.00
H205   H     0.80117   0.17203   0.09216   0.00000  Uiso   1.00
H206   H     0.72174   0.19878   0.41447   0.00000  Uiso   1.00
H207   H     0.70613   0.22937   0.00175   0.00000  Uiso   1.00
H208   H     0.87243   0.11646   0.37412   0.00000  Uiso   1.00
N209   N     0.71598   0.16666   0.24998   0.00000  Uiso   1.00
N210   N     0.95069   0.16669   0.24999   0.00000  Uiso   1.00
O211   O     0.79375   0.22678   0.25000   0.00000  Uiso   1.00
O212   O     0.87294   0.22679   0.25000   0.00000  Uiso   1.00
O213   O     0.77441   0.16665   0.32549   0.00000  Uiso   1.00
O214   O     0.85360   0.16666   0.32549   0.00000  Uiso   1.00
O215   O     0.79373   0.10654   0.24999   0.00000  Uiso   1.00
O216   O     0.87292   0.10655   0.24999   0.00000  Uiso   1.00
O217   O     0.81306   0.16667   0.17451   0.00000  Uiso   1.00
O218   O     0.89225   0.16668   0.17451   0.00000  Uiso   1.00
C219   C     0.96576   0.18452   0.07572   0.00000  Uiso   1.00
H220   H     0.96082   0.18659   0.11789   0.00000  Uiso   1.00
H221   H     0.66704   0.16612   0.05519   0.00000  Uiso   1.00
H222   H     0.96983   0.21622   0.06412   0.00000  Uiso   1.00
C223   C     0.92576   0.03318   0.25081   0.00000  Uiso   1.00
H224   H     0.92012   0.06189   0.27675   0.00000  Uiso   1.00
H225   H     0.94072   0.01114   0.27213   0.00000  Uiso   1.00
H226   H     0.95349   0.03588   0.21232   0.00000  Uiso   1.00
C227   C     0.73908   0.30088   0.28522   0.00000  Uiso   1.00
H228   H     0.73155   0.27899   0.25576   0.00000  Uiso   1.00
H229   H     0.73734   0.28743   0.32210   0.00000  Uiso   1.00
H230   H     0.70951   0.32574   0.29546   0.00000  Uiso   1.00
C231   C     0.92647   0.22098   0.32388   0.00000  Uiso   1.00
O232   O     0.90717   0.21218   0.36858   0.00000  Uiso   1.00
O233   O     0.91922   0.26064   0.31087   0.00000  Uiso   1.00
H234   H     0.89467   0.27840   0.34064   0.00000  Uiso   1.00
C235   C     0.68850   0.21791   0.32969   0.00000  Uiso   1.00
H236   H     0.72681   0.22158   0.32427   0.00000  Uiso   1.00
H237   H     0.67132   0.24925   0.33316   0.00000  Uiso   1.00
H238   H     0.67153   0.20448   0.36711   0.00000  Uiso   1.00
C239   C     0.73598   0.10476   0.18671   0.00000  Uiso   1.00
O240   O     0.72898   0.07098   0.20294   0.00000  Uiso   1.00
O241   O     0.77145   0.10855   0.13876   0.00000  Uiso   1.00
H242   H     0.79065   0.08165   0.12260   0.00000  Uiso   1.00
C243   C     0.97982   0.11890   0.16671   0.00000  Uiso   1.00
O244   O     0.94418   0.09949   0.17081   0.00000  Uiso   1.00
O245   O     0.68249   0.11744   0.11776   0.00000  Uiso   1.00
H246   H     0.67463   0.09925   0.08975   0.00000  Uiso   1.00
C247   C     0.95431   0.11271   0.39968   0.00000  Uiso   1.00
H248   H     0.95337   0.09860   0.36126   0.00000  Uiso   1.00
H249   H     0.98278   0.13517   0.39164   0.00000  Uiso   1.00
H250   H     0.96453   0.08809   0.42119   0.00000  Uiso   1.00
C251   C     0.76359   0.23215   0.06095   0.00000  Uiso   1.00
H252   H     0.74129   0.21814   0.09611   0.00000  Uiso   1.00
H253   H     0.79856   0.24150   0.06543   0.00000  Uiso   1.00
H254   H     0.74339   0.26112   0.05860   0.00000  Uiso   1.00
C255   C     0.92265   0.28533   0.19484   0.00000  Uiso   1.00
O256   O     0.91982   0.26424   0.15668   0.00000  Uiso   1.00
O257   O     0.96735   0.28660   0.20441   0.00000  Uiso   1.00
H258   H     0.99422   0.26861   0.17737   0.00000  Uiso   1.00
C259   C     0.16619   0.57924   0.24874   0.00000  Uiso   1.00
C260   C     0.14755   0.50905   0.48876   0.00000  Uiso   1.00
C261   C     0.15722   0.49227   0.43595   0.00000  Uiso   1.00
C262   C     0.18309   0.50031   0.01367   0.00000  Uiso   1.00
C263   C     0.23080   0.48535   0.48323   0.00000  Uiso   1.00
C264   C     0.23909   0.46718   0.43197   0.00000  Uiso   1.00
C265   C     0.20051   0.46739   0.41126   0.00000  Uiso   1.00
C266   C     0.17214   0.50345   0.06816   0.00000  Uiso   1.00
C267   C     0.25805   0.50092   0.05912   0.00000  Uiso   1.00
C268   C     0.12470   0.50232   0.40800   0.00000  Uiso   1.00
C269   C     0.21130   0.64244   0.23044   0.00000  Uiso   1.00
C270   C     0.14046   0.49891   0.35001   0.00000  Uiso   1.00
C271   C     0.21266   0.35122   0.24365   0.00000  Uiso   1.00
C272   C     0.16895   0.37642   0.25448   0.00000  Uiso   1.00
C273   C     0.12458   0.35846   0.26527   0.00000  Uiso   1.00
C274   C     0.12217   0.64971   0.26425   0.00000  Uiso   1.00
C275   C     0.16594   0.62416   0.24632   0.00000  Uiso   1.00
C276   C     0.29669   0.52512   0.28589   0.00000  Uiso   1.00
C277   C     0.01264   0.52515   0.28598   0.00000  Uiso   1.00
C278   C     0.03608   0.47360   0.21557   0.00000  Uiso   1.00
C279   C     0.32084   0.47550   0.21298   0.00000  Uiso   1.00
C280   C     0.16732   0.42096   0.25187   0.00000  Uiso   1.00
C281   C     0.19314   0.50156   0.14991   0.00000  Uiso   1.00
C282   C     0.26847   0.48879   0.00554   0.00000  Uiso   1.00
C283   C     0.20884   0.50244   0.09201   0.00000  Uiso   1.00
C284   C     0.08051   0.52427   0.43459   0.00000  Uiso   1.00
C285   C     0.07141   0.54178   0.48522   0.00000  Uiso   1.00
C286   C     0.10503   0.53646   0.01217   0.00000  Uiso   1.00
Cu287  Cu    0.11978   0.49999   0.25000   0.00000  Uiso   1.00
Cu288  Cu    0.21355   0.50001   0.25000   0.00000  Uiso   1.00
H289   H     0.09092   0.37768   0.27756   0.00000  Uiso   1.00
H290   H     0.30619   0.48370   0.48113   0.00000  Uiso   1.00
H291   H     0.13450   0.50536   0.09216   0.00000  Uiso   1.00
H292   H     0.05508   0.53211   0.41447   0.00000  Uiso   1.00
H293   H     0.03947   0.56270   0.00175   0.00000  Uiso   1.00
H294   H     0.20576   0.44979   0.37412   0.00000  Uiso   1.00
N295   N     0.04931   0.49999   0.24998   0.00000  Uiso   1.00
N296   N     0.28402   0.50002   0.24999   0.00000  Uiso   1.00
O297   O     0.12708   0.56011   0.25000   0.00000  Uiso   1.00
O298   O     0.20627   0.56012   0.25000   0.00000  Uiso   1.00
O299   O     0.10775   0.49998   0.32549   0.00000  Uiso   1.00
O300   O     0.18694   0.49999   0.32549   0.00000  Uiso   1.00
O301   O     0.12706   0.43988   0.24999   0.00000  Uiso   1.00
O302   O     0.20625   0.43989   0.24999   0.00000  Uiso   1.00
O303   O     0.14640   0.50001   0.17451   0.00000  Uiso   1.00
O304   O     0.22559   0.50002   0.17451   0.00000  Uiso   1.00
C305   C     0.29909   0.51786   0.07572   0.00000  Uiso   1.00
H306   H     0.29416   0.51993   0.11789   0.00000  Uiso   1.00
H307   H     0.00037   0.49945   0.05519   0.00000  Uiso   1.00
H308   H     0.30316   0.54955   0.06412   0.00000  Uiso   1.00
C309   C     0.25910   0.36652   0.25081   0.00000  Uiso   1.00
H310   H     0.25345   0.39522   0.27675   0.00000  Uiso   1.00
H311   H     0.27405   0.34447   0.27213   0.00000  Uiso   1.00
H312   H     0.28682   0.36921   0.21232   0.00000  Uiso   1.00
C313   C     0.07241   0.63422   0.28522   0.00000  Uiso   1.00
H314   H     0.06489   0.61232   0.25576   0.00000  Uiso   1.00
H315   H     0.07067   0.62077   0.32210   0.00000  Uiso   1.00
H316   H     0.04284   0.65907   0.29546   0.00000  Uiso   1.00
C317   C     0.25980   0.55431   0.32388   0.00000  Uiso   1.00
O318   O     0.24051   0.54552   0.36858   0.00000  Uiso   1.00
O319   O     0.25256   0.59398   0.31087   0.00000  Uiso   1.00
H320   H     0.22801   0.61173   0.34064   0.00000  Uiso   1.00
C321   C     0.02183   0.55124   0.32969   0.00000  Uiso   1.00
H322   H     0.06014   0.55491   0.32427   0.00000  Uiso   1.00
H323   H     0.00465   0.58258   0.33316   0.00000  Uiso   1.00
H324   H     0.00486   0.53782   0.36711   0.00000  Uiso   1.00
C325   C     0.06931   0.43809   0.18671   0.00000  Uiso   1.00
O326   O     0.06231   0.40431   0.20294   0.00000  Uiso   1.00
O327   O     0.10478   0.44188   0.13876   0.00000  Uiso   1.00
H328   H     0.12398   0.41499   0.12260   0.00000  Uiso   1.00
C329   C     0.31316   0.45223   0.16671   0.00000  Uiso   1.00
O330   O     0.27752   0.43282   0.17081   0.00000  Uiso   1.00
O331   O     0.01582   0.45077   0.11776   0.00000  Uiso   1.00
H332   H     0.00796   0.43259   0.08975   0.00000  Uiso   1.00
C333   C     0.28764   0.44604   0.39968   0.00000  Uiso   1.00
H334   H     0.28671   0.43193   0.36126   0.00000  Uiso   1.00
H335   H     0.31611   0.46851   0.39164   0.00000  Uiso   1.00
H336   H     0.29786   0.42142   0.42119   0.00000  Uiso   1.00
C337   C     0.09693   0.56548   0.06095   0.00000  Uiso   1.00
H338   H     0.07462   0.55147   0.09611   0.00000  Uiso   1.00
H339   H     0.13190   0.57483   0.06543   0.00000  Uiso   1.00
H340   H     0.07673   0.59445   0.05860   0.00000  Uiso   1.00
C341   C     0.25598   0.61867   0.19484   0.00000  Uiso   1.00
O342   O     0.25315   0.59758   0.15668   0.00000  Uiso   1.00
O343   O     0.30068   0.61993   0.20441   0.00000  Uiso   1.00
H344   H     0.32755   0.60194   0.17737   0.00000  Uiso   1.00
C345   C     0.49952   0.57924   0.24874   0.00000  Uiso   1.00
C346   C     0.48088   0.50905   0.48876   0.00000  Uiso   1.00
C347   C     0.49056   0.49227   0.43595   0.00000  Uiso   1.00
C348   C     0.51642   0.50031   0.01367   0.00000  Uiso   1.00
C349   C     0.56413   0.48535   0.48323   0.00000  Uiso   1.00
C350   C     0.57242   0.46718   0.43197   0.00000  Uiso   1.00
C351   C     0.53385   0.46739   0.41126   0.00000  Uiso   1.00
C352   C     0.50547   0.50345   0.06816   0.00000  Uiso   1.00
C353   C     0.59138   0.50092   0.05912   0.00000  Uiso   1.00
C354   C     0.45803   0.50232   0.40800   0.00000  Uiso   1.00
C355   C     0.54463   0.64244   0.23044   0.00000  Uiso   1.00
C356   C     0.47379   0.49891   0.35001   0.00000  Uiso   1.00
C357   C     0.54600   0.35122   0.24365   0.00000  Uiso   1.00
C358   C     0.50228   0.37642   0.25448   0.00000  Uiso   1.00
C359   C     0.45791   0.35846   0.26527   0.00000  Uiso   1.00
C360   C     0.45550   0.64971   0.26425   0.00000  Uiso   1.00
C361   C     0.49928   0.62416   0.24632   0.00000  Uiso   1.00
C362   C     0.63002   0.52512   0.28589   0.00000  Uiso   1.00
C363   C     0.34597   0.52515   0.28598   0.00000  Uiso   1.00
C364   C     0.36941   0.47360   0.21557   0.00000  Uiso   1.00
C365   C     0.65417   0.47550   0.21298   0.00000  Uiso   1.00
C366   C     0.50065   0.42096   0.25187   0.00000  Uiso   1.00
C367   C     0.52648   0.50156   0.14991   0.00000  Uiso   1.00
C368   C     0.60180   0.48879   0.00554   0.00000  Uiso   1.00
C369   C     0.54217   0.50244   0.09201   0.00000  Uiso   1.00
C370   C     0.41384   0.52427   0.43459   0.00000  Uiso   1.00
C371   C     0.40474   0.54178   0.48522   0.00000  Uiso   1.00
C372   C     0.43837   0.53646   0.01217   0.00000  Uiso   1.00
Cu373  Cu    0.45311   0.49999   0.25000   0.00000  Uiso   1.00
Cu374  Cu    0.54689   0.50001   0.25000   0.00000  Uiso   1.00
H375   H     0.42425   0.37768   0.27756   0.00000  Uiso   1.00
H376   H     0.63952   0.48370   0.48113   0.00000  Uiso   1.00
H377   H     0.46783   0.50536   0.09216   0.00000  Uiso   1.00
H378   H     0.38841   0.53211   0.41447   0.00000  Uiso   1.00
H379   H     0.37280   0.56270   0.00175   0.00000  Uiso   1.00
H380   H     0.53910   0.44979   0.37412   0.00000  Uiso   1.00
N381   N     0.38265   0.49999   0.24998   0.00000  Uiso   1.00
N382   N     0.61735   0.50002   0.24999   0.00000  Uiso   1.00
O383   O     0.46042   0.56011   0.25000   0.00000  Uiso   1.00
O384   O     0.53961   0.56012   0.25000   0.00000  Uiso   1.00
O385   O     0.44108   0.49998   0.32549   0.00000  Uiso   1.00
O386   O     0.52027   0.49999   0.32549   0.00000  Uiso   1.00
O387   O     0.46039   0.43988   0.24999   0.00000  Uiso   1.00
O388   O     0.53958   0.43989   0.24999   0.00000  Uiso   1.00
O389   O     0.47973   0.50001   0.17451   0.00000  Uiso   1.00
O390   O     0.55892   0.50002   0.17451   0.00000  Uiso   1.00
C391   C     0.63243   0.51786   0.07572   0.00000  Uiso   1.00
H392   H     0.62749   0.51993   0.11789   0.00000  Uiso   1.00
H393   H     0.33371   0.49945   0.05519   0.00000  Uiso   1.00
H394   H     0.63649   0.54955   0.06412   0.00000  Uiso   1.00
C395   C     0.59243   0.36652   0.25081   0.00000  Uiso   1.00
H396   H     0.58678   0.39522   0.27675   0.00000  Uiso   1.00
H397   H     0.60739   0.34447   0.27213   0.00000  Uiso   1.00
H398   H     0.62016   0.36921   0.21232   0.00000  Uiso   1.00
C399   C     0.40575   0.63422   0.28522   0.00000  Uiso   1.00
H400   H     0.39822   0.61232   0.25576   0.00000  Uiso   1.00
H401   H     0.40401   0.62077   0.32210   0.00000  Uiso   1.00
H402   H     0.37618   0.65907   0.29546   0.00000  Uiso   1.00
C403   C     0.59314   0.55431   0.32388   0.00000  Uiso   1.00
O404   O     0.57384   0.54552   0.36858   0.00000  Uiso   1.00
O405   O     0.58589   0.59398   0.31087   0.00000  Uiso   1.00
H406   H     0.56134   0.61173   0.34064   0.00000  Uiso   1.00
C407   C     0.35516   0.55124   0.32969   0.00000  Uiso   1.00
H408   H     0.39348   0.55491   0.32427   0.00000  Uiso   1.00
H409   H     0.33798   0.58258   0.33316   0.00000  Uiso   1.00
H410   H     0.33819   0.53782   0.36711   0.00000  Uiso   1.00
C411   C     0.40264   0.43809   0.18671   0.00000  Uiso   1.00
O412   O     0.39565   0.40431   0.20294   0.00000  Uiso   1.00
O413   O     0.43811   0.44188   0.13876   0.00000  Uiso   1.00
H414   H     0.45732   0.41499   0.12260   0.00000  Uiso   1.00
C415   C     0.64649   0.45223   0.16671   0.00000  Uiso   1.00
O416   O     0.61085   0.43282   0.17081   0.00000  Uiso   1.00
O417   O     0.34916   0.45077   0.11776   0.00000  Uiso   1.00
H418   H     0.34130   0.43259   0.08975   0.00000  Uiso   1.00
C419   C     0.62098   0.44604   0.39968   0.00000  Uiso   1.00
H420   H     0.62004   0.43193   0.36126   0.00000  Uiso   1.00
H421   H     0.64944   0.46851   0.39164   0.00000  Uiso   1.00
H422   H     0.63119   0.42142   0.42119   0.00000  Uiso   1.00
C423   C     0.43026   0.56548   0.06095   0.00000  Uiso   1.00
H424   H     0.40795   0.55147   0.09611   0.00000  Uiso   1.00
H425   H     0.46523   0.57483   0.06543   0.00000  Uiso   1.00
H426   H     0.41006   0.59445   0.05860   0.00000  Uiso   1.00
C427   C     0.58932   0.61867   0.19484   0.00000  Uiso   1.00
O428   O     0.58649   0.59758   0.15668   0.00000  Uiso   1.00
O429   O     0.63401   0.61993   0.20441   0.00000  Uiso   1.00
H430   H     0.66089   0.60194   0.17737   0.00000  Uiso   1.00
C431   C     0.83285   0.57924   0.24874   0.00000  Uiso   1.00
C432   C     0.81421   0.50905   0.48876   0.00000  Uiso   1.00
C433   C     0.82389   0.49227   0.43595   0.00000  Uiso   1.00
C434   C     0.84975   0.50031   0.01367   0.00000  Uiso   1.00
C435   C     0.89746   0.48535   0.48323   0.00000  Uiso   1.00
C436   C     0.90575   0.46718   0.43197   0.00000  Uiso   1.00
C437   C     0.86718   0.46739   0.41126   0.00000  Uiso   1.00
C438   C     0.83880   0.50345   0.06816   0.00000  Uiso   1.00
C439   C     0.92472   0.50092   0.05912   0.00000  Uiso   1.00
C440   C     0.79136   0.50232   0.40800   0.00000  Uiso   1.00
C441   C     0.87796   0.64244   0.23044   0.00000  Uiso   1.00
C442   C     0.80712   0.49891   0.35001   0.00000  Uiso   1.00
C443   C     0.87933   0.35122   0.24365   0.00000  Uiso   1.00
C444   C     0.83561   0.37642   0.25448   0.00000  Uiso   1.00
C445   C     0.79124   0.35846   0.26527   0.00000  Uiso   1.00
C446   C     0.78883   0.64971   0.26425   0.00000  Uiso   1.00
C447   C     0.83261   0.62416   0.24632   0.00000  Uiso   1.00
C448   C     0.96336   0.52512   0.28589   0.00000  Uiso   1.00
C449   C     0.67931   0.52515   0.28598   0.00000  Uiso   1.00
C450   C     0.70275   0.47360   0.21557   0.00000  Uiso   1.00
C451   C     0.98751   0.47550   0.21298   0.00000  Uiso   1.00
C452   C     0.83398   0.42096   0.25187   0.00000  Uiso   1.00
C453   C     0.85981   0.50156   0.14991   0.00000  Uiso   1.00
C454   C     0.93514   0.48879   0.00554   0.00000  Uiso   1.00
C455   C     0.87550   0.50244   0.09201   0.00000  Uiso   1.00
C456   C     0.74718   0.52427   0.43459   0.00000  Uiso   1.00
C457   C     0.73807   0.54178   0.48522   0.00000  Uiso   1.00
C458   C     0.77170   0.53646   0.01217   0.00000  Uiso   1.00
Cu459  Cu    0.78645   0.49999   0.25000   0.00000  Uiso   1.00
Cu460  Cu    0.88022   0.50001   0.25000   0.00000  Uiso   1.00
H461   H     0.75758   0.37768   0.27756   0.00000  Uiso   1.00
H462   H     0.97286   0.48370   0.48113   0.00000  Uiso   1.00
H463   H     0.80117   0.50536   0.09216   0.00000  Uiso   1.00
H464   H     0.72174   0.53211   0.41447   0.00000  Uiso   1.00
H465   H     0.70613   0.56270   0.00175   0.00000  Uiso   1.00
H466   H     0.87243   0.44979   0.37412   0.00000  Uiso   1.00
N467   N     0.71598   0.49999   0.24998   0.00000  Uiso   1.00
N468   N     0.95069   0.50002   0.24999   0.00000  Uiso   1.00
O469   O     0.79375   0.56011   0.25000   0.00000  Uiso   1.00
O470   O     0.87294   0.56012   0.25000   0.00000  Uiso   1.00
O471   O     0.77441   0.49998   0.32549   0.00000  Uiso   1.00
O472   O     0.85360   0.49999   0.32549   0.00000  Uiso   1.00
O473   O     0.79373   0.43988   0.24999   0.00000  Uiso   1.00
O474   O     0.87292   0.43989   0.24999   0.00000  Uiso   1.00
O475   O     0.81306   0.50001   0.17451   0.00000  Uiso   1.00
O476   O     0.89225   0.50002   0.17451   0.00000  Uiso   1.00
C477   C     0.96576   0.51786   0.07572   0.00000  Uiso   1.00
H478   H     0.96082   0.51993   0.11789   0.00000  Uiso   1.00
H479   H     0.66704   0.49945   0.05519   0.00000  Uiso   1.00
H480   H     0.96983   0.54955   0.06412   0.00000  Uiso   1.00
C481   C     0.92576   0.36652   0.25081   0.00000  Uiso   1.00
H482   H     0.92012   0.39522   0.27675   0.00000  Uiso   1.00
H483   H     0.94072   0.34447   0.27213   0.00000  Uiso   1.00
H484   H     0.95349   0.36921   0.21232   0.00000  Uiso   1.00
C485   C     0.73908   0.63422   0.28522   0.00000  Uiso   1.00
H486   H     0.73155   0.61232   0.25576   0.00000  Uiso   1.00
H487   H     0.73734   0.62077   0.32210   0.00000  Uiso   1.00
H488   H     0.70951   0.65907   0.29546   0.00000  Uiso   1.00
C489   C     0.92647   0.55431   0.32388   0.00000  Uiso   1.00
O490   O     0.90717   0.54552   0.36858   0.00000  Uiso   1.00
O491   O     0.91922   0.59398   0.31087   0.00000  Uiso   1.00
H492   H     0.89467   0.61173   0.34064   0.00000  Uiso   1.00
C493   C     0.68850   0.55124   0.32969   0.00000  Uiso   1.00
H494   H     0.72681   0.55491   0.32427   0.00000  Uiso   1.00
H495   H     0.67132   0.58258   0.33316   0.00000  Uiso   1.00
H496   H     0.67153   0.53782   0.36711   0.00000  Uiso   1.00
C497   C     0.73598   0.43809   0.18671   0.00000  Uiso   1.00
O498   O     0.72898   0.40431   0.20294   0.00000  Uiso   1.00
O499   O     0.77145   0.44188   0.13876   0.00000  Uiso   1.00
H500   H     0.79065   0.41499   0.12260   0.00000  Uiso   1.00
C501   C     0.97982   0.45223   0.16671   0.00000  Uiso   1.00
O502   O     0.94418   0.43282   0.17081   0.00000  Uiso   1.00
O503   O     0.68249   0.45077   0.11776   0.00000  Uiso   1.00
H504   H     0.67463   0.43259   0.08975   0.00000  Uiso   1.00
C505   C     0.95431   0.44604   0.39968   0.00000  Uiso   1.00
H506   H     0.95337   0.43193   0.36126   0.00000  Uiso   1.00
H507   H     0.98278   0.46851   0.39164   0.00000  Uiso   1.00
H508   H     0.96453   0.42142   0.42119   0.00000  Uiso   1.00
C509   C     0.76359   0.56548   0.06095   0.00000  Uiso   1.00
H510   H     0.74129   0.55147   0.09611   0.00000  Uiso   1.00
H511   H     0.79856   0.57483   0.06543   0.00000  Uiso   1.00
H512   H     0.74339   0.59445   0.05860   0.00000  Uiso   1.00
C513   C     0.92265   0.61867   0.19484   0.00000  Uiso   1.00
O514   O     0.91982   0.59758   0.15668   0.00000  Uiso   1.00
O515   O     0.96735   0.61993   0.20441   0.00000  Uiso   1.00
H516   H     0.99422   0.60194   0.17737   0.00000  Uiso   1.00
C517   C     0.16619   0.91257   0.24874   0.00000  Uiso   1.00
C518   C     0.14755   0.84238   0.48876   0.00000  Uiso   1.00
C519   C     0.15722   0.82560   0.43595   0.00000  Uiso   1.00
C520   C     0.18309   0.83365   0.01367   0.00000  Uiso   1.00
C521   C     0.23080   0.81869   0.48323   0.00000  Uiso   1.00
C522   C     0.23909   0.80052   0.43197   0.00000  Uiso   1.00
C523   C     0.20051   0.80073   0.41126   0.00000  Uiso   1.00
C524   C     0.17214   0.83678   0.06816   0.00000  Uiso   1.00
C525   C     0.25805   0.83425   0.05912   0.00000  Uiso   1.00
C526   C     0.12470   0.83566   0.40800   0.00000  Uiso   1.00
C527   C     0.21130   0.97577   0.23044   0.00000  Uiso   1.00
C528   C     0.14046   0.83224   0.35001   0.00000  Uiso   1.00
C529   C     0.21266   0.68456   0.24365   0.00000  Uiso   1.00
C530   C     0.16895   0.70975   0.25448   0.00000  Uiso   1.00
C531   C     0.12458   0.69179   0.26527   0.00000  Uiso   1.00
C532   C     0.12217   0.98304   0.26425   0.00000  Uiso   1.00
C533   C     0.16594   0.95749   0.24632   0.00000  Uiso   1.00
C534   C     0.29669   0.85845   0.28589   0.00000  Uiso   1.00
C535   C     0.01264   0.85849   0.28598   0.00000  Uiso   1.00
C536   C     0.03608   0.80694   0.21557   0.00000  Uiso   1.00
C537   C     0.32084   0.80883   0.21298   0.00000  Uiso   1.00
C538   C     0.16732   0.75429   0.25187   0.00000  Uiso   1.00
C539   C     0.19314   0.83490   0.14991   0.00000  Uiso   1.00
C540   C     0.26847   0.82212   0.00554   0.00000  Uiso   1.00
C541   C     0.20884   0.83578   0.09201   0.00000  Uiso   1.00
C542   C     0.08051   0.85761   0.43459   0.00000  Uiso   1.00
C543   C     0.07141   0.87512   0.48522   0.00000  Uiso   1.00
C544   C     0.10503   0.86979   0.01217   0.00000  Uiso   1.00
Cu545  Cu    0.11978   0.83333   0.25000   0.00000  Uiso   1.00
Cu546  Cu    0.21355   0.83334   0.25000   0.00000  Uiso   1.00
H547   H     0.09092   0.71101   0.27756   0.00000  Uiso   1.00
H548   H     0.30619   0.81703   0.48113   0.00000  Uiso   1.00
H549   H     0.13450   0.83869   0.09216   0.00000  Uiso   1.00
H550   H     0.05508   0.86544   0.41447   0.00000  Uiso   1.00
H551   H     0.03947   0.89604   0.00175   0.00000  Uiso   1.00
H552   H     0.20576   0.78313   0.37412   0.00000  Uiso   1.00
N553   N     0.04931   0.83332   0.24998   0.00000  Uiso   1.00
N554   N     0.28402   0.83335   0.24999   0.00000  Uiso   1.00
O555   O     0.12708   0.89345   0.25000   0.00000  Uiso   1.00
O556   O     0.20627   0.89346   0.25000   0.00000  Uiso   1.00
O557   O     0.10775   0.83332   0.32549   0.00000  Uiso   1.00
O558   O     0.18694   0.83333   0.32549   0.00000  Uiso   1.00
O559   O     0.12706   0.77321   0.24999   0.00000  Uiso   1.00
O560   O     0.20625   0.77322   0.24999   0.00000  Uiso   1.00
O561   O     0.14640   0.83334   0.17451   0.00000  Uiso   1.00
O562   O     0.22559   0.83335   0.17451   0.00000  Uiso   1.00
C563   C     0.29909   0.85119   0.07572   0.00000  Uiso   1.00
H564   H     0.29416   0.85326   0.11789   0.00000  Uiso   1.00
H565   H     0.00037   0.83278   0.05519   0.00000  Uiso   1.00
H566   H     0.30316   0.88288   0.06412   0.00000  Uiso   1.00
C567   C     0.25910   0.69985   0.25081   0.00000  Uiso   1.00
H568   H     0.25345   0.72856   0.27675   0.00000  Uiso   1.00
H569   H     0.27405   0.67781   0.27213   0.00000  Uiso   1.00
H570   H     0.28682   0.70254   0.21232   0.00000  Uiso   1.00
C571   C     0.07241   0.96755   0.28522   0.00000  Uiso   1.00
H572   H     0.06489   0.94565   0.25576   0.00000  Uiso   1.00
H573   H     0.07067   0.95410   0.32210   0.00000  Uiso   1.00
H574   H     0.04284   0.99241   0.29546   0.00000  Uiso   1.00
C575   C     0.25980   0.88764   0.32388   0.00000  Uiso   1.00
O576   O     0.24051   0.87885   0.36858   0.00000  Uiso   1.00
O577   O     0.25256   0.92731   0.31087   0.00000  Uiso   1.00
H578   H     0.22801   0.94506   0.34064   0.00000  Uiso   1.00
C579   C     0.02183   0.88458   0.32969   0.00000  Uiso   1.00
H580   H     0.06014   0.88824   0.32427   0.00000  Uiso   1.00
H581   H     0.00465   0.91592   0.33316   0.00000  Uiso   1.00
H582   H     0.00486   0.87115   0.36711   0.00000  Uiso   1.00
C583   C     0.06931   0.77142   0.18671   0.00000  Uiso   1.00
O584   O     0.06231   0.73765   0.20294   0.00000  Uiso   1.00
O585   O     0.10478   0.77522   0.13876   0.00000  Uiso   1.00
H586   H     0.12398   0.74832   0.12260   0.00000  Uiso   1.00
C587   C     0.31316   0.78557   0.16671   0.00000  Uiso   1.00
O588   O     0.27752   0.76615   0.17081   0.00000  Uiso   1.00
O589   O     0.01582   0.78411   0.11776   0.00000  Uiso   1.00
H590   H     0.00796   0.76592   0.08975   0.00000  Uiso   1.00
C591   C     0.28764   0.77937   0.39968   0.00000  Uiso   1.00
H592   H     0.28671   0.76527   0.36126   0.00000  Uiso   1.00
H593   H     0.31611   0.80184   0.39164   0.00000  Uiso   1.00
H594   H     0.29786   0.75475   0.42119   0.00000  Uiso   1.00
C595   C     0.09693   0.89881   0.06095   0.00000  Uiso   1.00
H596   H     0.07462   0.88480   0.09611   0.00000  Uiso   1.00
H597   H     0.13190   0.90817   0.06543   0.00000  Uiso   1.00
H598   H     0.07673   0.92779   0.05860   0.00000  Uiso   1.00
C599   C     0.25598   0.95200   0.19484   0.00000  Uiso   1.00
O600   O     0.25315   0.93091   0.15668   0.00000  Uiso   1.00
O601   O     0.30068   0.95326   0.20441   0.00000  Uiso   1.00
H602   H     0.32755   0.93527   0.17737   0.00000  Uiso   1.00
C603   C     0.49952   0.91257   0.24874   0.00000  Uiso   1.00
C604   C     0.48088   0.84238   0.48876   0.00000  Uiso   1.00
C605   C     0.49056   0.82560   0.43595   0.00000  Uiso   1.00
C606   C     0.51642   0.83365   0.01367   0.00000  Uiso   1.00
C607   C     0.56413   0.81869   0.48323   0.00000  Uiso   1.00
C608   C     0.57242   0.80052   0.43197   0.00000  Uiso   1.00
C609   C     0.53385   0.80073   0.41126   0.00000  Uiso   1.00
C610   C     0.50547   0.83678   0.06816   0.00000  Uiso   1.00
C611   C     0.59138   0.83425   0.05912   0.00000  Uiso   1.00
C612   C     0.45803   0.83566   0.40800   0.00000  Uiso   1.00
C613   C     0.54463   0.97577   0.23044   0.00000  Uiso   1.00
C614   C     0.47379   0.83224   0.35001   0.00000  Uiso   1.00
C615   C     0.54600   0.68456   0.24365   0.00000  Uiso   1.00
C616   C     0.50228   0.70975   0.25448   0.00000  Uiso   1.00
C617   C     0.45791   0.69179   0.26527   0.00000  Uiso   1.00
C618   C     0.45550   0.98304   0.26425   0.00000  Uiso   1.00
C619   C     0.49928   0.95749   0.24632   0.00000  Uiso   1.00
C620   C     0.63002   0.85845   0.28589   0.00000  Uiso   1.00
C621   C     0.34597   0.85849   0.28598   0.00000  Uiso   1.00
C622   C     0.36941   0.80694   0.21557   0.00000  Uiso   1.00
C623   C     0.65417   0.80883   0.21298   0.00000  Uiso   1.00
C624   C     0.50065   0.75429   0.25187   0.00000  Uiso   1.00
C625   C     0.52648   0.83490   0.14991   0.00000  Uiso   1.00
C626   C     0.60180   0.82212   0.00554   0.00000  Uiso   1.00
C627   C     0.54217   0.83578   0.09201   0.00000  Uiso   1.00
C628   C     0.41384   0.85761   0.43459   0.00000  Uiso   1.00
C629   C     0.40474   0.87512   0.48522   0.00000  Uiso   1.00
C630   C     0.43837   0.86979   0.01217   0.00000  Uiso   1.00
Cu631  Cu    0.45311   0.83333   0.25000   0.00000  Uiso   1.00
Cu632  Cu    0.54689   0.83334   0.25000   0.00000  Uiso   1.00
H633   H     0.42425   0.71101   0.27756   0.00000  Uiso   1.00
H634   H     0.63952   0.81703   0.48113   0.00000  Uiso   1.00
H635   H     0.46783   0.83869   0.09216   0.00000  Uiso   1.00
H636   H     0.38841   0.86544   0.41447   0.00000  Uiso   1.00
H637   H     0.37280   0.89604   0.00175   0.00000  Uiso   1.00
H638   H     0.53910   0.78313   0.37412   0.00000  Uiso   1.00
N639   N     0.38265   0.83332   0.24998   0.00000  Uiso   1.00
N640   N     0.61735   0.83335   0.24999   0.00000  Uiso   1.00
O641   O     0.46042   0.89345   0.25000   0.00000  Uiso   1.00
O642   O     0.53961   0.89346   0.25000   0.00000  Uiso   1.00
O643   O     0.44108   0.83332   0.32549   0.00000  Uiso   1.00
O644   O     0.52027   0.83333   0.32549   0.00000  Uiso   1.00
O645   O     0.46039   0.77321   0.24999   0.00000  Uiso   1.00
O646   O     0.53958   0.77322   0.24999   0.00000  Uiso   1.00
O647   O     0.47973   0.83334   0.17451   0.00000  Uiso   1.00
O648   O     0.55892   0.83335   0.17451   0.00000  Uiso   1.00
C649   C     0.63243   0.85119   0.07572   0.00000  Uiso   1.00
H650   H     0.62749   0.85326   0.11789   0.00000  Uiso   1.00
H651   H     0.33371   0.83278   0.05519   0.00000  Uiso   1.00
H652   H     0.63649   0.88288   0.06412   0.00000  Uiso   1.00
C653   C     0.59243   0.69985   0.25081   0.00000  Uiso   1.00
H654   H     0.58678   0.72856   0.27675   0.00000  Uiso   1.00
H655   H     0.60739   0.67781   0.27213   0.00000  Uiso   1.00
H656   H     0.62016   0.70254   0.21232   0.00000  Uiso   1.00
C657   C     0.40575   0.96755   0.28522   0.00000  Uiso   1.00
H658   H     0.39822   0.94565   0.25576   0.00000  Uiso   1.00
H659   H     0.40401   0.95410   0.32210   0.00000  Uiso   1.00
H660   H     0.37618   0.99241   0.29546   0.00000  Uiso   1.00
C661   C     0.59314   0.88764   0.32388   0.00000  Uiso   1.00
O662   O     0.57384   0.87885   0.36858   0.00000  Uiso   1.00
O663   O     0.58589   0.92731   0.31087   0.00000  Uiso   1.00
H664   H     0.56134   0.94506   0.34064   0.00000  Uiso   1.00
C665   C     0.35516   0.88458   0.32969   0.00000  Uiso   1.00
H666   H     0.39348   0.88824   0.32427   0.00000  Uiso   1.00
H667   H     0.33798   0.91592   0.33316   0.00000  Uiso   1.00
H668   H     0.33819   0.87115   0.36711   0.00000  Uiso   1.00
C669   C     0.40264   0.77142   0.18671   0.00000  Uiso   1.00
O670   O     0.39565   0.73765   0.20294   0.00000  Uiso   1.00
O671   O     0.43811   0.77522   0.13876   0.00000  Uiso   1.00
H672   H     0.45732   0.74832   0.12260   0.00000  Uiso   1.00
C673   C     0.64649   0.78557   0.16671   0.00000  Uiso   1.00
O674   O     0.61085   0.76615   0.17081   0.00000  Uiso   1.00
O675   O     0.34916   0.78411   0.11776   0.00000  Uiso   1.00
H676   H     0.34130   0.76592   0.08975   0.00000  Uiso   1.00
C677   C     0.62098   0.77937   0.39968   0.00000  Uiso   1.00
H678   H     0.62004   0.76527   0.36126   0.00000  Uiso   1.00
H679   H     0.64944   0.80184   0.39164   0.00000  Uiso   1.00
H680   H     0.63119   0.75475   0.42119   0.00000  Uiso   1.00
C681   C     0.43026   0.89881   0.06095   0.00000  Uiso   1.00
H682   H     0.40795   0.88480   0.09611   0.00000  Uiso   1.00
H683   H     0.46523   0.90817   0.06543   0.00000  Uiso   1.00
H684   H     0.41006   0.92779   0.05860   0.00000  Uiso   1.00
C685   C     0.58932   0.95200   0.19484   0.00000  Uiso   1.00
O686   O     0.58649   0.93091   0.15668   0.00000  Uiso   1.00
O687   O     0.63401   0.95326   0.20441   0.00000  Uiso   1.00
H688   H     0.66089   0.93527   0.17737   0.00000  Uiso   1.00
C689   C     0.83285   0.91257   0.24874   0.00000  Uiso   1.00
C690   C     0.81421   0.84238   0.48876   0.00000  Uiso   1.00
C691   C     0.82389   0.82560   0.43595   0.00000  Uiso   1.00
C692   C     0.84975   0.83365   0.01367   0.00000  Uiso   1.00
C693   C     0.89746   0.81869   0.48323   0.00000  Uiso   1.00
C694   C     0.90575   0.80052   0.43197   0.00000  Uiso   1.00
C695   C     0.86718   0.80073   0.41126   0.00000  Uiso   1.00
C696   C     0.83880   0.83678   0.06816   0.00000  Uiso   1.00
C697   C     0.92472   0.83425   0.05912   0.00000  Uiso   1.00
C698   C     0.79136   0.83566   0.40800   0.00000  Uiso   1.00
C699   C     0.87796   0.97577   0.23044   0.00000  Uiso   1.00
C700   C     0.80712   0.83224   0.35001   0.00000  Uiso   1.00
C701   C     0.87933   0.68456   0.24365   0.00000  Uiso   1.00
C702   C     0.83561   0.70975   0.25448   0.00000  Uiso   1.00
C703   C     0.79124   0.69179   0.26527   0.00000  Uiso   1.00
C704   C     0.78883   0.98304   0.26425   0.00000  Uiso   1.00
C705   C     0.83261   0.95749   0.24632   0.00000  Uiso   1.00
C706   C     0.96336   0.85845   0.28589   0.00000  Uiso   1.00
C707   C     0.67931   0.85849   0.28598   0.00000  Uiso   1.00
C708   C     0.70275   0.80694   0.21557   0.00000  Uiso   1.00
C709   C     0.98751   0.80883   0.21298   0.00000  Uiso   1.00
C710   C     0.83398   0.75429   0.25187   0.00000  Uiso   1.00
C711   C     0.85981   0.83490   0.14991   0.00000  Uiso   1.00
C712   C     0.93514   0.82212   0.00554   0.00000  Uiso   1.00
C713   C     0.87550   0.83578   0.09201   0.00000  Uiso   1.00
C714   C     0.74718   0.85761   0.43459   0.00000  Uiso   1.00
C715   C     0.73807   0.87512   0.48522   0.00000  Uiso   1.00
C716   C     0.77170   0.86979   0.01217   0.00000  Uiso   1.00
Cu717  Cu    0.78645   0.83333   0.25000   0.00000  Uiso   1.00
Cu718  Cu    0.88022   0.83334   0.25000   0.00000  Uiso   1.00
H719   H     0.75758   0.71101   0.27756   0.00000  Uiso   1.00
H720   H     0.97286   0.81703   0.48113   0.00000  Uiso   1.00
H721   H     0.80117   0.83869   0.09216   0.00000  Uiso   1.00
H722   H     0.72174   0.86544   0.41447   0.00000  Uiso   1.00
H723   H     0.70613   0.89604   0.00175   0.00000  Uiso   1.00
H724   H     0.87243   0.78313   0.37412   0.00000  Uiso   1.00
N725   N     0.71598   0.83332   0.24998   0.00000  Uiso   1.00
N726   N     0.95069   0.83335   0.24999   0.00000  Uiso   1.00
O727   O     0.79375   0.89345   0.25000   0.00000  Uiso   1.00
O728   O     0.87294   0.89346   0.25000   0.00000  Uiso   1.00
O729   O     0.77441   0.83332   0.32549   0.00000  Uiso   1.00
O730   O     0.85360   0.83333   0.32549   0.00000  Uiso   1.00
O731   O     0.79373   0.77321   0.24999   0.00000  Uiso   1.00
O732   O     0.87292   0.77322   0.24999   0.00000  Uiso   1.00
O733   O     0.81306   0.83334   0.17451   0.00000  Uiso   1.00
O734   O     0.89225   0.83335   0.17451   0.00000  Uiso   1.00
C735   C     0.96576   0.85119   0.07572   0.00000  Uiso   1.00
H736   H     0.96082   0.85326   0.11789   0.00000  Uiso   1.00
H737   H     0.66704   0.83278   0.05519   0.00000  Uiso   1.00
H738   H     0.96983   0.88288   0.06412   0.00000  Uiso   1.00
C739   C     0.92576   0.69985   0.25081   0.00000  Uiso   1.00
H740   H     0.92012   0.72856   0.27675   0.00000  Uiso   1.00
H741   H     0.94072   0.67781   0.27213   0.00000  Uiso   1.00
H742   H     0.95349   0.70254   0.21232   0.00000  Uiso   1.00
C743   C     0.73908   0.96755   0.28522   0.00000  Uiso   1.00
H744   H     0.73155   0.94565   0.25576   0.00000  Uiso   1.00
H745   H     0.73734   0.95410   0.32210   0.00000  Uiso   1.00
H746   H     0.70951   0.99241   0.29546   0.00000  Uiso   1.00
C747   C     0.92647   0.88764   0.32388   0.00000  Uiso   1.00
O748   O     0.90717   0.87885   0.36858   0.00000  Uiso   1.00
O749   O     0.91922   0.92731   0.31087   0.00000  Uiso   1.00
H750   H     0.89467   0.94506   0.34064   0.00000  Uiso   1.00
C751   C     0.68850   0.88458   0.32969   0.00000  Uiso   1.00
H752   H     0.72681   0.88824   0.32427   0.00000  Uiso   1.00
H753   H     0.67132   0.91592   0.33316   0.00000  Uiso   1.00
H754   H     0.67153   0.87115   0.36711   0.00000  Uiso   1.00
C755   C     0.73598   0.77142   0.18671   0.00000  Uiso   1.00
O756   O     0.72898   0.73765   0.20294   0.00000  Uiso   1.00
O757   O     0.77145   0.77522   0.13876   0.00000  Uiso   1.00
H758   H     0.79065   0.74832   0.12260   0.00000  Uiso   1.00
C759   C     0.97982   0.78557   0.16671   0.00000  Uiso   1.00
O760   O     0.94418   0.76615   0.17081   0.00000  Uiso   1.00
O761   O     0.68249   0.78411   0.11776   0.00000  Uiso   1.00
H762   H     0.67463   0.76592   0.08975   0.00000  Uiso   1.00
C763   C     0.95431   0.77937   0.39968   0.00000  Uiso   1.00
H764   H     0.95337   0.76527   0.36126   0.00000  Uiso   1.00
H765   H     0.98278   0.80184   0.39164   0.00000  Uiso   1.00
H766   H     0.96453   0.75475   0.42119   0.00000  Uiso   1.00
C767   C     0.76359   0.89881   0.06095   0.00000  Uiso   1.00
H768   H     0.74129   0.88480   0.09611   0.00000  Uiso   1.00
H769   H     0.79856   0.90817   0.06543   0.00000  Uiso   1.00
H770   H     0.74339   0.92779   0.05860   0.00000  Uiso   1.00
C771   C     0.92265   0.95200   0.19484   0.00000  Uiso   1.00
O772   O     0.91982   0.93091   0.15668   0.00000  Uiso   1.00
O773   O     0.96735   0.95326   0.20441   0.00000  Uiso   1.00
H774   H     0.99422   0.93527   0.17737   0.00000  Uiso   1.00
C775   C     0.16619   0.24591   0.74874   0.00000  Uiso   1.00
C776   C     0.14755   0.17571   0.98876   0.00000  Uiso   1.00
C777   C     0.15722   0.15894   0.93595   0.00000  Uiso   1.00
C778   C     0.18309   0.16698   0.51367   0.00000  Uiso   1.00
C779   C     0.23080   0.15202   0.98323   0.00000  Uiso   1.00
C780   C     0.23909   0.13385   0.93197   0.00000  Uiso   1.00
C781   C     0.20051   0.13406   0.91126   0.00000  Uiso   1.00
C782   C     0.17214   0.17011   0.56816   0.00000  Uiso   1.00
C783   C     0.25805   0.16759   0.55912   0.00000  Uiso   1.00
C784   C     0.12470   0.16899   0.90800   0.00000  Uiso   1.00
C785   C     0.21130   0.30910   0.73044   0.00000  Uiso   1.00
C786   C     0.14046   0.16558   0.85001   0.00000  Uiso   1.00
C787   C     0.21266   0.01789   0.74365   0.00000  Uiso   1.00
C788   C     0.16895   0.04309   0.75448   0.00000  Uiso   1.00
C789   C     0.12458   0.02512   0.76527   0.00000  Uiso   1.00
C790   C     0.12217   0.31638   0.76425   0.00000  Uiso   1.00
C791   C     0.16594   0.29083   0.74632   0.00000  Uiso   1.00
C792   C     0.29669   0.19178   0.78589   0.00000  Uiso   1.00
C793   C     0.01264   0.19182   0.78598   0.00000  Uiso   1.00
C794   C     0.03608   0.14027   0.71557   0.00000  Uiso   1.00
C795   C     0.32084   0.14216   0.71298   0.00000  Uiso   1.00
C796   C     0.16732   0.08762   0.75187   0.00000  Uiso   1.00
C797   C     0.19314   0.16823   0.64991   0.00000  Uiso   1.00
C798   C     0.26847   0.15545   0.50554   0.00000  Uiso   1.00
C799   C     0.20884   0.16911   0.59201   0.00000  Uiso   1.00
C800   C     0.08051   0.19094   0.93459   0.00000  Uiso   1.00
C801   C     0.07141   0.20845   0.98522   0.00000  Uiso   1.00
C802   C     0.10503   0.20312   0.51217   0.00000  Uiso   1.00
Cu803  Cu    0.11978   0.16666   0.75000   0.00000  Uiso   1.00
Cu804  Cu    0.21355   0.16667   0.75000   0.00000  Uiso   1.00
H805   H     0.09092   0.04435   0.77756   0.00000  Uiso   1.00
H806   H     0.30619   0.15036   0.98113   0.00000  Uiso   1.00
H807   H     0.13450   0.17203   0.59216   0.00000  Uiso   1.00
H808   H     0.05508   0.19878   0.91447   0.00000  Uiso   1.00
H809   H     0.03947   0.22937   0.50175   0.00000  Uiso   1.00
H810   H     0.20576   0.11646   0.87412   0.00000  Uiso   1.00
N811   N     0.04931   0.16666   0.74998   0.00000  Uiso   1.00
N812   N     0.28402   0.16669   0.74999   0.00000  Uiso   1.00
O813   O     0.12708   0.22678   0.75000   0.00000  Uiso   1.00
O814   O     0.20627   0.22679   0.75000   0.00000  Uiso   1.00
O815   O     0.10775   0.16665   0.82549   0.00000  Uiso   1.00
O816   O     0.18694   0.16666   0.82549   0.00000  Uiso   1.00
O817   O     0.12706   0.10654   0.74999   0.00000  Uiso   1.00
O818   O     0.20625   0.10655   0.74999   0.00000  Uiso   1.00
O819   O     0.14640   0.16667   0.67451   0.00000  Uiso   1.00
O820   O     0.22559   0.16668   0.67451   0.00000  Uiso   1.00
C821   C     0.29909   0.18452   0.57572   0.00000  Uiso   1.00
H822   H     0.29416   0.18659   0.61789   0.00000  Uiso   1.00
H823   H     0.00037   0.16612   0.55519   0.00000  Uiso   1.00
H824   H     0.30316   0.21622   0.56412   0.00000  Uiso   1.00
C825   C     0.25910   0.03318   0.75081   0.00000  Uiso   1.00
H826   H     0.25345   0.06189   0.77675   0.00000  Uiso   1.00
H827   H     0.27405   0.01114   0.77213   0.00000  Uiso   1.00
H828   H     0.28682   0.03588   0.71232   0.00000  Uiso   1.00
C829   C     0.07241   0.30088   0.78522   0.00000  Uiso   1.00
H830   H     0.06489   0.27899   0.75576   0.00000  Uiso   1.00
H831   H     0.07067   0.28743   0.82210   0.00000  Uiso   1.00
H832   H     0.04284   0.32574   0.79546   0.00000  Uiso   1.00
C833   C     0.25980   0.22098   0.82388   0.00000  Uiso   1.00
O834   O     0.24051   0.21218   0.86858   0.00000  Uiso   1.00
O835   O     0.25256   0.26064   0.81087   0.00000  Uiso   1.00
H836   H     0.22801   0.27840   0.84064   0.00000  Uiso   1.00
C837   C     0.02183   0.21791   0.82969   0.00000  Uiso   1.00
H838   H     0.06014   0.22158   0.82427   0.00000  Uiso   1.00
H839   H     0.00465   0.24925   0.83316   0.00000  Uiso   1.00
H840   H     0.00486   0.20448   0.86711   0.00000  Uiso   1.00
C841   C     0.06931   0.10476   0.68671   0.00000  Uiso   1.00
O842   O     0.06231   0.07098   0.70294   0.00000  Uiso   1.00
O843   O     0.10478   0.10855   0.63876   0.00000  Uiso   1.00
H844   H     0.12398   0.08165   0.62260   0.00000  Uiso   1.00
C845   C     0.31316   0.11890   0.66671   0.00000  Uiso   1.00
O846   O     0.27752   0.09949   0.67081   0.00000  Uiso   1.00
O847   O     0.01582   0.11744   0.61776   0.00000  Uiso   1.00
H848   H     0.00796   0.09925   0.58975   0.00000  Uiso   1.00
C849   C     0.28764   0.11271   0.89968   0.00000  Uiso   1.00
H850   H     0.28671   0.09860   0.86126   0.00000  Uiso   1.00
H851   H     0.31611   0.13517   0.89164   0.00000  Uiso   1.00
H852   H     0.29786   0.08809   0.92119   0.00000  Uiso   1.00
C853   C     0.09693   0.23215   0.56095   0.00000  Uiso   1.00
H854   H     0.07462   0.21814   0.59611   0.00000  Uiso   1.00
H855   H     0.13190   0.24150   0.56543   0.00000  Uiso   1.00
H856   H     0.07673   0.26112   0.55860   0.00000  Uiso   1.00
C857   C     0.25598   0.28533   0.69484   0.00000  Uiso   1.00
O858   O     0.25315   0.26424   0.65668   0.00000  Uiso   1.00
O859   O     0.30068   0.28660   0.70441   0.00000  Uiso   1.00
H860   H     0.32755   0.26861   0.67737   0.00000  Uiso   1.00
C861   C     0.49952   0.24591   0.74874   0.00000  Uiso   1.00
C862   C     0.48088   0.17571   0.98876   0.00000  Uiso   1.00
C863   C     0.49056   0.15894   0.93595   0.00000  Uiso   1.00
C864   C     0.51642   0.16698   0.51367   0.00000  Uiso   1.00
C865   C     0.56413   0.15202   0.98323   0.00000  Uiso   1.00
C866   C     0.57242   0.13385   0.93197   0.00000  Uiso   1.00
C867   C     0.53385   0.13406   0.91126   0.00000  Uiso   1.00
C868   C     0.50547   0.17011   0.56816   0.00000  Uiso   1.00
C869   C     0.59138   0.16759   0.55912   0.00000  Uiso   1.00
C870   C     0.45803   0.16899   0.90800   0.00000  Uiso   1.00
C871   C     0.54463   0.30910   0.73044   0.00000  Uiso   1.00
C872   C     0.47379   0.16558   0.85001   0.00000  Uiso   1.00
C873   C     0.54600   0.01789   0.74365   0.00000  Uiso   1.00
C874   C     0.50228   0.04309   0.75448   0.00000  Uiso   1.00
C875   C     0.45791   0.02512   0.76527   0.00000  Uiso   1.00
C876   C     0.45550   0.31638   0.76425   0.00000  Uiso   1.00
C877   C     0.49928   0.29083   0.74632   0.00000  Uiso   1.00
C878   C     0.63002   0.19178   0.78589   0.00000  Uiso   1.00
C879   C     0.34597   0.19182   0.78598   0.00000  Uiso   1.00
C880   C     0.36941   0.14027   0.71557   0.00000  Uiso   1.00
C881   C     0.65417   0.14216   0.71298   0.00000  Uiso   1.00
C882   C     0.50065   0.08762   0.75187   0.00000  Uiso   1.00
C883   C     0.52648   0.16823   0.64991   0.00000  Uiso   1.00
C884   C     0.60180   0.15545   0.50554   0.00000  Uiso   1.00
C885   C     0.54217   0.16911   0.59201   0.00000  Uiso   1.00
C886   C     0.41384   0.19094   0.93459   0.00000  Uiso   1.00
C887   C     0.40474   0.20845   0.98522   0.00000  Uiso   1.00
C888   C     0.43837   0.20312   0.51217   0.00000  Uiso   1.00
Cu889  Cu    0.45311   0.16666   0.75000   0.00000  Uiso   1.00
Cu890  Cu    0.54689   0.16667   0.75000   0.00000  Uiso   1.00
H891   H     0.42425   0.04435   0.77756   0.00000  Uiso   1.00
H892   H     0.63952   0.15036   0.98113   0.00000  Uiso   1.00
H893   H     0.46783   0.17203   0.59216   0.00000  Uiso   1.00
H894   H     0.38841   0.19878   0.91447   0.00000  Uiso   1.00
H895   H     0.37280   0.22937   0.50175   0.00000  Uiso   1.00
H896   H     0.53910   0.11646   0.87412   0.00000  Uiso   1.00
N897   N     0.38265   0.16666   0.74998   0.00000  Uiso   1.00
N898   N     0.61735   0.16669   0.74999   0.00000  Uiso   1.00
O899   O     0.46042   0.22678   0.75000   0.00000  Uiso   1.00
O900   O     0.53961   0.22679   0.75000   0.00000  Uiso   1.00
O901   O     0.44108   0.16665   0.82549   0.00000  Uiso   1.00
O902   O     0.52027   0.16666   0.82549   0.00000  Uiso   1.00
O903   O     0.46039   0.10654   0.74999   0.00000  Uiso   1.00
O904   O     0.53958   0.10655   0.74999   0.00000  Uiso   1.00
O905   O     0.47973   0.16667   0.67451   0.00000  Uiso   1.00
O906   O     0.55892   0.16668   0.67451   0.00000  Uiso   1.00
C907   C     0.63243   0.18452   0.57572   0.00000  Uiso   1.00
H908   H     0.62749   0.18659   0.61789   0.00000  Uiso   1.00
H909   H     0.33371   0.16612   0.55519   0.00000  Uiso   1.00
H910   H     0.63649   0.21622   0.56412   0.00000  Uiso   1.00
C911   C     0.59243   0.03318   0.75081   0.00000  Uiso   1.00
H912   H     0.58678   0.06189   0.77675   0.00000  Uiso   1.00
H913   H     0.60739   0.01114   0.77213   0.00000  Uiso   1.00
H914   H     0.62016   0.03588   0.71232   0.00000  Uiso   1.00
C915   C     0.40575   0.30088   0.78522   0.00000  Uiso   1.00
H916   H     0.39822   0.27899   0.75576   0.00000  Uiso   1.00
H917   H     0.40401   0.28743   0.82210   0.00000  Uiso   1.00
H918   H     0.37618   0.32574   0.79546   0.00000  Uiso   1.00
C919   C     0.59314   0.22098   0.82388   0.00000  Uiso   1.00
O920   O     0.57384   0.21218   0.86858   0.00000  Uiso   1.00
O921   O     0.58589   0.26064   0.81087   0.00000  Uiso   1.00
H922   H     0.56134   0.27840   0.84064   0.00000  Uiso   1.00
C923   C     0.35516   0.21791   0.82969   0.00000  Uiso   1.00
H924   H     0.39348   0.22158   0.82427   0.00000  Uiso   1.00
H925   H     0.33798   0.24925   0.83316   0.00000  Uiso   1.00
H926   H     0.33819   0.20448   0.86711   0.00000  Uiso   1.00
C927   C     0.40264   0.10476   0.68671   0.00000  Uiso   1.00
O928   O     0.39565   0.07098   0.70294   0.00000  Uiso   1.00
O929   O     0.43811   0.10855   0.63876   0.00000  Uiso   1.00
H930   H     0.45732   0.08165   0.62260   0.00000  Uiso   1.00
C931   C     0.64649   0.11890   0.66671   0.00000  Uiso   1.00
O932   O     0.61085   0.09949   0.67081   0.00000  Uiso   1.00
O933   O     0.34916   0.11744   0.61776   0.00000  Uiso   1.00
H934   H     0.34130   0.09925   0.58975   0.00000  Uiso   1.00
C935   C     0.62098   0.11271   0.89968   0.00000  Uiso   1.00
H936   H     0.62004   0.09860   0.86126   0.00000  Uiso   1.00
H937   H     0.64944   0.13517   0.89164   0.00000  Uiso   1.00
H938   H     0.63119   0.08809   0.92119   0.00000  Uiso   1.00
C939   C     0.43026   0.23215   0.56095   0.00000  Uiso   1.00
H940   H     0.40795   0.21814   0.59611   0.00000  Uiso   1.00
H941   H     0.46523   0.24150   0.56543   0.00000  Uiso   1.00
H942   H     0.41006   0.26112   0.55860   0.00000  Uiso   1.00
C943   C     0.58932   0.28533   0.69484   0.00000  Uiso   1.00
O944   O     0.58649   0.26424   0.65668   0.00000  Uiso   1.00
O945   O     0.63401   0.28660   0.70441   0.00000  Uiso   1.00
H946   H     0.66089   0.26861   0.67737   0.00000  Uiso   1.00
C947   C     0.83285   0.24591   0.74874   0.00000  Uiso   1.00
C948   C     0.81421   0.17571   0.98876   0.00000  Uiso   1.00
C949   C     0.82389   0.15894   0.93595   0.00000  Uiso   1.00
C950   C     0.84975   0.16698   0.51367   0.00000  Uiso   1.00
C951   C     0.89746   0.15202   0.98323   0.00000  Uiso   1.00
C952   C     0.90575   0.13385   0.93197   0.00000  Uiso   1.00
C953   C     0.86718   0.13406   0.91126   0.00000  Uiso   1.00
C954   C     0.83880   0.17011   0.56816   0.00000  Uiso   1.00
C955   C     0.92472   0.16759   0.55912   0.00000  Uiso   1.00
C956   C     0.79136   0.16899   0.90800   0.00000  Uiso   1.00
C957   C     0.87796   0.30910   0.73044   0.00000  Uiso   1.00
C958   C     0.80712   0.16558   0.85001   0.00000  Uiso   1.00
C959   C     0.87933   0.01789   0.74365   0.00000  Uiso   1.00
C960   C     0.83561   0.04309   0.75448   0.00000  Uiso   1.00
C961   C     0.79124   0.02512   0.76527   0.00000  Uiso   1.00
C962   C     0.78883   0.31638   0.76425   0.00000  Uiso   1.00
C963   C     0.83261   0.29083   0.74632   0.00000  Uiso   1.00
C964   C     0.96336   0.19178   0.78589   0.00000  Uiso   1.00
C965   C     0.67931   0.19182   0.78598   0.00000  Uiso   1.00
C966   C     0.70275   0.14027   0.71557   0.00000  Uiso   1.00
C967   C     0.98751   0.14216   0.71298   0.00000  Uiso   1.00
C968   C     0.83398   0.08762   0.75187   0.00000  Uiso   1.00
C969   C     0.85981   0.16823   0.64991   0.00000  Uiso   1.00
C970   C     0.93514   0.15545   0.50554   0.00000  Uiso   1.00
C971   C     0.87550   0.16911   0.59201   0.00000  Uiso   1.00
C972   C     0.74718   0.19094   0.93459   0.00000  Uiso   1.00
C973   C     0.73807   0.20845   0.98522   0.00000  Uiso   1.00
C974   C     0.77170   0.20312   0.51217   0.00000  Uiso   1.00
Cu975  Cu    0.78645   0.16666   0.75000   0.00000  Uiso   1.00
Cu976  Cu    0.88022   0.16667   0.75000   0.00000  Uiso   1.00
H977   H     0.75758   0.04435   0.77756   0.00000  Uiso   1.00
H978   H     0.97286   0.15036   0.98113   0.00000  Uiso   1.00
H979   H     0.80117   0.17203   0.59216   0.00000  Uiso   1.00
H980   H     0.72174   0.19878   0.91447   0.00000  Uiso   1.00
H981   H     0.70613   0.22937   0.50175   0.00000  Uiso   1.00
H982   H     0.87243   0.11646   0.87412   0.00000  Uiso   1.00
N983   N     0.71598   0.16666   0.74998   0.00000  Uiso   1.00
N984   N     0.95069   0.16669   0.74999   0.00000  Uiso   1.00
O985   O     0.79375   0.22678   0.75000   0.00000  Uiso   1.00
O986   O     0.87294   0.22679   0.75000   0.00000  Uiso   1.00
O987   O     0.77441   0.16665   0.82549   0.00000  Uiso   1.00
O988   O     0.85360   0.16666   0.82549   0.00000  Uiso   1.00
O989   O     0.79373   0.10654   0.74999   0.00000  Uiso   1.00
O990   O     0.87292   0.10655   0.74999   0.00000  Uiso   1.00
O991   O     0.81306   0.16667   0.67451   0.00000  Uiso   1.00
O992   O     0.89225   0.16668   0.67451   0.00000  Uiso   1.00
C993   C     0.96576   0.18452   0.57572   0.00000  Uiso   1.00
H994   H     0.96082   0.18659   0.61789   0.00000  Uiso   1.00
H995   H     0.66704   0.16612   0.55519   0.00000  Uiso   1.00
H996   H     0.96983   0.21622   0.56412   0.00000  Uiso   1.00
C997   C     0.92576   0.03318   0.75081   0.00000  Uiso   1.00
H998   H     0.92012   0.06189   0.77675   0.00000  Uiso   1.00
H999   H     0.94072   0.01114   0.77213   0.00000  Uiso   1.00
H1000  H     0.95349   0.03588   0.71232   0.00000  Uiso   1.00
C1001  C     0.73908   0.30088   0.78522   0.00000  Uiso   1.00
H1002  H     0.73155   0.27899   0.75576   0.00000  Uiso   1.00
H1003  H     0.73734   0.28743   0.82210   0.00000  Uiso   1.00
H1004  H     0.70951   0.32574   0.79546   0.00000  Uiso   1.00
C1005  C     0.92647   0.22098   0.82388   0.00000  Uiso   1.00
O1006  O     0.90717   0.21218   0.86858   0.00000  Uiso   1.00
O1007  O     0.91922   0.26064   0.81087   0.00000  Uiso   1.00
H1008  H     0.89467   0.27840   0.84064   0.00000  Uiso   1.00
C1009  C     0.68850   0.21791   0.82969   0.00000  Uiso   1.00
H1010  H     0.72681   0.22158   0.82427   0.00000  Uiso   1.00
H1011  H     0.67132   0.24925   0.83316   0.00000  Uiso   1.00
H1012  H     0.67153   0.20448   0.86711   0.00000  Uiso   1.00
C1013  C     0.73598   0.10476   0.68671   0.00000  Uiso   1.00
O1014  O     0.72898   0.07098   0.70294   0.00000  Uiso   1.00
O1015  O     0.77145   0.10855   0.63876   0.00000  Uiso   1.00
H1016  H     0.79065   0.08165   0.62260   0.00000  Uiso   1.00
C1017  C     0.97982   0.11890   0.66671   0.00000  Uiso   1.00
O1018  O     0.94418   0.09949   0.67081   0.00000  Uiso   1.00
O1019  O     0.68249   0.11744   0.61776   0.00000  Uiso   1.00
H1020  H     0.67463   0.09925   0.58975   0.00000  Uiso   1.00
C1021  C     0.95431   0.11271   0.89968   0.00000  Uiso   1.00
H1022  H     0.95337   0.09860   0.86126   0.00000  Uiso   1.00
H1023  H     0.98278   0.13517   0.89164   0.00000  Uiso   1.00
H1024  H     0.96453   0.08809   0.92119   0.00000  Uiso   1.00
C1025  C     0.76359   0.23215   0.56095   0.00000  Uiso   1.00
H1026  H     0.74129   0.21814   0.59611   0.00000  Uiso   1.00
H1027  H     0.79856   0.24150   0.56543   0.00000  Uiso   1.00
H1028  H     0.74339   0.26112   0.55860   0.00000  Uiso   1.00
C1029  C     0.92265   0.28533   0.69484   0.00000  Uiso   1.00
O1030  O     0.91982   0.26424   0.65668   0.00000  Uiso   1.00
O1031  O     0.96735   0.28660   0.70441   0.00000  Uiso   1.00
H1032  H     0.99422   0.26861   0.67737   0.00000  Uiso   1.00
C1033  C     0.16619   0.57924   0.74874   0.00000  Uiso   1.00
C1034  C     0.14755   0.50905   0.98876   0.00000  Uiso   1.00
C1035  C     0.15722   0.49227   0.93595   0.00000  Uiso   1.00
C1036  C     0.18309   0.50031   0.51367   0.00000  Uiso   1.00
C1037  C     0.23080   0.48535   0.98323   0.00000  Uiso   1.00
C1038  C     0.23909   0.46718   0.93197   0.00000  Uiso   1.00
C1039  C     0.20051   0.46739   0.91126   0.00000  Uiso   1.00
C1040  C     0.17214   0.50345   0.56816   0.00000  Uiso   1.00
C1041  C     0.25805   0.50092   0.55912   0.00000  Uiso   1.00
C1042  C     0.12470   0.50232   0.90800   0.00000  Uiso   1.00
C1043  C     0.21130   0.64244   0.73044   0.00000  Uiso   1.00
C1044  C     0.14046   0.49891   0.85001   0.00000  Uiso   1.00
C1045  C     0.21266   0.35122   0.74365   0.00000  Uiso   1.00
C1046  C     0.16895   0.37642   0.75448   0.00000  Uiso   1.00
C1047  C     0.12458   0.35846   0.76527   0.00000  Uiso   1.00
C1048  C     0.12217   0.64971   0.76425   0.00000  Uiso   1.00
C1049  C     0.16594   0.62416   0.74632   0.00000  Uiso   1.00
C1050  C     0.29669   0.52512   0.78589   0.00000  Uiso   1.00
C1051  C     0.01264   0.52515   0.78598   0.00000  Uiso   1.00
C1052  C     0.03608   0.47360   0.71557   0.00000  Uiso   1.00
C1053  C     0.32084   0.47550   0.71298   0.00000  Uiso   1.00
C1054  C     0.16732   0.42096   0.75187   0.00000  Uiso   1.00
C1055  C     0.19314   0.50156   0.64991   0.00000  Uiso   1.00
C1056  C     0.26847   0.48879   0.50554   0.00000  Uiso   1.00
C1057  C     0.20884   0.50244   0.59201   0.00000  Uiso   1.00
C1058  C     0.08051   0.52427   0.93459   0.00000  Uiso   1.00
C1059  C     0.07141   0.54178   0.98522   0.00000  Uiso   1.00
C1060  C     0.10503   0.53646   0.51217   0.00000  Uiso   1.00
Cu1061 Cu    0.11978   0.49999   0.75000   0.00000  Uiso   1.00
Cu1062 Cu    0.21355   0.50001   0.75000   0.00000  Uiso   1.00
H1063  H     0.09092   0.37768   0.77756   0.00000  Uiso   1.00
H1064  H     0.30619   0.48370   0.98113   0.00000  Uiso   1.00
H1065  H     0.13450   0.50536   0.59216   0.00000  Uiso   1.00
H1066  H     0.05508   0.53211   0.91447   0.00000  Uiso   1.00
H1067  H     0.03947   0.56270   0.50175   0.00000  Uiso   1.00
H1068  H     0.20576   0.44979   0.87412   0.00000  Uiso   1.00
N1069  N     0.04931   0.49999   0.74998   0.00000  Uiso   1.00
N1070  N     0.28402   0.50002   0.74999   0.00000  Uiso   1.00
O1071  O     0.12708   0.56011   0.75000   0.00000  Uiso   1.00
O1072  O     0.20627   0.56012   0.75000   0.00000  Uiso   1.00
O1073  O     0.10775   0.49998   0.82549   0.00000  Uiso   1.00
O1074  O     0.18694   0.49999   0.82549   0.00000  Uiso   1.00
O1075  O     0.12706   0.43988   0.74999   0.00000  Uiso   1.00
O1076  O     0.20625   0.43989   0.74999   0.00000  Uiso   1.00
O1077  O     0.14640   0.50001   0.67451   0.00000  Uiso   1.00
O1078  O     0.22559   0.50002   0.67451   0.00000  Uiso   1.00
C1079  C     0.29909   0.51786   0.57572   0.00000  Uiso   1.00
H1080  H     0.29416   0.51993   0.61789   0.00000  Uiso   1.00
H1081  H     0.00037   0.49945   0.55519   0.00000  Uiso   1.00
H1082  H     0.30316   0.54955   0.56412   0.00000  Uiso   1.00
C1083  C     0.25910   0.36652   0.75081   0.00000  Uiso   1.00
H1084  H     0.25345   0.39522   0.77675   0.00000  Uiso   1.00
H1085  H     0.27405   0.34447   0.77213   0.00000  Uiso   1.00
H1086  H     0.28682   0.36921   0.71232   0.00000  Uiso   1.00
C1087  C     0.07241   0.63422   0.78522   0.00000  Uiso   1.00
H1088  H     0.06489   0.61232   0.75576   0.00000  Uiso   1.00
H1089  H     0.07067   0.62077   0.82210   0.00000  Uiso   1.00
H1090  H     0.04284   0.65907   0.79546   0.00000  Uiso   1.00
C1091  C     0.25980   0.55431   0.82388   0.00000  Uiso   1.00
O1092  O     0.24051   0.54552   0.86858   0.00000  Uiso   1.00
O1093  O     0.25256   0.59398   0.81087   0.00000  Uiso   1.00
H1094  H     0.22801   0.61173   0.84064   0.00000  Uiso   1.00
C1095  C     0.02183   0.55124   0.82969   0.00000  Uiso   1.00
H1096  H     0.06014   0.55491   0.82427   0.00000  Uiso   1.00
H1097  H     0.00465   0.58258   0.83316   0.00000  Uiso   1.00
H1098  H     0.00486   0.53782   0.86711   0.00000  Uiso   1.00
C1099  C     0.06931   0.43809   0.68671   0.00000  Uiso   1.00
O1100  O     0.06231   0.40431   0.70294   0.00000  Uiso   1.00
O1101  O     0.10478   0.44188   0.63876   0.00000  Uiso   1.00
H1102  H     0.12398   0.41499   0.62260   0.00000  Uiso   1.00
C1103  C     0.31316   0.45223   0.66671   0.00000  Uiso   1.00
O1104  O     0.27752   0.43282   0.67081   0.00000  Uiso   1.00
O1105  O     0.01582   0.45077   0.61776   0.00000  Uiso   1.00
H1106  H     0.00796   0.43259   0.58975   0.00000  Uiso   1.00
C1107  C     0.28764   0.44604   0.89968   0.00000  Uiso   1.00
H1108  H     0.28671   0.43193   0.86126   0.00000  Uiso   1.00
H1109  H     0.31611   0.46851   0.89164   0.00000  Uiso   1.00
H1110  H     0.29786   0.42142   0.92119   0.00000  Uiso   1.00
C1111  C     0.09693   0.56548   0.56095   0.00000  Uiso   1.00
H1112  H     0.07462   0.55147   0.59611   0.00000  Uiso   1.00
H1113  H     0.13190   0.57483   0.56543   0.00000  Uiso   1.00
H1114  H     0.07673   0.59445   0.55860   0.00000  Uiso   1.00
C1115  C     0.25598   0.61867   0.69484   0.00000  Uiso   1.00
O1116  O     0.25315   0.59758   0.65668   0.00000  Uiso   1.00
O1117  O     0.30068   0.61993   0.70441   0.00000  Uiso   1.00
H1118  H     0.32755   0.60194   0.67737   0.00000  Uiso   1.00
C1119  C     0.49952   0.57924   0.74874   0.00000  Uiso   1.00
C1120  C     0.48088   0.50905   0.98876   0.00000  Uiso   1.00
C1121  C     0.49056   0.49227   0.93595   0.00000  Uiso   1.00
C1122  C     0.51642   0.50031   0.51367   0.00000  Uiso   1.00
C1123  C     0.56413   0.48535   0.98323   0.00000  Uiso   1.00
C1124  C     0.57242   0.46718   0.93197   0.00000  Uiso   1.00
C1125  C     0.53385   0.46739   0.91126   0.00000  Uiso   1.00
C1126  C     0.50547   0.50345   0.56816   0.00000  Uiso   1.00
C1127  C     0.59138   0.50092   0.55912   0.00000  Uiso   1.00
C1128  C     0.45803   0.50232   0.90800   0.00000  Uiso   1.00
C1129  C     0.54463   0.64244   0.73044   0.00000  Uiso   1.00
C1130  C     0.47379   0.49891   0.85001   0.00000  Uiso   1.00
C1131  C     0.54600   0.35122   0.74365   0.00000  Uiso   1.00
C1132  C     0.50228   0.37642   0.75448   0.00000  Uiso   1.00
C1133  C     0.45791   0.35846   0.76527   0.00000  Uiso   1.00
C1134  C     0.45550   0.64971   0.76425   0.00000  Uiso   1.00
C1135  C     0.49928   0.62416   0.74632   0.00000  Uiso   1.00
C1136  C     0.63002   0.52512   0.78589   0.00000  Uiso   1.00
C1137  C     0.34597   0.52515   0.78598   0.00000  Uiso   1.00
C1138  C     0.36941   0.47360   0.71557   0.00000  Uiso   1.00
C1139  C     0.65417   0.47550   0.71298   0.00000  Uiso   1.00
C1140  C     0.50065   0.42096   0.75187   0.00000  Uiso   1.00
C1141  C     0.52648   0.50156   0.64991   0.00000  Uiso   1.00
C1142  C     0.60180   0.48879   0.50554   0.00000  Uiso   1.00
C1143  C     0.54217   0.50244   0.59201   0.00000  Uiso   1.00
C1144  C     0.41384   0.52427   0.93459   0.00000  Uiso   1.00
C1145  C     0.40474   0.54178   0.98522   0.00000  Uiso   1.00
C1146  C     0.43837   0.53646   0.51217   0.00000  Uiso   1.00
Cu1147 Cu    0.45311   0.49999   0.75000   0.00000  Uiso   1.00
Cu1148 Cu    0.54689   0.50001   0.75000   0.00000  Uiso   1.00
H1149  H     0.42425   0.37768   0.77756   0.00000  Uiso   1.00
H1150  H     0.63952   0.48370   0.98113   0.00000  Uiso   1.00
H1151  H     0.46783   0.50536   0.59216   0.00000  Uiso   1.00
H1152  H     0.38841   0.53211   0.91447   0.00000  Uiso   1.00
H1153  H     0.37280   0.56270   0.50175   0.00000  Uiso   1.00
H1154  H     0.53910   0.44979   0.87412   0.00000  Uiso   1.00
N1155  N     0.38265   0.49999   0.74998   0.00000  Uiso   1.00
N1156  N     0.61735   0.50002   0.74999   0.00000  Uiso   1.00
O1157  O     0.46042   0.56011   0.75000   0.00000  Uiso   1.00
O1158  O     0.53961   0.56012   0.75000   0.00000  Uiso   1.00
O1159  O     0.44108   0.49998   0.82549   0.00000  Uiso   1.00
O1160  O     0.52027   0.49999   0.82549   0.00000  Uiso   1.00
O1161  O     0.46039   0.43988   0.74999   0.00000  Uiso   1.00
O1162  O     0.53958   0.43989   0.74999   0.00000  Uiso   1.00
O1163  O     0.47973   0.50001   0.67451   0.00000  Uiso   1.00
O1164  O     0.55892   0.50002   0.67451   0.00000  Uiso   1.00
C1165  C     0.63243   0.51786   0.57572   0.00000  Uiso   1.00
H1166  H     0.62749   0.51993   0.61789   0.00000  Uiso   1.00
H1167  H     0.33371   0.49945   0.55519   0.00000  Uiso   1.00
H1168  H     0.63649   0.54955   0.56412   0.00000  Uiso   1.00
C1169  C     0.59243   0.36652   0.75081   0.00000  Uiso   1.00
H1170  H     0.58678   0.39522   0.77675   0.00000  Uiso   1.00
H1171  H     0.60739   0.34447   0.77213   0.00000  Uiso   1.00
H1172  H     0.62016   0.36921   0.71232   0.00000  Uiso   1.00
C1173  C     0.40575   0.63422   0.78522   0.00000  Uiso   1.00
H1174  H     0.39822   0.61232   0.75576   0.00000  Uiso   1.00
H1175  H     0.40401   0.62077   0.82210   0.00000  Uiso   1.00
H1176  H     0.37618   0.65907   0.79546   0.00000  Uiso   1.00
C1177  C     0.59314   0.55431   0.82388   0.00000  Uiso   1.00
O1178  O     0.57384   0.54552   0.86858   0.00000  Uiso   1.00
O1179  O     0.58589   0.59398   0.81087   0.00000  Uiso   1.00
H1180  H     0.56134   0.61173   0.84064   0.00000  Uiso   1.00
C1181  C     0.35516   0.55124   0.82969   0.00000  Uiso   1.00
H1182  H     0.39348   0.55491   0.82427   0.00000  Uiso   1.00
H1183  H     0.33798   0.58258   0.83316   0.00000  Uiso   1.00
H1184  H     0.33819   0.53782   0.86711   0.00000  Uiso   1.00
C1185  C     0.40264   0.43809   0.68671   0.00000  Uiso   1.00
O1186  O     0.39565   0.40431   0.70294   0.00000  Uiso   1.00
O1187  O     0.43811   0.44188   0.63876   0.00000  Uiso   1.00
H1188  H     0.45732   0.41499   0.62260   0.00000  Uiso   1.00
C1189  C     0.64649   0.45223   0.66671   0.00000  Uiso   1.00
O1190  O     0.61085   0.43282   0.67081   0.00000  Uiso   1.00
O1191  O     0.34916   0.45077   0.61776   0.00000  Uiso   1.00
H1192  H     0.34130   0.43259   0.58975   0.00000  Uiso   1.00
C1193  C     0.62098   0.44604   0.89968   0.00000  Uiso   1.00
H1194  H     0.62004   0.43193   0.86126   0.00000  Uiso   1.00
H1195  H     0.64944   0.46851   0.89164   0.00000  Uiso   1.00
H1196  H     0.63119   0.42142   0.92119   0.00000  Uiso   1.00
C1197  C     0.43026   0.56548   0.56095   0.00000  Uiso   1.00
H1198  H     0.40795   0.55147   0.59611   0.00000  Uiso   1.00
H1199  H     0.46523   0.57483   0.56543   0.00000  Uiso   1.00
H1200  H     0.41006   0.59445   0.55860   0.00000  Uiso   1.00
C1201  C     0.58932   0.61867   0.69484   0.00000  Uiso   1.00
O1202  O     0.58649   0.59758   0.65668   0.00000  Uiso   1.00
O1203  O     0.63401   0.61993   0.70441   0.00000  Uiso   1.00
H1204  H     0.66089   0.60194   0.67737   0.00000  Uiso   1.00
C1205  C     0.83285   0.57924   0.74874   0.00000  Uiso   1.00
C1206  C     0.81421   0.50905   0.98876   0.00000  Uiso   1.00
C1207  C     0.82389   0.49227   0.93595   0.00000  Uiso   1.00
C1208  C     0.84975   0.50031   0.51367   0.00000  Uiso   1.00
C1209  C     0.89746   0.48535   0.98323   0.00000  Uiso   1.00
C1210  C     0.90575   0.46718   0.93197   0.00000  Uiso   1.00
C1211  C     0.86718   0.46739   0.91126   0.00000  Uiso   1.00
C1212  C     0.83880   0.50345   0.56816   0.00000  Uiso   1.00
C1213  C     0.92472   0.50092   0.55912   0.00000  Uiso   1.00
C1214  C     0.79136   0.50232   0.90800   0.00000  Uiso   1.00
C1215  C     0.87796   0.64244   0.73044   0.00000  Uiso   1.00
C1216  C     0.80712   0.49891   0.85001   0.00000  Uiso   1.00
C1217  C     0.87933   0.35122   0.74365   0.00000  Uiso   1.00
C1218  C     0.83561   0.37642   0.75448   0.00000  Uiso   1.00
C1219  C     0.79124   0.35846   0.76527   0.00000  Uiso   1.00
C1220  C     0.78883   0.64971   0.76425   0.00000  Uiso   1.00
C1221  C     0.83261   0.62416   0.74632   0.00000  Uiso   1.00
C1222  C     0.96336   0.52512   0.78589   0.00000  Uiso   1.00
C1223  C     0.67931   0.52515   0.78598   0.00000  Uiso   1.00
C1224  C     0.70275   0.47360   0.71557   0.00000  Uiso   1.00
C1225  C     0.98751   0.47550   0.71298   0.00000  Uiso   1.00
C1226  C     0.83398   0.42096   0.75187   0.00000  Uiso   1.00
C1227  C     0.85981   0.50156   0.64991   0.00000  Uiso   1.00
C1228  C     0.93514   0.48879   0.50554   0.00000  Uiso   1.00
C1229  C     0.87550   0.50244   0.59201   0.00000  Uiso   1.00
C1230  C     0.74718   0.52427   0.93459   0.00000  Uiso   1.00
C1231  C     0.73807   0.54178   0.98522   0.00000  Uiso   1.00
C1232  C     0.77170   0.53646   0.51217   0.00000  Uiso   1.00
Cu1233 Cu    0.78645   0.49999   0.75000   0.00000  Uiso   1.00
Cu1234 Cu    0.88022   0.50001   0.75000   0.00000  Uiso   1.00
H1235  H     0.75758   0.37768   0.77756   0.00000  Uiso   1.00
H1236  H     0.97286   0.48370   0.98113   0.00000  Uiso   1.00
H1237  H     0.80117   0.50536   0.59216   0.00000  Uiso   1.00
H1238  H     0.72174   0.53211   0.91447   0.00000  Uiso   1.00
H1239  H     0.70613   0.56270   0.50175   0.00000  Uiso   1.00
H1240  H     0.87243   0.44979   0.87412   0.00000  Uiso   1.00
N1241  N     0.71598   0.49999   0.74998   0.00000  Uiso   1.00
N1242  N     0.95069   0.50002   0.74999   0.00000  Uiso   1.00
O1243  O     0.79375   0.56011   0.75000   0.00000  Uiso   1.00
O1244  O     0.87294   0.56012   0.75000   0.00000  Uiso   1.00
O1245  O     0.77441   0.49998   0.82549   0.00000  Uiso   1.00
O1246  O     0.85360   0.49999   0.82549   0.00000  Uiso   1.00
O1247  O     0.79373   0.43988   0.74999   0.00000  Uiso   1.00
O1248  O     0.87292   0.43989   0.74999   0.00000  Uiso   1.00
O1249  O     0.81306   0.50001   0.67451   0.00000  Uiso   1.00
O1250  O     0.89225   0.50002   0.67451   0.00000  Uiso   1.00
C1251  C     0.96576   0.51786   0.57572   0.00000  Uiso   1.00
H1252  H     0.96082   0.51993   0.61789   0.00000  Uiso   1.00
H1253  H     0.66704   0.49945   0.55519   0.00000  Uiso   1.00
H1254  H     0.96983   0.54955   0.56412   0.00000  Uiso   1.00
C1255  C     0.92576   0.36652   0.75081   0.00000  Uiso   1.00
H1256  H     0.92012   0.39522   0.77675   0.00000  Uiso   1.00
H1257  H     0.94072   0.34447   0.77213   0.00000  Uiso   1.00
H1258  H     0.95349   0.36921   0.71232   0.00000  Uiso   1.00
C1259  C     0.73908   0.63422   0.78522   0.00000  Uiso   1.00
H1260  H     0.73155   0.61232   0.75576   0.00000  Uiso   1.00
H1261  H     0.73734   0.62077   0.82210   0.00000  Uiso   1.00
H1262  H     0.70951   0.65907   0.79546   0.00000  Uiso   1.00
C1263  C     0.92647   0.55431   0.82388   0.00000  Uiso   1.00
O1264  O     0.90717   0.54552   0.86858   0.00000  Uiso   1.00
O1265  O     0.91922   0.59398   0.81087   0.00000  Uiso   1.00
H1266  H     0.89467   0.61173   0.84064   0.00000  Uiso   1.00
C1267  C     0.68850   0.55124   0.82969   0.00000  Uiso   1.00
H1268  H     0.72681   0.55491   0.82427   0.00000  Uiso   1.00
H1269  H     0.67132   0.58258   0.83316   0.00000  Uiso   1.00
H1270  H     0.67153   0.53782   0.86711   0.00000  Uiso   1.00
C1271  C     0.73598   0.43809   0.68671   0.00000  Uiso   1.00
O1272  O     0.72898   0.40431   0.70294   0.00000  Uiso   1.00
O1273  O     0.77145   0.44188   0.63876   0.00000  Uiso   1.00
H1274  H     0.79065   0.41499   0.62260   0.00000  Uiso   1.00
C1275  C     0.97982   0.45223   0.66671   0.00000  Uiso   1.00
O1276  O     0.94418   0.43282   0.67081   0.00000  Uiso   1.00
O1277  O     0.68249   0.45077   0.61776   0.00000  Uiso   1.00
H1278  H     0.67463   0.43259   0.58975   0.00000  Uiso   1.00
C1279  C     0.95431   0.44604   0.89968   0.00000  Uiso   1.00
H1280  H     0.95337   0.43193   0.86126   0.00000  Uiso   1.00
H1281  H     0.98278   0.46851   0.89164   0.00000  Uiso   1.00
H1282  H     0.96453   0.42142   0.92119   0.00000  Uiso   1.00
C1283  C     0.76359   0.56548   0.56095   0.00000  Uiso   1.00
H1284  H     0.74129   0.55147   0.59611   0.00000  Uiso   1.00
H1285  H     0.79856   0.57483   0.56543   0.00000  Uiso   1.00
H1286  H     0.74339   0.59445   0.55860   0.00000  Uiso   1.00
C1287  C     0.92265   0.61867   0.69484   0.00000  Uiso   1.00
O1288  O     0.91982   0.59758   0.65668   0.00000  Uiso   1.00
O1289  O     0.96735   0.61993   0.70441   0.00000  Uiso   1.00
H1290  H     0.99422   0.60194   0.67737   0.00000  Uiso   1.00
C1291  C     0.16619   0.91257   0.74874   0.00000  Uiso   1.00
C1292  C     0.14755   0.84238   0.98876   0.00000  Uiso   1.00
C1293  C     0.15722   0.82560   0.93595   0.00000  Uiso   1.00
C1294  C     0.18309   0.83365   0.51367   0.00000  Uiso   1.00
C1295  C     0.23080   0.81869   0.98323   0.00000  Uiso   1.00
C1296  C     0.23909   0.80052   0.93197   0.00000  Uiso   1.00
C1297  C     0.20051   0.80073   0.91126   0.00000  Uiso   1.00
C1298  C     0.17214   0.83678   0.56816   0.00000  Uiso   1.00
C1299  C     0.25805   0.83425   0.55912   0.00000  Uiso   1.00
C1300  C     0.12470   0.83566   0.90800   0.00000  Uiso   1.00
C1301  C     0.21130   0.97577   0.73044   0.00000  Uiso   1.00
C1302  C     0.14046   0.83224   0.85001   0.00000  Uiso   1.00
C1303  C     0.21266   0.68456   0.74365   0.00000  Uiso   1.00
C1304  C     0.16895   0.70975   0.75448   0.00000  Uiso   1.00
C1305  C     0.12458   0.69179   0.76527   0.00000  Uiso   1.00
C1306  C     0.12217   0.98304   0.76425   0.00000  Uiso   1.00
C1307  C     0.16594   0.95749   0.74632   0.00000  Uiso   1.00
C1308  C     0.29669   0.85845   0.78589   0.00000  Uiso   1.00
C1309  C     0.01264   0.85849   0.78598   0.00000  Uiso   1.00
C1310  C     0.03608   0.80694   0.71557   0.00000  Uiso   1.00
C1311  C     0.32084   0.80883   0.71298   0.00000  Uiso   1.00
C1312  C     0.16732   0.75429   0.75187   0.00000  Uiso   1.00
C1313  C     0.19314   0.83490   0.64991   0.00000  Uiso   1.00
C1314  C     0.26847   0.82212   0.50554   0.00000  Uiso   1.00
C1315  C     0.20884   0.83578   0.59201   0.00000  Uiso   1.00
C1316  C     0.08051   0.85761   0.93459   0.00000  Uiso   1.00
C1317  C     0.07141   0.87512   0.98522   0.00000  Uiso   1.00
C1318  C     0.10503   0.86979   0.51217   0.00000  Uiso   1.00
Cu1319 Cu    0.11978   0.83333   0.75000   0.00000  Uiso   1.00
Cu1320 Cu    0.21355   0.83334   0.75000   0.00000  Uiso   1.00
H1321  H     0.09092   0.71101   0.77756   0.00000  Uiso   1.00
H1322  H     0.30619   0.81703   0.98113   0.00000  Uiso   1.00
H1323  H     0.13450   0.83869   0.59216   0.00000  Uiso   1.00
H1324  H     0.05508   0.86544   0.91447   0.00000  Uiso   1.00
H1325  H     0.03947   0.89604   0.50175   0.00000  Uiso   1.00
H1326  H     0.20576   0.78313   0.87412   0.00000  Uiso   1.00
N1327  N     0.04931   0.83332   0.74998   0.00000  Uiso   1.00
N1328  N     0.28402   0.83335   0.74999   0.00000  Uiso   1.00
O1329  O     0.12708   0.89345   0.75000   0.00000  Uiso   1.00
O1330  O     0.20627   0.89346   0.75000   0.00000  Uiso   1.00
O1331  O     0.10775   0.83332   0.82549   0.00000  Uiso   1.00
O1332  O     0.18694   0.83333   0.82549   0.00000  Uiso   1.00
O1333  O     0.12706   0.77321   0.74999   0.00000  Uiso   1.00
O1334  O     0.20625   0.77322   0.74999   0.00000  Uiso   1.00
O1335  O     0.14640   0.83334   0.67451   0.00000  Uiso   1.00
O1336  O     0.22559   0.83335   0.67451   0.00000  Uiso   1.00
C1337  C     0.29909   0.85119   0.57572   0.00000  Uiso   1.00
H1338  H     0.29416   0.85326   0.61789   0.00000  Uiso   1.00
H1339  H     0.00037   0.83278   0.55519   0.00000  Uiso   1.00
H1340  H     0.30316   0.88288   0.56412   0.00000  Uiso   1.00
C1341  C     0.25910   0.69985   0.75081   0.00000  Uiso   1.00
H1342  H     0.25345   0.72856   0.77675   0.00000  Uiso   1.00
H1343  H     0.27405   0.67781   0.77213   0.00000  Uiso   1.00
H1344  H     0.28682   0.70254   0.71232   0.00000  Uiso   1.00
C1345  C     0.07241   0.96755   0.78522   0.00000  Uiso   1.00
H1346  H     0.06489   0.94565   0.75576   0.00000  Uiso   1.00
H1347  H     0.07067   0.95410   0.82210   0.00000  Uiso   1.00
H1348  H     0.04284   0.99241   0.79546   0.00000  Uiso   1.00
C1349  C     0.25980   0.88764   0.82388   0.00000  Uiso   1.00
O1350  O     0.24051   0.87885   0.86858   0.00000  Uiso   1.00
O1351  O     0.25256   0.92731   0.81087   0.00000  Uiso   1.00
H1352  H     0.22801   0.94506   0.84064   0.00000  Uiso   1.00
C1353  C     0.02183   0.88458   0.82969   0.00000  Uiso   1.00
H1354  H     0.06014   0.88824   0.82427   0.00000  Uiso   1.00
H1355  H     0.00465   0.91592   0.83316   0.00000  Uiso   1.00
H1356  H     0.00486   0.87115   0.86711   0.00000  Uiso   1.00
C1357  C     0.06931   0.77142   0.68671   0.00000  Uiso   1.00
O1358  O     0.06231   0.73765   0.70294   0.00000  Uiso   1.00
O1359  O     0.10478   0.77522   0.63876   0.00000  Uiso   1.00
H1360  H     0.12398   0.74832   0.62260   0.00000  Uiso   1.00
C1361  C     0.31316   0.78557   0.66671   0.00000  Uiso   1.00
O1362  O     0.27752   0.76615   0.67081   0.00000  Uiso   1.00
O1363  O     0.01582   0.78411   0.61776   0.00000  Uiso   1.00
H1364  H     0.00796   0.76592   0.58975   0.00000  Uiso   1.00
C1365  C     0.28764   0.77937   0.89968   0.00000  Uiso   1.00
H1366  H     0.28671   0.76527   0.86126   0.00000  Uiso   1.00
H1367  H     0.31611   0.80184   0.89164   0.00000  Uiso   1.00
H1368  H     0.29786   0.75475   0.92119   0.00000  Uiso   1.00
C1369  C     0.09693   0.89881   0.56095   0.00000  Uiso   1.00
H1370  H     0.07462   0.88480   0.59611   0.00000  Uiso   1.00
H1371  H     0.13190   0.90817   0.56543   0.00000  Uiso   1.00
H1372  H     0.07673   0.92779   0.55860   0.00000  Uiso   1.00
C1373  C     0.25598   0.95200   0.69484   0.00000  Uiso   1.00
O1374  O     0.25315   0.93091   0.65668   0.00000  Uiso   1.00
O1375  O     0.30068   0.95326   0.70441   0.00000  Uiso   1.00
H1376  H     0.32755   0.93527   0.67737   0.00000  Uiso   1.00
C1377  C     0.49952   0.91257   0.74874   0.00000  Uiso   1.00
C1378  C     0.48088   0.84238   0.98876   0.00000  Uiso   1.00
C1379  C     0.49056   0.82560   0.93595   0.00000  Uiso   1.00
C1380  C     0.51642   0.83365   0.51367   0.00000  Uiso   1.00
C1381  C     0.56413   0.81869   0.98323   0.00000  Uiso   1.00
C1382  C     0.57242   0.80052   0.93197   0.00000  Uiso   1.00
C1383  C     0.53385   0.80073   0.91126   0.00000  Uiso   1.00
C1384  C     0.50547   0.83678   0.56816   0.00000  Uiso   1.00
C1385  C     0.59138   0.83425   0.55912   0.00000  Uiso   1.00
C1386  C     0.45803   0.83566   0.90800   0.00000  Uiso   1.00
C1387  C     0.54463   0.97577   0.73044   0.00000  Uiso   1.00
C1388  C     0.47379   0.83224   0.85001   0.00000  Uiso   1.00
C1389  C     0.54600   0.68456   0.74365   0.00000  Uiso   1.00
C1390  C     0.50228   0.70975   0.75448   0.00000  Uiso   1.00
C1391  C     0.45791   0.69179   0.76527   0.00000  Uiso   1.00
C1392  C     0.45550   0.98304   0.76425   0.00000  Uiso   1.00
C1393  C     0.49928   0.95749   0.74632   0.00000  Uiso   1.00
C1394  C     0.63002   0.85845   0.78589   0.00000  Uiso   1.00
C1395  C     0.34597   0.85849   0.78598   0.00000  Uiso   1.00
C1396  C     0.36941   0.80694   0.71557   0.00000  Uiso   1.00
C1397  C     0.65417   0.80883   0.71298   0.00000  Uiso   1.00
C1398  C     0.50065   0.75429   0.75187   0.00000  Uiso   1.00
C1399  C     0.52648   0.83490   0.64991   0.00000  Uiso   1.00
C1400  C     0.60180   0.82212   0.50554   0.00000  Uiso   1.00
C1401  C     0.54217   0.83578   0.59201   0.00000  Uiso   1.00
C1402  C     0.41384   0.85761   0.93459   0.00000  Uiso   1.00
C1403  C     0.40474   0.87512   0.98522   0.00000  Uiso   1.00
C1404  C     0.43837   0.86979   0.51217   0.00000  Uiso   1.00
Cu1405 Cu    0.45311   0.83333   0.75000   0.00000  Uiso   1.00
Cu1406 Cu    0.54689   0.83334   0.75000   0.00000  Uiso   1.00
H1407  H     0.42425   0.71101   0.77756   0.00000  Uiso   1.00
H1408  H     0.63952   0.81703   0.98113   0.00000  Uiso   1.00
H1409  H     0.46783   0.83869   0.59216   0.00000  Uiso   1.00
H1410  H     0.38841   0.86544   0.91447   0.00000  Uiso   1.00
H1411  H     0.37280   0.89604   0.50175   0.00000  Uiso   1.00
H1412  H     0.53910   0.78313   0.87412   0.00000  Uiso   1.00
N1413  N     0.38265   0.83332   0.74998   0.00000  Uiso   1.00
N1414  N     0.61735   0.83335   0.74999   0.00000  Uiso   1.00
O1415  O     0.46042   0.89345   0.75000   0.00000  Uiso   1.00
O1416  O     0.53961   0.89346   0.75000   0.00000  Uiso   1.00
O1417  O     0.44108   0.83332   0.82549   0.00000  Uiso   1.00
O1418  O     0.52027   0.83333   0.82549   0.00000  Uiso   1.00
O1419  O     0.46039   0.77321   0.74999   0.00000  Uiso   1.00
O1420  O     0.53958   0.77322   0.74999   0.00000  Uiso   1.00
O1421  O     0.47973   0.83334   0.67451   0.00000  Uiso   1.00
O1422  O     0.55892   0.83335   0.67451   0.00000  Uiso   1.00
C1423  C     0.63243   0.85119   0.57572   0.00000  Uiso   1.00
H1424  H     0.62749   0.85326   0.61789   0.00000  Uiso   1.00
H1425  H     0.33371   0.83278   0.55519   0.00000  Uiso   1.00
H1426  H     0.63649   0.88288   0.56412   0.00000  Uiso   1.00
C1427  C     0.59243   0.69985   0.75081   0.00000  Uiso   1.00
H1428  H     0.58678   0.72856   0.77675   0.00000  Uiso   1.00
H1429  H     0.60739   0.67781   0.77213   0.00000  Uiso   1.00
H1430  H     0.62016   0.70254   0.71232   0.00000  Uiso   1.00
C1431  C     0.40575   0.96755   0.78522   0.00000  Uiso   1.00
H1432  H     0.39822   0.94565   0.75576   0.00000  Uiso   1.00
H1433  H     0.40401   0.95410   0.82210   0.00000  Uiso   1.00
H1434  H     0.37618   0.99241   0.79546   0.00000  Uiso   1.00
C1435  C     0.59314   0.88764   0.82388   0.00000  Uiso   1.00
O1436  O     0.57384   0.87885   0.86858   0.00000  Uiso   1.00
O1437  O     0.58589   0.92731   0.81087   0.00000  Uiso   1.00
H1438  H     0.56134   0.94506   0.84064   0.00000  Uiso   1.00
C1439  C     0.35516   0.88458   0.82969   0.00000  Uiso   1.00
H1440  H     0.39348   0.88824   0.82427   0.00000  Uiso   1.00
H1441  H     0.33798   0.91592   0.83316   0.00000  Uiso   1.00
H1442  H     0.33819   0.87115   0.86711   0.00000  Uiso   1.00
C1443  C     0.40264   0.77142   0.68671   0.00000  Uiso   1.00
O1444  O     0.39565   0.73765   0.70294   0.00000  Uiso   1.00
O1445  O     0.43811   0.77522   0.63876   0.00000  Uiso   1.00
H1446  H     0.45732   0.74832   0.62260   0.00000  Uiso   1.00
C1447  C     0.64649   0.78557   0.66671   0.00000  Uiso   1.00
O1448  O     0.61085   0.76615   0.67081   0.00000  Uiso   1.00
O1449  O     0.34916   0.78411   0.61776   0.00000  Uiso   1.00
H1450  H     0.34130   0.76592   0.58975   0.00000  Uiso   1.00
C1451  C     0.62098   0.77937   0.89968   0.00000  Uiso   1.00
H1452  H     0.62004   0.76527   0.86126   0.00000  Uiso   1.00
H1453  H     0.64944   0.80184   0.89164   0.00000  Uiso   1.00
H1454  H     0.63119   0.75475   0.92119   0.00000  Uiso   1.00
C1455  C     0.43026   0.89881   0.56095   0.00000  Uiso   1.00
H1456  H     0.40795   0.88480   0.59611   0.00000  Uiso   1.00
H1457  H     0.46523   0.90817   0.56543   0.00000  Uiso   1.00
H1458  H     0.41006   0.92779   0.55860   0.00000  Uiso   1.00
C1459  C     0.58932   0.95200   0.69484   0.00000  Uiso   1.00
O1460  O     0.58649   0.93091   0.65668   0.00000  Uiso   1.00
O1461  O     0.63401   0.95326   0.70441   0.00000  Uiso   1.00
H1462  H     0.66089   0.93527   0.67737   0.00000  Uiso   1.00
C1463  C     0.83285   0.91257   0.74874   0.00000  Uiso   1.00
C1464  C     0.81421   0.84238   0.98876   0.00000  Uiso   1.00
C1465  C     0.82389   0.82560   0.93595   0.00000  Uiso   1.00
C1466  C     0.84975   0.83365   0.51367   0.00000  Uiso   1.00
C1467  C     0.89746   0.81869   0.98323   0.00000  Uiso   1.00
C1468  C     0.90575   0.80052   0.93197   0.00000  Uiso   1.00
C1469  C     0.86718   0.80073   0.91126   0.00000  Uiso   1.00
C1470  C     0.83880   0.83678   0.56816   0.00000  Uiso   1.00
C1471  C     0.92472   0.83425   0.55912   0.00000  Uiso   1.00
C1472  C     0.79136   0.83566   0.90800   0.00000  Uiso   1.00
C1473  C     0.87796   0.97577   0.73044   0.00000  Uiso   1.00
C1474  C     0.80712   0.83224   0.85001   0.00000  Uiso   1.00
C1475  C     0.87933   0.68456   0.74365   0.00000  Uiso   1.00
C1476  C     0.83561   0.70975   0.75448   0.00000  Uiso   1.00
C1477  C     0.79124   0.69179   0.76527   0.00000  Uiso   1.00
C1478  C     0.78883   0.98304   0.76425   0.00000  Uiso   1.00
C1479  C     0.83261   0.95749   0.74632   0.00000  Uiso   1.00
C1480  C     0.96336   0.85845   0.78589   0.00000  Uiso   1.00
C1481  C     0.67931   0.85849   0.78598   0.00000  Uiso   1.00
C1482  C     0.70275   0.80694   0.71557   0.00000  Uiso   1.00
C1483  C     0.98751   0.80883   0.71298   0.00000  Uiso   1.00
C1484  C     0.83398   0.75429   0.75187   0.00000  Uiso   1.00
C1485  C     0.85981   0.83490   0.64991   0.00000  Uiso   1.00
C1486  C     0.93514   0.82212   0.50554   0.00000  Uiso   1.00
C1487  C     0.87550   0.83578   0.59201   0.00000  Uiso   1.00
C1488  C     0.74718   0.85761   0.93459   0.00000  Uiso   1.00
C1489  C     0.73807   0.87512   0.98522   0.00000  Uiso   1.00
C1490  C     0.77170   0.86979   0.51217   0.00000  Uiso   1.00
Cu1491 Cu    0.78645   0.83333   0.75000   0.00000  Uiso   1.00
Cu1492 Cu    0.88022   0.83334   0.75000   0.00000  Uiso   1.00
H1493  H     0.75758   0.71101   0.77756   0.00000  Uiso   1.00
H1494  H     0.97286   0.81703   0.98113   0.00000  Uiso   1.00
H1495  H     0.80117   0.83869   0.59216   0.00000  Uiso   1.00
H1496  H     0.72174   0.86544   0.91447   0.00000  Uiso   1.00
H1497  H     0.70613   0.89604   0.50175   0.00000  Uiso   1.00
H1498  H     0.87243   0.78313   0.87412   0.00000  Uiso   1.00
N1499  N     0.71598   0.83332   0.74998   0.00000  Uiso   1.00
N1500  N     0.95069   0.83335   0.74999   0.00000  Uiso   1.00
O1501  O     0.79375   0.89345   0.75000   0.00000  Uiso   1.00
O1502  O     0.87294   0.89346   0.75000   0.00000  Uiso   1.00
O1503  O     0.77441   0.83332   0.82549   0.00000  Uiso   1.00
O1504  O     0.85360   0.83333   0.82549   0.00000  Uiso   1.00
O1505  O     0.79373   0.77321   0.74999   0.00000  Uiso   1.00
O1506  O     0.87292   0.77322   0.74999   0.00000  Uiso   1.00
O1507  O     0.81306   0.83334   0.67451   0.00000  Uiso   1.00
O1508  O     0.89225   0.83335   0.67451   0.00000  Uiso   1.00
C1509  C     0.96576   0.85119   0.57572   0.00000  Uiso   1.00
H1510  H     0.96082   0.85326   0.61789   0.00000  Uiso   1.00
H1511  H     0.66704   0.83278   0.55519   0.00000  Uiso   1.00
H1512  H     0.96983   0.88288   0.56412   0.00000  Uiso   1.00
C1513  C     0.92576   0.69985   0.75081   0.00000  Uiso   1.00
H1514  H     0.92012   0.72856   0.77675   0.00000  Uiso   1.00
H1515  H     0.94072   0.67781   0.77213   0.00000  Uiso   1.00
H1516  H     0.95349   0.70254   0.71232   0.00000  Uiso   1.00
C1517  C     0.73908   0.96755   0.78522   0.00000  Uiso   1.00
H1518  H     0.73155   0.94565   0.75576   0.00000  Uiso   1.00
H1519  H     0.73734   0.95410   0.82210   0.00000  Uiso   1.00
H1520  H     0.70951   0.99241   0.79546   0.00000  Uiso   1.00
C1521  C     0.92647   0.88764   0.82388   0.00000  Uiso   1.00
O1522  O     0.90717   0.87885   0.86858   0.00000  Uiso   1.00
O1523  O     0.91922   0.92731   0.81087   0.00000  Uiso   1.00
H1524  H     0.89467   0.94506   0.84064   0.00000  Uiso   1.00
C1525  C     0.68850   0.88458   0.82969   0.00000  Uiso   1.00
H1526  H     0.72681   0.88824   0.82427   0.00000  Uiso   1.00
H1527  H     0.67132   0.91592   0.83316   0.00000  Uiso   1.00
H1528  H     0.67153   0.87115   0.86711   0.00000  Uiso   1.00
C1529  C     0.73598   0.77142   0.68671   0.00000  Uiso   1.00
O1530  O     0.72898   0.73765   0.70294   0.00000  Uiso   1.00
O1531  O     0.77145   0.77522   0.63876   0.00000  Uiso   1.00
H1532  H     0.79065   0.74832   0.62260   0.00000  Uiso   1.00
C1533  C     0.97982   0.78557   0.66671   0.00000  Uiso   1.00
O1534  O     0.94418   0.76615   0.67081   0.00000  Uiso   1.00
O1535  O     0.68249   0.78411   0.61776   0.00000  Uiso   1.00
H1536  H     0.67463   0.76592   0.58975   0.00000  Uiso   1.00
C1537  C     0.95431   0.77937   0.89968   0.00000  Uiso   1.00
H1538  H     0.95337   0.76527   0.86126   0.00000  Uiso   1.00
H1539  H     0.98278   0.80184   0.89164   0.00000  Uiso   1.00
H1540  H     0.96453   0.75475   0.92119   0.00000  Uiso   1.00
C1541  C     0.76359   0.89881   0.56095   0.00000  Uiso   1.00
H1542  H     0.74129   0.88480   0.59611   0.00000  Uiso   1.00
H1543  H     0.79856   0.90817   0.56543   0.00000  Uiso   1.00
H1544  H     0.74339   0.92779   0.55860   0.00000  Uiso   1.00
C1545  C     0.92265   0.95200   0.69484   0.00000  Uiso   1.00
O1546  O     0.91982   0.93091   0.65668   0.00000  Uiso   1.00
O1547  O     0.96735   0.95326   0.70441   0.00000  Uiso   1.00
H1548  H     0.99422   0.93527   0.67737   0.00000  Uiso   1.00
loop_
_geom_bond_atom_site_label_1
_geom_bond_atom_site_label_2
_geom_bond_distance
_geom_bond_site_symmetry_2
_ccdc_geom_bond_type
C1     O40     1.308   .     A
C1     C17     1.479   .     S
C1     O39     1.309   .     A
C2     C3      1.424   .     A
C2     C778    1.424   .     S
C2     C802    1.436   .     S
C3     C7      1.412   .     A
C3     C10     1.421   .     A
C4     C8      1.397   .     A
C4     C776    1.424   1_554 S
C4     C779    1.414   1_554 S
C5     C6      1.407   .     A
C5     C778    1.414   .     S
C5     C798    1.405   .     S
C6     C75     1.510   .     S
C6     C7      1.396   .     A
C7     H36     1.082   .     S
C8     C25     1.404   .     A
C8     H33     1.076   .     S
C9     C25     1.420   .     A
C9     C47     1.507   .     S
C9     C24     1.403   .     A
C10    C26     1.394   .     A
C10    C12     1.479   .     S
C11    C17     1.420   .     A
C11    C83     1.494   .     S
C11    C271    1.406   .     S
C12    O42     1.304   .     A
C12    O41     1.314   .     A
C13    C51     1.516   .     S
C13    C14     1.420   .     A
C13    C527    1.406   1_545 S
C14    C22     1.467   .     S
C14    C15     1.391   .     A
C15    H31     1.083   .     S
C15    C532    1.383   1_545 S
C16    C17     1.418   .     A
C16    C55     1.499   .     S
C16    C273    1.383   .     S
C18    N38     1.370   .     A
C18    C59     1.481   .     S
C18    C105    1.428   .     S
C19    N37     1.384   .     A
C19    C63     1.502   .     S
C19    C190    1.428   1_455 S
C20    C67     1.481   .     S
C20    N37     1.373   .     A
C20    C193    1.429   1_455 S
C21    C71     1.494   .     S
C21    N38     1.387   .     A
C21    C106    1.429   .     S
C22    O44     1.298   .     A
C22    O43     1.315   .     A
C23    O45     1.313   .     A
C23    O46     1.310   .     A
C23    C25     1.486   .     S
C24    C779    1.405   1_554 S
C24    H806    1.083   1_554 S
C26    C27     1.381   .     A
C26    H34     1.076   .     S
C27    C802    1.398   .     S
C27    H809    1.081   .     S
C28    C79     1.514   .     S
C28    C776    1.436   1_554 S
C28    C801    1.398   1_554 S
Cu29   Cu30    2.715   .     S
Cu29   O43     1.974   .     S
Cu29   O45     1.937   .     S
Cu29   O39     1.991   .     S
Cu29   O41     1.954   .     S
Cu29   N37     2.040   .     S
Cu30   N38     2.040   .     S
Cu30   O44     1.991   .     S
Cu30   O40     1.974   .     S
Cu30   O46     1.954   .     S
Cu30   O42     1.937   .     S
H32    C798    1.083   .     S
H35    C801    1.081   1_554 S
C47    H48     1.097   .     S
C47    H50     1.108   .     S
C47    H135    1.108   .     S
H49    C219    1.108   1_455 S
C51    H52     1.104   .     S
C51    H53     1.110   .     S
C51    H54     1.108   .     S
C55    H56     1.109   .     S
C55    H57     1.105   .     S
C55    H58     1.111   .     S
C59    O60     1.221   .     D
C59    O61     1.396   .     S
O61    H62     1.014   .     S
C63    H65     1.108   .     S
C63    H66     1.107   .     S
C63    H64     1.086   .     S
C67    O68     1.222   .     D
C67    O69     1.395   .     S
O69    H70     1.014   .     S
C71    O72     1.215   .     D
C71    O159    1.399   .     S
O73    H74     1.014   .     S
O73    C243    1.399   1_455 S
C75    H76     1.111   .     S
C75    H77     1.109   .     S
C75    H78     1.110   .     S
C79    H80     1.110   .     S
C79    H81     1.109   .     S
C79    H82     1.112   .     S
C83    O84     1.222   .     D
C83    O85     1.398   .     S
O85    H86     1.014   .     S
C87    O126    1.308   .     A
C87    C103    1.479   .     S
C87    O125    1.309   .     A
C88    C89     1.424   .     A
C88    C864    1.424   .     S
C88    C888    1.436   .     S
C89    C93     1.412   .     A
C89    C96     1.421   .     A
C90    C94     1.397   .     A
C90    C862    1.424   1_554 S
C90    C865    1.414   1_554 S
C91    C92     1.407   .     A
C91    C864    1.414   .     S
C91    C884    1.405   .     S
C92    C161    1.510   .     S
C92    C93     1.396   .     A
C93    H122    1.082   .     S
C94    C111    1.404   .     A
C94    H119    1.076   .     S
C95    C111    1.420   .     A
C95    C133    1.507   .     S
C95    C110    1.403   .     A
C96    C112    1.394   .     A
C96    C98     1.479   .     S
C97    C103    1.420   .     A
C97    C169    1.494   .     S
C97    C357    1.406   .     S
C98    O128    1.304   .     A
C98    O127    1.314   .     A
C99    C137    1.516   .     S
C99    C100    1.420   .     A
C99    C613    1.406   1_545 S
C100   C108    1.467   .     S
C100   C101    1.391   .     A
C101   H117    1.083   .     S
C101   C618    1.383   1_545 S
C102   C103    1.418   .     A
C102   C141    1.499   .     S
C102   C359    1.383   .     S
C104   N124    1.370   .     A
C104   C145    1.481   .     S
C104   C191    1.428   .     S
C105   N123    1.384   .     A
C105   C149    1.502   .     S
C106   C153    1.481   .     S
C106   N123    1.373   .     A
C107   C157    1.494   .     S
C107   N124    1.387   .     A
C107   C192    1.429   .     S
C108   O130    1.298   .     A
C108   O129    1.315   .     A
C109   O131    1.313   .     A
C109   O132    1.310   .     A
C109   C111    1.486   .     S
C110   C865    1.405   1_554 S
C110   H892    1.083   1_554 S
C112   C113    1.381   .     A
C112   H120    1.076   .     S
C113   C888    1.398   .     S
C113   H895    1.081   .     S
C114   C165    1.514   .     S
C114   C862    1.436   1_554 S
C114   C887    1.398   1_554 S
Cu115  Cu116   2.715   .     S
Cu115  O129    1.974   .     S
Cu115  O131    1.937   .     S
Cu115  O125    1.991   .     S
Cu115  O127    1.954   .     S
Cu115  N123    2.040   .     S
Cu116  N124    2.040   .     S
Cu116  O130    1.991   .     S
Cu116  O126    1.974   .     S
Cu116  O132    1.954   .     S
Cu116  O128    1.937   .     S
H118   C884    1.083   .     S
H121   C887    1.081   1_554 S
C133   H134    1.097   .     S
C133   H136    1.108   .     S
C133   H221    1.108   .     S
C137   H138    1.104   .     S
C137   H139    1.110   .     S
C137   H140    1.108   .     S
C141   H142    1.109   .     S
C141   H143    1.105   .     S
C141   H144    1.111   .     S
C145   O146    1.221   .     D
C145   O147    1.396   .     S
O147   H148    1.014   .     S
C149   H151    1.108   .     S
C149   H152    1.107   .     S
C149   H150    1.086   .     S
C153   O154    1.222   .     D
C153   O155    1.395   .     S
O155   H156    1.014   .     S
C157   O158    1.215   .     D
C157   O245    1.399   .     S
O159   H160    1.014   .     S
C161   H162    1.111   .     S
C161   H163    1.109   .     S
C161   H164    1.110   .     S
C165   H166    1.110   .     S
C165   H167    1.109   .     S
C165   H168    1.112   .     S
C169   O170    1.222   .     D
C169   O171    1.398   .     S
O171   H172    1.014   .     S
C173   O212    1.308   .     A
C173   C189    1.479   .     S
C173   O211    1.309   .     A
C174   C175    1.424   .     A
C174   C950    1.424   .     S
C174   C974    1.436   .     S
C175   C179    1.412   .     A
C175   C182    1.421   .     A
C176   C180    1.397   .     A
C176   C948    1.424   1_554 S
C176   C951    1.414   1_554 S
C177   C178    1.407   .     A
C177   C950    1.414   .     S
C177   C970    1.405   .     S
C178   C247    1.510   .     S
C178   C179    1.396   .     A
C179   H208    1.082   .     S
C180   C197    1.404   .     A
C180   H205    1.076   .     S
C181   C197    1.420   .     A
C181   C219    1.507   .     S
C181   C196    1.403   .     A
C182   C198    1.394   .     A
C182   C184    1.479   .     S
C183   C189    1.420   .     A
C183   C255    1.494   .     S
C183   C443    1.406   .     S
C184   O214    1.304   .     A
C184   O213    1.314   .     A
C185   C223    1.516   .     S
C185   C186    1.420   .     A
C185   C699    1.406   1_545 S
C186   C194    1.467   .     S
C186   C187    1.391   .     A
C187   H203    1.083   .     S
C187   C704    1.383   1_545 S
C188   C189    1.418   .     A
C188   C227    1.499   .     S
C188   C445    1.383   .     S
C190   N210    1.370   .     A
C190   C231    1.481   .     S
C190   C19     1.428   1_655 S
C191   N209    1.384   .     A
C191   C235    1.502   .     S
C192   C239    1.481   .     S
C192   N209    1.373   .     A
C193   C243    1.494   .     S
C193   N210    1.387   .     A
C193   C20     1.429   1_655 S
C194   O216    1.298   .     A
C194   O215    1.315   .     A
C195   O217    1.313   .     A
C195   O218    1.310   .     A
C195   C197    1.486   .     S
C196   C951    1.405   1_554 S
C196   H978    1.083   1_554 S
C198   C199    1.381   .     A
C198   H206    1.076   .     S
C199   C974    1.398   .     S
C199   H981    1.081   .     S
C200   C251    1.514   .     S
C200   C948    1.436   1_554 S
C200   C973    1.398   1_554 S
Cu201  Cu202   2.715   .     S
Cu201  O215    1.974   .     S
Cu201  O217    1.937   .     S
Cu201  O211    1.991   .     S
Cu201  O213    1.954   .     S
Cu201  N209    2.040   .     S
Cu202  N210    2.040   .     S
Cu202  O216    1.991   .     S
Cu202  O212    1.974   .     S
Cu202  O218    1.954   .     S
Cu202  O214    1.937   .     S
H204   C970    1.083   .     S
H207   C973    1.081   1_554 S
C219   H220    1.097   .     S
C219   H222    1.108   .     S
C219   H49     1.108   1_655 S
C223   H224    1.104   .     S
C223   H225    1.110   .     S
C223   H226    1.108   .     S
C227   H228    1.109   .     S
C227   H229    1.105   .     S
C227   H230    1.111   .     S
C231   O232    1.221   .     D
C231   O233    1.396   .     S
O233   H234    1.014   .     S
C235   H237    1.108   .     S
C235   H238    1.107   .     S
C235   H236    1.086   .     S
C239   O240    1.222   .     D
C239   O241    1.395   .     S
O241   H242    1.014   .     S
C243   O244    1.215   .     D
C243   O73     1.399   1_655 S
O245   H246    1.014   .     S
C247   H248    1.111   .     S
C247   H249    1.109   .     S
C247   H250    1.110   .     S
C251   H252    1.110   .     S
C251   H253    1.109   .     S
C251   H254    1.112   .     S
C255   O256    1.222   .     D
C255   O257    1.398   .     S
O257   H258    1.014   .     S
C259   O298    1.308   .     A
C259   C275    1.479   .     S
C259   O297    1.309   .     A
C260   C261    1.424   .     A
C260   C1036   1.424   .     S
C260   C1060   1.436   .     S
C261   C265    1.412   .     A
C261   C268    1.421   .     A
C262   C266    1.397   .     A
C262   C1034   1.424   1_554 S
C262   C1037   1.414   1_554 S
C263   C264    1.407   .     A
C263   C1036   1.414   .     S
C263   C1056   1.405   .     S
C264   C333    1.510   .     S
C264   C265    1.396   .     A
C265   H294    1.082   .     S
C266   C283    1.404   .     A
C266   H291    1.076   .     S
C267   C283    1.420   .     A
C267   C305    1.507   .     S
C267   C282    1.403   .     A
C268   C284    1.394   .     A
C268   C270    1.479   .     S
C269   C275    1.420   .     A
C269   C341    1.494   .     S
C269   C529    1.406   .     S
C270   O300    1.304   .     A
C270   O299    1.314   .     A
C271   C309    1.516   .     S
C271   C272    1.420   .     A
C272   C280    1.467   .     S
C272   C273    1.391   .     A
C273   H289    1.083   .     S
C274   C275    1.418   .     A
C274   C313    1.499   .     S
C274   C531    1.383   .     S
C276   N296    1.370   .     A
C276   C317    1.481   .     S
C276   C363    1.428   .     S
C277   N295    1.384   .     A
C277   C321    1.502   .     S
C277   C448    1.428   1_455 S
C278   C325    1.481   .     S
C278   N295    1.373   .     A
C278   C451    1.429   1_455 S
C279   C329    1.494   .     S
C279   N296    1.387   .     A
C279   C364    1.429   .     S
C280   O302    1.298   .     A
C280   O301    1.315   .     A
C281   O303    1.313   .     A
C281   O304    1.310   .     A
C281   C283    1.486   .     S
C282   C1037   1.405   1_554 S
C282   H1064   1.083   1_554 S
C284   C285    1.381   .     A
C284   H292    1.076   .     S
C285   C1060   1.398   .     S
C285   H1067   1.081   .     S
C286   C337    1.514   .     S
C286   C1034   1.436   1_554 S
C286   C1059   1.398   1_554 S
Cu287  Cu288   2.715   .     S
Cu287  O301    1.974   .     S
Cu287  O303    1.937   .     S
Cu287  O297    1.991   .     S
Cu287  O299    1.954   .     S
Cu287  N295    2.040   .     S
Cu288  N296    2.040   .     S
Cu288  O302    1.991   .     S
Cu288  O298    1.974   .     S
Cu288  O304    1.954   .     S
Cu288  O300    1.937   .     S
H290   C1056   1.083   .     S
H293   C1059   1.081   1_554 S
C305   H306    1.097   .     S
C305   H308    1.108   .     S
C305   H393    1.108   .     S
H307   C477    1.108   1_455 S
C309   H310    1.104   .     S
C309   H311    1.110   .     S
C309   H312    1.108   .     S
C313   H314    1.109   .     S
C313   H315    1.105   .     S
C313   H316    1.111   .     S
C317   O318    1.221   .     D
C317   O319    1.396   .     S
O319   H320    1.014   .     S
C321   H323    1.108   .     S
C321   H324    1.107   .     S
C321   H322    1.086   .     S
C325   O326    1.222   .     D
C325   O327    1.395   .     S
O327   H328    1.014   .     S
C329   O330    1.215   .     D
C329   O417    1.399   .     S
O331   H332    1.014   .     S
O331   C501    1.399   1_455 S
C333   H334    1.111   .     S
C333   H335    1.109   .     S
C333   H336    1.110   .     S
C337   H338    1.110   .     S
C337   H339    1.109   .     S
C337   H340    1.112   .     S
C341   O342    1.222   .     D
C341   O343    1.398   .     S
O343   H344    1.014   .     S
C345   O384    1.308   .     A
C345   C361    1.479   .     S
C345   O383    1.309   .     A
C346   C347    1.424   .     A
C346   C1122   1.424   .     S
C346   C1146   1.436   .     S
C347   C351    1.412   .     A
C347   C354    1.421   .     A
C348   C352    1.397   .     A
C348   C1120   1.424   1_554 S
C348   C1123   1.414   1_554 S
C349   C350    1.407   .     A
C349   C1122   1.414   .     S
C349   C1142   1.405   .     S
C350   C419    1.510   .     S
C350   C351    1.396   .     A
C351   H380    1.082   .     S
C352   C369    1.404   .     A
C352   H377    1.076   .     S
C353   C369    1.420   .     A
C353   C391    1.507   .     S
C353   C368    1.403   .     A
C354   C370    1.394   .     A
C354   C356    1.479   .     S
C355   C361    1.420   .     A
C355   C427    1.494   .     S
C355   C615    1.406   .     S
C356   O386    1.304   .     A
C356   O385    1.314   .     A
C357   C395    1.516   .     S
C357   C358    1.420   .     A
C358   C366    1.467   .     S
C358   C359    1.391   .     A
C359   H375    1.083   .     S
C360   C361    1.418   .     A
C360   C399    1.499   .     S
C360   C617    1.383   .     S
C362   N382    1.370   .     A
C362   C403    1.481   .     S
C362   C449    1.428   .     S
C363   N381    1.384   .     A
C363   C407    1.502   .     S
C364   C411    1.481   .     S
C364   N381    1.373   .     A
C365   C415    1.494   .     S
C365   N382    1.387   .     A
C365   C450    1.429   .     S
C366   O388    1.298   .     A
C366   O387    1.315   .     A
C367   O389    1.313   .     A
C367   O390    1.310   .     A
C367   C369    1.486   .     S
C368   C1123   1.405   1_554 S
C368   H1150   1.083   1_554 S
C370   C371    1.381   .     A
C370   H378    1.076   .     S
C371   C1146   1.398   .     S
C371   H1153   1.081   .     S
C372   C423    1.514   .     S
C372   C1120   1.436   1_554 S
C372   C1145   1.398   1_554 S
Cu373  Cu374   2.715   .     S
Cu373  O387    1.974   .     S
Cu373  O389    1.937   .     S
Cu373  O383    1.991   .     S
Cu373  O385    1.954   .     S
Cu373  N381    2.040   .     S
Cu374  N382    2.040   .     S
Cu374  O388    1.991   .     S
Cu374  O384    1.974   .     S
Cu374  O390    1.954   .     S
Cu374  O386    1.937   .     S
H376   C1142   1.083   .     S
H379   C1145   1.081   1_554 S
C391   H392    1.097   .     S
C391   H394    1.108   .     S
C391   H479    1.108   .     S
C395   H396    1.104   .     S
C395   H397    1.110   .     S
C395   H398    1.108   .     S
C399   H400    1.109   .     S
C399   H401    1.105   .     S
C399   H402    1.111   .     S
C403   O404    1.221   .     D
C403   O405    1.396   .     S
O405   H406    1.014   .     S
C407   H409    1.108   .     S
C407   H410    1.107   .     S
C407   H408    1.086   .     S
C411   O412    1.222   .     D
C411   O413    1.395   .     S
O413   H414    1.014   .     S
C415   O416    1.215   .     D
C415   O503    1.399   .     S
O417   H418    1.014   .     S
C419   H420    1.111   .     S
C419   H421    1.109   .     S
C419   H422    1.110   .     S
C423   H424    1.110   .     S
C423   H425    1.109   .     S
C423   H426    1.112   .     S
C427   O428    1.222   .     D
C427   O429    1.398   .     S
O429   H430    1.014   .     S
C431   O470    1.308   .     A
C431   C447    1.479   .     S
C431   O469    1.309   .     A
C432   C433    1.424   .     A
C432   C1208   1.424   .     S
C432   C1232   1.436   .     S
C433   C437    1.412   .     A
C433   C440    1.421   .     A
C434   C438    1.397   .     A
C434   C1206   1.424   1_554 S
C434   C1209   1.414   1_554 S
C435   C436    1.407   .     A
C435   C1208   1.414   .     S
C435   C1228   1.405   .     S
C436   C505    1.510   .     S
C436   C437    1.396   .     A
C437   H466    1.082   .     S
C438   C455    1.404   .     A
C438   H463    1.076   .     S
C439   C455    1.420   .     A
C439   C477    1.507   .     S
C439   C454    1.403   .     A
C440   C456    1.394   .     A
C440   C442    1.479   .     S
C441   C447    1.420   .     A
C441   C513    1.494   .     S
C441   C701    1.406   .     S
C442   O472    1.304   .     A
C442   O471    1.314   .     A
C443   C481    1.516   .     S
C443   C444    1.420   .     A
C444   C452    1.467   .     S
C444   C445    1.391   .     A
C445   H461    1.083   .     S
C446   C447    1.418   .     A
C446   C485    1.499   .     S
C446   C703    1.383   .     S
C448   N468    1.370   .     A
C448   C489    1.481   .     S
C448   C277    1.428   1_655 S
C449   N467    1.384   .     A
C449   C493    1.502   .     S
C450   C497    1.481   .     S
C450   N467    1.373   .     A
C451   C501    1.494   .     S
C451   N468    1.387   .     A
C451   C278    1.429   1_655 S
C452   O474    1.298   .     A
C452   O473    1.315   .     A
C453   O475    1.313   .     A
C453   O476    1.310   .     A
C453   C455    1.486   .     S
C454   C1209   1.405   1_554 S
C454   H1236   1.083   1_554 S
C456   C457    1.381   .     A
C456   H464    1.076   .     S
C457   C1232   1.398   .     S
C457   H1239   1.081   .     S
C458   C509    1.514   .     S
C458   C1206   1.436   1_554 S
C458   C1231   1.398   1_554 S
Cu459  Cu460   2.715   .     S
Cu459  O473    1.974   .     S
Cu459  O475    1.937   .     S
Cu459  O469    1.991   .     S
Cu459  O471    1.954   .     S
Cu459  N467    2.040   .     S
Cu460  N468    2.040   .     S
Cu460  O474    1.991   .     S
Cu460  O470    1.974   .     S
Cu460  O476    1.954   .     S
Cu460  O472    1.937   .     S
H462   C1228   1.083   .     S
H465   C1231   1.081   1_554 S
C477   H478    1.097   .     S
C477   H480    1.108   .     S
C477   H307    1.108   1_655 S
C481   H482    1.104   .     S
C481   H483    1.110   .     S
C481   H484    1.108   .     S
C485   H486    1.109   .     S
C485   H487    1.105   .     S
C485   H488    1.111   .     S
C489   O490    1.221   .     D
C489   O491    1.396   .     S
O491   H492    1.014   .     S
C493   H495    1.108   .     S
C493   H496    1.107   .     S
C493   H494    1.086   .     S
C497   O498    1.222   .     D
C497   O499    1.395   .     S
O499   H500    1.014   .     S
C501   O502    1.215   .     D
C501   O331    1.399   1_655 S
O503   H504    1.014   .     S
C505   H506    1.111   .     S
C505   H507    1.109   .     S
C505   H508    1.110   .     S
C509   H510    1.110   .     S
C509   H511    1.109   .     S
C509   H512    1.112   .     S
C513   O514    1.222   .     D
C513   O515    1.398   .     S
O515   H516    1.014   .     S
C517   O556    1.308   .     A
C517   C533    1.479   .     S
C517   O555    1.309   .     A
C518   C519    1.424   .     A
C518   C1294   1.424   .     S
C518   C1318   1.436   .     S
C519   C523    1.412   .     A
C519   C526    1.421   .     A
C520   C524    1.397   .     A
C520   C1292   1.424   1_554 S
C520   C1295   1.414   1_554 S
C521   C522    1.407   .     A
C521   C1294   1.414   .     S
C521   C1314   1.405   .     S
C522   C591    1.510   .     S
C522   C523    1.396   .     A
C523   H552    1.082   .     S
C524   C541    1.404   .     A
C524   H549    1.076   .     S
C525   C541    1.420   .     A
C525   C563    1.507   .     S
C525   C540    1.403   .     A
C526   C542    1.394   .     A
C526   C528    1.479   .     S
C527   C533    1.420   .     A
C527   C599    1.494   .     S
C527   C13     1.406   1_565 S
C528   O558    1.304   .     A
C528   O557    1.314   .     A
C529   C567    1.516   .     S
C529   C530    1.420   .     A
C530   C538    1.467   .     S
C530   C531    1.391   .     A
C531   H547    1.083   .     S
C532   C533    1.418   .     A
C532   C571    1.499   .     S
C532   C15     1.383   1_565 S
C534   N554    1.370   .     A
C534   C575    1.481   .     S
C534   C621    1.428   .     S
C535   N553    1.384   .     A
C535   C579    1.502   .     S
C535   C706    1.428   1_455 S
C536   C583    1.481   .     S
C536   N553    1.373   .     A
C536   C709    1.429   1_455 S
C537   C587    1.494   .     S
C537   N554    1.387   .     A
C537   C622    1.429   .     S
C538   O560    1.298   .     A
C538   O559    1.315   .     A
C539   O561    1.313   .     A
C539   O562    1.310   .     A
C539   C541    1.486   .     S
C540   C1295   1.405   1_554 S
C540   H1322   1.083   1_554 S
C542   C543    1.381   .     A
C542   H550    1.076   .     S
C543   C1318   1.398   .     S
C543   H1325   1.081   .     S
C544   C595    1.514   .     S
C544   C1292   1.436   1_554 S
C544   C1317   1.398   1_554 S
Cu545  Cu546   2.715   .     S
Cu545  O559    1.974   .     S
Cu545  O561    1.937   .     S
Cu545  O555    1.991   .     S
Cu545  O557    1.954   .     S
Cu545  N553    2.040   .     S
Cu546  N554    2.040   .     S
Cu546  O560    1.991   .     S
Cu546  O556    1.974   .     S
Cu546  O562    1.954   .     S
Cu546  O558    1.937   .     S
H548   C1314   1.083   .     S
H551   C1317   1.081   1_554 S
C563   H564    1.097   .     S
C563   H566    1.108   .     S
C563   H651    1.108   .     S
H565   C735    1.108   1_455 S
C567   H568    1.104   .     S
C567   H569    1.110   .     S
C567   H570    1.108   .     S
C571   H572    1.109   .     S
C571   H573    1.105   .     S
C571   H574    1.111   .     S
C575   O576    1.221   .     D
C575   O577    1.396   .     S
O577   H578    1.014   .     S
C579   H581    1.108   .     S
C579   H582    1.107   .     S
C579   H580    1.086   .     S
C583   O584    1.222   .     D
C583   O585    1.395   .     S
O585   H586    1.014   .     S
C587   O588    1.215   .     D
C587   O675    1.399   .     S
O589   H590    1.014   .     S
O589   C759    1.399   1_455 S
C591   H592    1.111   .     S
C591   H593    1.109   .     S
C591   H594    1.110   .     S
C595   H596    1.110   .     S
C595   H597    1.109   .     S
C595   H598    1.112   .     S
C599   O600    1.222   .     D
C599   O601    1.398   .     S
O601   H602    1.014   .     S
C603   O642    1.308   .     A
C603   C619    1.479   .     S
C603   O641    1.309   .     A
C604   C605    1.424   .     A
C604   C1380   1.424   .     S
C604   C1404   1.436   .     S
C605   C609    1.412   .     A
C605   C612    1.421   .     A
C606   C610    1.397   .     A
C606   C1378   1.424   1_554 S
C606   C1381   1.414   1_554 S
C607   C608    1.407   .     A
C607   C1380   1.414   .     S
C607   C1400   1.405   .     S
C608   C677    1.510   .     S
C608   C609    1.396   .     A
C609   H638    1.082   .     S
C610   C627    1.404   .     A
C610   H635    1.076   .     S
C611   C627    1.420   .     A
C611   C649    1.507   .     S
C611   C626    1.403   .     A
C612   C628    1.394   .     A
C612   C614    1.479   .     S
C613   C619    1.420   .     A
C613   C685    1.494   .     S
C613   C99     1.406   1_565 S
C614   O644    1.304   .     A
C614   O643    1.314   .     A
C615   C653    1.516   .     S
C615   C616    1.420   .     A
C616   C624    1.467   .     S
C616   C617    1.391   .     A
C617   H633    1.083   .     S
C618   C619    1.418   .     A
C618   C657    1.499   .     S
C618   C101    1.383   1_565 S
C620   N640    1.370   .     A
C620   C661    1.481   .     S
C620   C707    1.428   .     S
C621   N639    1.384   .     A
C621   C665    1.502   .     S
C622   C669    1.481   .     S
C622   N639    1.373   .     A
C623   C673    1.494   .     S
C623   N640    1.387   .     A
C623   C708    1.429   .     S
C624   O646    1.298   .     A
C624   O645    1.315   .     A
C625   O647    1.313   .     A
C625   O648    1.310   .     A
C625   C627    1.486   .     S
C626   C1381   1.405   1_554 S
C626   H1408   1.083   1_554 S
C628   C629    1.381   .     A
C628   H636    1.076   .     S
C629   C1404   1.398   .     S
C629   H1411   1.081   .     S
C630   C681    1.514   .     S
C630   C1378   1.436   1_554 S
C630   C1403   1.398   1_554 S
Cu631  Cu632   2.715   .     S
Cu631  O645    1.974   .     S
Cu631  O647    1.937   .     S
Cu631  O641    1.991   .     S
Cu631  O643    1.954   .     S
Cu631  N639    2.040   .     S
Cu632  N640    2.040   .     S
Cu632  O646    1.991   .     S
Cu632  O642    1.974   .     S
Cu632  O648    1.954   .     S
Cu632  O644    1.937   .     S
H634   C1400   1.083   .     S
H637   C1403   1.081   1_554 S
C649   H650    1.097   .     S
C649   H652    1.108   .     S
C649   H737    1.108   .     S
C653   H654    1.104   .     S
C653   H655    1.110   .     S
C653   H656    1.108   .     S
C657   H658    1.109   .     S
C657   H659    1.105   .     S
C657   H660    1.111   .     S
C661   O662    1.221   .     D
C661   O663    1.396   .     S
O663   H664    1.014   .     S
C665   H667    1.108   .     S
C665   H668    1.107   .     S
C665   H666    1.086   .     S
C669   O670    1.222   .     D
C669   O671    1.395   .     S
O671   H672    1.014   .     S
C673   O674    1.215   .     D
C673   O761    1.399   .     S
O675   H676    1.014   .     S
C677   H678    1.111   .     S
C677   H679    1.109   .     S
C677   H680    1.110   .     S
C681   H682    1.110   .     S
C681   H683    1.109   .     S
C681   H684    1.112   .     S
C685   O686    1.222   .     D
C685   O687    1.398   .     S
O687   H688    1.014   .     S
C689   O728    1.308   .     A
C689   C705    1.479   .     S
C689   O727    1.309   .     A
C690   C691    1.424   .     A
C690   C1466   1.424   .     S
C690   C1490   1.436   .     S
C691   C695    1.412   .     A
C691   C698    1.421   .     A
C692   C696    1.397   .     A
C692   C1464   1.424   1_554 S
C692   C1467   1.414   1_554 S
C693   C694    1.407   .     A
C693   C1466   1.414   .     S
C693   C1486   1.405   .     S
C694   C763    1.510   .     S
C694   C695    1.396   .     A
C695   H724    1.082   .     S
C696   C713    1.404   .     A
C696   H721    1.076   .     S
C697   C713    1.420   .     A
C697   C735    1.507   .     S
C697   C712    1.403   .     A
C698   C714    1.394   .     A
C698   C700    1.479   .     S
C699   C705    1.420   .     A
C699   C771    1.494   .     S
C699   C185    1.406   1_565 S
C700   O730    1.304   .     A
C700   O729    1.314   .     A
C701   C739    1.516   .     S
C701   C702    1.420   .     A
C702   C710    1.467   .     S
C702   C703    1.391   .     A
C703   H719    1.083   .     S
C704   C705    1.418   .     A
C704   C743    1.499   .     S
C704   C187    1.383   1_565 S
C706   N726    1.370   .     A
C706   C747    1.481   .     S
C706   C535    1.428   1_655 S
C707   N725    1.384   .     A
C707   C751    1.502   .     S
C708   C755    1.481   .     S
C708   N725    1.373   .     A
C709   C759    1.494   .     S
C709   N726    1.387   .     A
C709   C536    1.429   1_655 S
C710   O732    1.298   .     A
C710   O731    1.315   .     A
C711   O733    1.313   .     A
C711   O734    1.310   .     A
C711   C713    1.486   .     S
C712   C1467   1.405   1_554 S
C712   H1494   1.083   1_554 S
C714   C715    1.381   .     A
C714   H722    1.076   .     S
C715   C1490   1.398   .     S
C715   H1497   1.081   .     S
C716   C767    1.514   .     S
C716   C1464   1.436   1_554 S
C716   C1489   1.398   1_554 S
Cu717  Cu718   2.715   .     S
Cu717  O731    1.974   .     S
Cu717  O733    1.937   .     S
Cu717  O727    1.991   .     S
Cu717  O729    1.954   .     S
Cu717  N725    2.040   .     S
Cu718  N726    2.040   .     S
Cu718  O732    1.991   .     S
Cu718  O728    1.974   .     S
Cu718  O734    1.954   .     S
Cu718  O730    1.937   .     S
H720   C1486   1.083   .     S
H723   C1489   1.081   1_554 S
C735   H736    1.097   .     S
C735   H738    1.108   .     S
C735   H565    1.108   1_655 S
C739   H740    1.104   .     S
C739   H741    1.110   .     S
C739   H742    1.108   .     S
C743   H744    1.109   .     S
C743   H745    1.105   .     S
C743   H746    1.111   .     S
C747   O748    1.221   .     D
C747   O749    1.396   .     S
O749   H750    1.014   .     S
C751   H753    1.108   .     S
C751   H754    1.107   .     S
C751   H752    1.086   .     S
C755   O756    1.222   .     D
C755   O757    1.395   .     S
O757   H758    1.014   .     S
C759   O760    1.215   .     D
C759   O589    1.399   1_655 S
O761   H762    1.014   .     S
C763   H764    1.111   .     S
C763   H765    1.109   .     S
C763   H766    1.110   .     S
C767   H768    1.110   .     S
C767   H769    1.109   .     S
C767   H770    1.112   .     S
C771   O772    1.222   .     D
C771   O773    1.398   .     S
O773   H774    1.014   .     S
C775   O814    1.308   .     A
C775   C791    1.479   .     S
C775   O813    1.309   .     A
C776   C777    1.424   .     A
C776   C4      1.424   1_556 S
C776   C28     1.436   1_556 S
C777   C781    1.412   .     A
C777   C784    1.421   .     A
C778   C782    1.397   .     A
C779   C780    1.407   .     A
C779   C4      1.414   1_556 S
C779   C24     1.405   1_556 S
C780   C849    1.510   .     S
C780   C781    1.396   .     A
C781   H810    1.082   .     S
C782   C799    1.404   .     A
C782   H807    1.076   .     S
C783   C799    1.420   .     A
C783   C821    1.507   .     S
C783   C798    1.403   .     A
C784   C800    1.394   .     A
C784   C786    1.479   .     S
C785   C791    1.420   .     A
C785   C857    1.494   .     S
C785   C1045   1.406   .     S
C786   O816    1.304   .     A
C786   O815    1.314   .     A
C787   C825    1.516   .     S
C787   C788    1.420   .     A
C787   C1301   1.406   1_545 S
C788   C796    1.467   .     S
C788   C789    1.391   .     A
C789   H805    1.083   .     S
C789   C1306   1.383   1_545 S
C790   C791    1.418   .     A
C790   C829    1.499   .     S
C790   C1047   1.383   .     S
C792   N812    1.370   .     A
C792   C833    1.481   .     S
C792   C879    1.428   .     S
C793   N811    1.384   .     A
C793   C837    1.502   .     S
C793   C964    1.428   1_455 S
C794   C841    1.481   .     S
C794   N811    1.373   .     A
C794   C967    1.429   1_455 S
C795   C845    1.494   .     S
C795   N812    1.387   .     A
C795   C880    1.429   .     S
C796   O818    1.298   .     A
C796   O817    1.315   .     A
C797   O819    1.313   .     A
C797   O820    1.310   .     A
C797   C799    1.486   .     S
C800   C801    1.381   .     A
C800   H808    1.076   .     S
C801   C28     1.398   1_556 S
C801   H35     1.081   1_556 S
C802   C853    1.514   .     S
Cu803  Cu804   2.715   .     S
Cu803  O817    1.974   .     S
Cu803  O819    1.937   .     S
Cu803  O813    1.991   .     S
Cu803  O815    1.954   .     S
Cu803  N811    2.040   .     S
Cu804  N812    2.040   .     S
Cu804  O818    1.991   .     S
Cu804  O814    1.974   .     S
Cu804  O820    1.954   .     S
Cu804  O816    1.937   .     S
H806   C24     1.083   1_556 S
C821   H822    1.097   .     S
C821   H824    1.108   .     S
C821   H909    1.108   .     S
H823   C993    1.108   1_455 S
C825   H826    1.104   .     S
C825   H827    1.110   .     S
C825   H828    1.108   .     S
C829   H830    1.109   .     S
C829   H831    1.105   .     S
C829   H832    1.111   .     S
C833   O834    1.221   .     D
C833   O835    1.396   .     S
O835   H836    1.014   .     S
C837   H839    1.108   .     S
C837   H840    1.107   .     S
C837   H838    1.086   .     S
C841   O842    1.222   .     D
C841   O843    1.395   .     S
O843   H844    1.014   .     S
C845   O846    1.215   .     D
C845   O933    1.399   .     S
O847   H848    1.014   .     S
O847   C1017   1.399   1_455 S
C849   H850    1.111   .     S
C849   H851    1.109   .     S
C849   H852    1.110   .     S
C853   H854    1.110   .     S
C853   H855    1.109   .     S
C853   H856    1.112   .     S
C857   O858    1.222   .     D
C857   O859    1.398   .     S
O859   H860    1.014   .     S
C861   O900    1.308   .     A
C861   C877    1.479   .     S
C861   O899    1.309   .     A
C862   C863    1.424   .     A
C862   C90     1.424   1_556 S
C862   C114    1.436   1_556 S
C863   C867    1.412   .     A
C863   C870    1.421   .     A
C864   C868    1.397   .     A
C865   C866    1.407   .     A
C865   C90     1.414   1_556 S
C865   C110    1.405   1_556 S
C866   C935    1.510   .     S
C866   C867    1.396   .     A
C867   H896    1.082   .     S
C868   C885    1.404   .     A
C868   H893    1.076   .     S
C869   C885    1.420   .     A
C869   C907    1.507   .     S
C869   C884    1.403   .     A
C870   C886    1.394   .     A
C870   C872    1.479   .     S
C871   C877    1.420   .     A
C871   C943    1.494   .     S
C871   C1131   1.406   .     S
C872   O902    1.304   .     A
C872   O901    1.314   .     A
C873   C911    1.516   .     S
C873   C874    1.420   .     A
C873   C1387   1.406   1_545 S
C874   C882    1.467   .     S
C874   C875    1.391   .     A
C875   H891    1.083   .     S
C875   C1392   1.383   1_545 S
C876   C877    1.418   .     A
C876   C915    1.499   .     S
C876   C1133   1.383   .     S
C878   N898    1.370   .     A
C878   C919    1.481   .     S
C878   C965    1.428   .     S
C879   N897    1.384   .     A
C879   C923    1.502   .     S
C880   C927    1.481   .     S
C880   N897    1.373   .     A
C881   C931    1.494   .     S
C881   N898    1.387   .     A
C881   C966    1.429   .     S
C882   O904    1.298   .     A
C882   O903    1.315   .     A
C883   O905    1.313   .     A
C883   O906    1.310   .     A
C883   C885    1.486   .     S
C886   C887    1.381   .     A
C886   H894    1.076   .     S
C887   C114    1.398   1_556 S
C887   H121    1.081   1_556 S
C888   C939    1.514   .     S
Cu889  Cu890   2.715   .     S
Cu889  O903    1.974   .     S
Cu889  O905    1.937   .     S
Cu889  O899    1.991   .     S
Cu889  O901    1.954   .     S
Cu889  N897    2.040   .     S
Cu890  N898    2.040   .     S
Cu890  O904    1.991   .     S
Cu890  O900    1.974   .     S
Cu890  O906    1.954   .     S
Cu890  O902    1.937   .     S
H892   C110    1.083   1_556 S
C907   H908    1.097   .     S
C907   H910    1.108   .     S
C907   H995    1.108   .     S
C911   H912    1.104   .     S
C911   H913    1.110   .     S
C911   H914    1.108   .     S
C915   H916    1.109   .     S
C915   H917    1.105   .     S
C915   H918    1.111   .     S
C919   O920    1.221   .     D
C919   O921    1.396   .     S
O921   H922    1.014   .     S
C923   H925    1.108   .     S
C923   H926    1.107   .     S
C923   H924    1.086   .     S
C927   O928    1.222   .     D
C927   O929    1.395   .     S
O929   H930    1.014   .     S
C931   O932    1.215   .     D
C931   O1019   1.399   .     S
O933   H934    1.014   .     S
C935   H936    1.111   .     S
C935   H937    1.109   .     S
C935   H938    1.110   .     S
C939   H940    1.110   .     S
C939   H941    1.109   .     S
C939   H942    1.112   .     S
C943   O944    1.222   .     D
C943   O945    1.398   .     S
O945   H946    1.014   .     S
C947   O986    1.308   .     A
C947   C963    1.479   .     S
C947   O985    1.309   .     A
C948   C949    1.424   .     A
C948   C176    1.424   1_556 S
C948   C200    1.436   1_556 S
C949   C953    1.412   .     A
C949   C956    1.421   .     A
C950   C954    1.397   .     A
C951   C952    1.407   .     A
C951   C176    1.414   1_556 S
C951   C196    1.405   1_556 S
C952   C1021   1.510   .     S
C952   C953    1.396   .     A
C953   H982    1.082   .     S
C954   C971    1.404   .     A
C954   H979    1.076   .     S
C955   C971    1.420   .     A
C955   C993    1.507   .     S
C955   C970    1.403   .     A
C956   C972    1.394   .     A
C956   C958    1.479   .     S
C957   C963    1.420   .     A
C957   C1029   1.494   .     S
C957   C1217   1.406   .     S
C958   O988    1.304   .     A
C958   O987    1.314   .     A
C959   C997    1.516   .     S
C959   C960    1.420   .     A
C959   C1473   1.406   1_545 S
C960   C968    1.467   .     S
C960   C961    1.391   .     A
C961   H977    1.083   .     S
C961   C1478   1.383   1_545 S
C962   C963    1.418   .     A
C962   C1001   1.499   .     S
C962   C1219   1.383   .     S
C964   N984    1.370   .     A
C964   C1005   1.481   .     S
C964   C793    1.428   1_655 S
C965   N983    1.384   .     A
C965   C1009   1.502   .     S
C966   C1013   1.481   .     S
C966   N983    1.373   .     A
C967   C1017   1.494   .     S
C967   N984    1.387   .     A
C967   C794    1.429   1_655 S
C968   O990    1.298   .     A
C968   O989    1.315   .     A
C969   O991    1.313   .     A
C969   O992    1.310   .     A
C969   C971    1.486   .     S
C972   C973    1.381   .     A
C972   H980    1.076   .     S
C973   C200    1.398   1_556 S
C973   H207    1.081   1_556 S
C974   C1025   1.514   .     S
Cu975  Cu976   2.715   .     S
Cu975  O989    1.974   .     S
Cu975  O991    1.937   .     S
Cu975  O985    1.991   .     S
Cu975  O987    1.954   .     S
Cu975  N983    2.040   .     S
Cu976  N984    2.040   .     S
Cu976  O990    1.991   .     S
Cu976  O986    1.974   .     S
Cu976  O992    1.954   .     S
Cu976  O988    1.937   .     S
H978   C196    1.083   1_556 S
C993   H994    1.097   .     S
C993   H996    1.108   .     S
C993   H823    1.108   1_655 S
C997   H998    1.104   .     S
C997   H999    1.110   .     S
C997   H1000   1.108   .     S
C1001  H1002   1.109   .     S
C1001  H1003   1.105   .     S
C1001  H1004   1.111   .     S
C1005  O1006   1.221   .     D
C1005  O1007   1.396   .     S
O1007  H1008   1.014   .     S
C1009  H1011   1.108   .     S
C1009  H1012   1.107   .     S
C1009  H1010   1.086   .     S
C1013  O1014   1.222   .     D
C1013  O1015   1.395   .     S
O1015  H1016   1.014   .     S
C1017  O1018   1.215   .     D
C1017  O847    1.399   1_655 S
O1019  H1020   1.014   .     S
C1021  H1022   1.111   .     S
C1021  H1023   1.109   .     S
C1021  H1024   1.110   .     S
C1025  H1026   1.110   .     S
C1025  H1027   1.109   .     S
C1025  H1028   1.112   .     S
C1029  O1030   1.222   .     D
C1029  O1031   1.398   .     S
O1031  H1032   1.014   .     S
C1033  O1072   1.308   .     A
C1033  C1049   1.479   .     S
C1033  O1071   1.309   .     A
C1034  C1035   1.424   .     A
C1034  C262    1.424   1_556 S
C1034  C286    1.436   1_556 S
C1035  C1039   1.412   .     A
C1035  C1042   1.421   .     A
C1036  C1040   1.397   .     A
C1037  C1038   1.407   .     A
C1037  C262    1.414   1_556 S
C1037  C282    1.405   1_556 S
C1038  C1107   1.510   .     S
C1038  C1039   1.396   .     A
C1039  H1068   1.082   .     S
C1040  C1057   1.404   .     A
C1040  H1065   1.076   .     S
C1041  C1057   1.420   .     A
C1041  C1079   1.507   .     S
C1041  C1056   1.403   .     A
C1042  C1058   1.394   .     A
C1042  C1044   1.479   .     S
C1043  C1049   1.420   .     A
C1043  C1115   1.494   .     S
C1043  C1303   1.406   .     S
C1044  O1074   1.304   .     A
C1044  O1073   1.314   .     A
C1045  C1083   1.516   .     S
C1045  C1046   1.420   .     A
C1046  C1054   1.467   .     S
C1046  C1047   1.391   .     A
C1047  H1063   1.083   .     S
C1048  C1049   1.418   .     A
C1048  C1087   1.499   .     S
C1048  C1305   1.383   .     S
C1050  N1070   1.370   .     A
C1050  C1091   1.481   .     S
C1050  C1137   1.428   .     S
C1051  N1069   1.384   .     A
C1051  C1095   1.502   .     S
C1051  C1222   1.428   1_455 S
C1052  C1099   1.481   .     S
C1052  N1069   1.373   .     A
C1052  C1225   1.429   1_455 S
C1053  C1103   1.494   .     S
C1053  N1070   1.387   .     A
C1053  C1138   1.429   .     S
C1054  O1076   1.298   .     A
C1054  O1075   1.315   .     A
C1055  O1077   1.313   .     A
C1055  O1078   1.310   .     A
C1055  C1057   1.486   .     S
C1058  C1059   1.381   .     A
C1058  H1066   1.076   .     S
C1059  C286    1.398   1_556 S
C1059  H293    1.081   1_556 S
C1060  C1111   1.514   .     S
Cu1061 Cu1062  2.715   .     S
Cu1061 O1075   1.974   .     S
Cu1061 O1077   1.937   .     S
Cu1061 O1071   1.991   .     S
Cu1061 O1073   1.954   .     S
Cu1061 N1069   2.040   .     S
Cu1062 N1070   2.040   .     S
Cu1062 O1076   1.991   .     S
Cu1062 O1072   1.974   .     S
Cu1062 O1078   1.954   .     S
Cu1062 O1074   1.937   .     S
H1064  C282    1.083   1_556 S
C1079  H1080   1.097   .     S
C1079  H1082   1.108   .     S
C1079  H1167   1.108   .     S
H1081  C1251   1.108   1_455 S
C1083  H1084   1.104   .     S
C1083  H1085   1.110   .     S
C1083  H1086   1.108   .     S
C1087  H1088   1.109   .     S
C1087  H1089   1.105   .     S
C1087  H1090   1.111   .     S
C1091  O1092   1.221   .     D
C1091  O1093   1.396   .     S
O1093  H1094   1.014   .     S
C1095  H1097   1.108   .     S
C1095  H1098   1.107   .     S
C1095  H1096   1.086   .     S
C1099  O1100   1.222   .     D
C1099  O1101   1.395   .     S
O1101  H1102   1.014   .     S
C1103  O1104   1.215   .     D
C1103  O1191   1.399   .     S
O1105  H1106   1.014   .     S
O1105  C1275   1.399   1_455 S
C1107  H1108   1.111   .     S
C1107  H1109   1.109   .     S
C1107  H1110   1.110   .     S
C1111  H1112   1.110   .     S
C1111  H1113   1.109   .     S
C1111  H1114   1.112   .     S
C1115  O1116   1.222   .     D
C1115  O1117   1.398   .     S
O1117  H1118   1.014   .     S
C1119  O1158   1.308   .     A
C1119  C1135   1.479   .     S
C1119  O1157   1.309   .     A
C1120  C1121   1.424   .     A
C1120  C348    1.424   1_556 S
C1120  C372    1.436   1_556 S
C1121  C1125   1.412   .     A
C1121  C1128   1.421   .     A
C1122  C1126   1.397   .     A
C1123  C1124   1.407   .     A
C1123  C348    1.414   1_556 S
C1123  C368    1.405   1_556 S
C1124  C1193   1.510   .     S
C1124  C1125   1.396   .     A
C1125  H1154   1.082   .     S
C1126  C1143   1.404   .     A
C1126  H1151   1.076   .     S
C1127  C1143   1.420   .     A
C1127  C1165   1.507   .     S
C1127  C1142   1.403   .     A
C1128  C1144   1.394   .     A
C1128  C1130   1.479   .     S
C1129  C1135   1.420   .     A
C1129  C1201   1.494   .     S
C1129  C1389   1.406   .     S
C1130  O1160   1.304   .     A
C1130  O1159   1.314   .     A
C1131  C1169   1.516   .     S
C1131  C1132   1.420   .     A
C1132  C1140   1.467   .     S
C1132  C1133   1.391   .     A
C1133  H1149   1.083   .     S
C1134  C1135   1.418   .     A
C1134  C1173   1.499   .     S
C1134  C1391   1.383   .     S
C1136  N1156   1.370   .     A
C1136  C1177   1.481   .     S
C1136  C1223   1.428   .     S
C1137  N1155   1.384   .     A
C1137  C1181   1.502   .     S
C1138  C1185   1.481   .     S
C1138  N1155   1.373   .     A
C1139  C1189   1.494   .     S
C1139  N1156   1.387   .     A
C1139  C1224   1.429   .     S
C1140  O1162   1.298   .     A
C1140  O1161   1.315   .     A
C1141  O1163   1.313   .     A
C1141  O1164   1.310   .     A
C1141  C1143   1.486   .     S
C1144  C1145   1.381   .     A
C1144  H1152   1.076   .     S
C1145  C372    1.398   1_556 S
C1145  H379    1.081   1_556 S
C1146  C1197   1.514   .     S
Cu1147 Cu1148  2.715   .     S
Cu1147 O1161   1.974   .     S
Cu1147 O1163   1.937   .     S
Cu1147 O1157   1.991   .     S
Cu1147 O1159   1.954   .     S
Cu1147 N1155   2.040   .     S
Cu1148 N1156   2.040   .     S
Cu1148 O1162   1.991   .     S
Cu1148 O1158   1.974   .     S
Cu1148 O1164   1.954   .     S
Cu1148 O1160   1.937   .     S
H1150  C368    1.083   1_556 S
C1165  H1166   1.097   .     S
C1165  H1168   1.108   .     S
C1165  H1253   1.108   .     S
C1169  H1170   1.104   .     S
C1169  H1171   1.110   .     S
C1169  H1172   1.108   .     S
C1173  H1174   1.109   .     S
C1173  H1175   1.105   .     S
C1173  H1176   1.111   .     S
C1177  O1178   1.221   .     D
C1177  O1179   1.396   .     S
O1179  H1180   1.014   .     S
C1181  H1183   1.108   .     S
C1181  H1184   1.107   .     S
C1181  H1182   1.086   .     S
C1185  O1186   1.222   .     D
C1185  O1187   1.395   .     S
O1187  H1188   1.014   .     S
C1189  O1190   1.215   .     D
C1189  O1277   1.399   .     S
O1191  H1192   1.014   .     S
C1193  H1194   1.111   .     S
C1193  H1195   1.109   .     S
C1193  H1196   1.110   .     S
C1197  H1198   1.110   .     S
C1197  H1199   1.109   .     S
C1197  H1200   1.112   .     S
C1201  O1202   1.222   .     D
C1201  O1203   1.398   .     S
O1203  H1204   1.014   .     S
C1205  O1244   1.308   .     A
C1205  C1221   1.479   .     S
C1205  O1243   1.309   .     A
C1206  C1207   1.424   .     A
C1206  C434    1.424   1_556 S
C1206  C458    1.436   1_556 S
C1207  C1211   1.412   .     A
C1207  C1214   1.421   .     A
C1208  C1212   1.397   .     A
C1209  C1210   1.407   .     A
C1209  C434    1.414   1_556 S
C1209  C454    1.405   1_556 S
C1210  C1279   1.510   .     S
C1210  C1211   1.396   .     A
C1211  H1240   1.082   .     S
C1212  C1229   1.404   .     A
C1212  H1237   1.076   .     S
C1213  C1229   1.420   .     A
C1213  C1251   1.507   .     S
C1213  C1228   1.403   .     A
C1214  C1230   1.394   .     A
C1214  C1216   1.479   .     S
C1215  C1221   1.420   .     A
C1215  C1287   1.494   .     S
C1215  C1475   1.406   .     S
C1216  O1246   1.304   .     A
C1216  O1245   1.314   .     A
C1217  C1255   1.516   .     S
C1217  C1218   1.420   .     A
C1218  C1226   1.467   .     S
C1218  C1219   1.391   .     A
C1219  H1235   1.083   .     S
C1220  C1221   1.418   .     A
C1220  C1259   1.499   .     S
C1220  C1477   1.383   .     S
C1222  N1242   1.370   .     A
C1222  C1263   1.481   .     S
C1222  C1051   1.428   1_655 S
C1223  N1241   1.384   .     A
C1223  C1267   1.502   .     S
C1224  C1271   1.481   .     S
C1224  N1241   1.373   .     A
C1225  C1275   1.494   .     S
C1225  N1242   1.387   .     A
C1225  C1052   1.429   1_655 S
C1226  O1248   1.298   .     A
C1226  O1247   1.315   .     A
C1227  O1249   1.313   .     A
C1227  O1250   1.310   .     A
C1227  C1229   1.486   .     S
C1230  C1231   1.381   .     A
C1230  H1238   1.076   .     S
C1231  C458    1.398   1_556 S
C1231  H465    1.081   1_556 S
C1232  C1283   1.514   .     S
Cu1233 Cu1234  2.715   .     S
Cu1233 O1247   1.974   .     S
Cu1233 O1249   1.937   .     S
Cu1233 O1243   1.991   .     S
Cu1233 O1245   1.954   .     S
Cu1233 N1241   2.040   .     S
Cu1234 N1242   2.040   .     S
Cu1234 O1248   1.991   .     S
Cu1234 O1244   1.974   .     S
Cu1234 O1250   1.954   .     S
Cu1234 O1246   1.937   .     S
H1236  C454    1.083   1_556 S
C1251  H1252   1.097   .     S
C1251  H1254   1.108   .     S
C1251  H1081   1.108   1_655 S
C1255  H1256   1.104   .     S
C1255  H1257   1.110   .     S
C1255  H1258   1.108   .     S
C1259  H1260   1.109   .     S
C1259  H1261   1.105   .     S
C1259  H1262   1.111   .     S
C1263  O1264   1.221   .     D
C1263  O1265   1.396   .     S
O1265  H1266   1.014   .     S
C1267  H1269   1.108   .     S
C1267  H1270   1.107   .     S
C1267  H1268   1.086   .     S
C1271  O1272   1.222   .     D
C1271  O1273   1.395   .     S
O1273  H1274   1.014   .     S
C1275  O1276   1.215   .     D
C1275  O1105   1.399   1_655 S
O1277  H1278   1.014   .     S
C1279  H1280   1.111   .     S
C1279  H1281   1.109   .     S
C1279  H1282   1.110   .     S
C1283  H1284   1.110   .     S
C1283  H1285   1.109   .     S
C1283  H1286   1.112   .     S
C1287  O1288   1.222   .     D
C1287  O1289   1.398   .     S
O1289  H1290   1.014   .     S
C1291  O1330   1.308   .     A
C1291  C1307   1.479   .     S
C1291  O1329   1.309   .     A
C1292  C1293   1.424   .     A
C1292  C520    1.424   1_556 S
C1292  C544    1.436   1_556 S
C1293  C1297   1.412   .     A
C1293  C1300   1.421   .     A
C1294  C1298   1.397   .     A
C1295  C1296   1.407   .     A
C1295  C520    1.414   1_556 S
C1295  C540    1.405   1_556 S
C1296  C1365   1.510   .     S
C1296  C1297   1.396   .     A
C1297  H1326   1.082   .     S
C1298  C1315   1.404   .     A
C1298  H1323   1.076   .     S
C1299  C1315   1.420   .     A
C1299  C1337   1.507   .     S
C1299  C1314   1.403   .     A
C1300  C1316   1.394   .     A
C1300  C1302   1.479   .     S
C1301  C1307   1.420   .     A
C1301  C1373   1.494   .     S
C1301  C787    1.406   1_565 S
C1302  O1332   1.304   .     A
C1302  O1331   1.314   .     A
C1303  C1341   1.516   .     S
C1303  C1304   1.420   .     A
C1304  C1312   1.467   .     S
C1304  C1305   1.391   .     A
C1305  H1321   1.083   .     S
C1306  C1307   1.418   .     A
C1306  C1345   1.499   .     S
C1306  C789    1.383   1_565 S
C1308  N1328   1.370   .     A
C1308  C1349   1.481   .     S
C1308  C1395   1.428   .     S
C1309  N1327   1.384   .     A
C1309  C1353   1.502   .     S
C1309  C1480   1.428   1_455 S
C1310  C1357   1.481   .     S
C1310  N1327   1.373   .     A
C1310  C1483   1.429   1_455 S
C1311  C1361   1.494   .     S
C1311  N1328   1.387   .     A
C1311  C1396   1.429   .     S
C1312  O1334   1.298   .     A
C1312  O1333   1.315   .     A
C1313  O1335   1.313   .     A
C1313  O1336   1.310   .     A
C1313  C1315   1.486   .     S
C1316  C1317   1.381   .     A
C1316  H1324   1.076   .     S
C1317  C544    1.398   1_556 S
C1317  H551    1.081   1_556 S
C1318  C1369   1.514   .     S
Cu1319 Cu1320  2.715   .     S
Cu1319 O1333   1.974   .     S
Cu1319 O1335   1.937   .     S
Cu1319 O1329   1.991   .     S
Cu1319 O1331   1.954   .     S
Cu1319 N1327   2.040   .     S
Cu1320 N1328   2.040   .     S
Cu1320 O1334   1.991   .     S
Cu1320 O1330   1.974   .     S
Cu1320 O1336   1.954   .     S
Cu1320 O1332   1.937   .     S
H1322  C540    1.083   1_556 S
C1337  H1338   1.097   .     S
C1337  H1340   1.108   .     S
C1337  H1425   1.108   .     S
H1339  C1509   1.108   1_455 S
C1341  H1342   1.104   .     S
C1341  H1343   1.110   .     S
C1341  H1344   1.108   .     S
C1345  H1346   1.109   .     S
C1345  H1347   1.105   .     S
C1345  H1348   1.111   .     S
C1349  O1350   1.221   .     D
C1349  O1351   1.396   .     S
O1351  H1352   1.014   .     S
C1353  H1355   1.108   .     S
C1353  H1356   1.107   .     S
C1353  H1354   1.086   .     S
C1357  O1358   1.222   .     D
C1357  O1359   1.395   .     S
O1359  H1360   1.014   .     S
C1361  O1362   1.215   .     D
C1361  O1449   1.399   .     S
O1363  H1364   1.014   .     S
O1363  C1533   1.399   1_455 S
C1365  H1366   1.111   .     S
C1365  H1367   1.109   .     S
C1365  H1368   1.110   .     S
C1369  H1370   1.110   .     S
C1369  H1371   1.109   .     S
C1369  H1372   1.112   .     S
C1373  O1374   1.222   .     D
C1373  O1375   1.398   .     S
O1375  H1376   1.014   .     S
C1377  O1416   1.308   .     A
C1377  C1393   1.479   .     S
C1377  O1415   1.309   .     A
C1378  C1379   1.424   .     A
C1378  C606    1.424   1_556 S
C1378  C630    1.436   1_556 S
C1379  C1383   1.412   .     A
C1379  C1386   1.421   .     A
C1380  C1384   1.397   .     A
C1381  C1382   1.407   .     A
C1381  C606    1.414   1_556 S
C1381  C626    1.405   1_556 S
C1382  C1451   1.510   .     S
C1382  C1383   1.396   .     A
C1383  H1412   1.082   .     S
C1384  C1401   1.404   .     A
C1384  H1409   1.076   .     S
C1385  C1401   1.420   .     A
C1385  C1423   1.507   .     S
C1385  C1400   1.403   .     A
C1386  C1402   1.394   .     A
C1386  C1388   1.479   .     S
C1387  C1393   1.420   .     A
C1387  C1459   1.494   .     S
C1387  C873    1.406   1_565 S
C1388  O1418   1.304   .     A
C1388  O1417   1.314   .     A
C1389  C1427   1.516   .     S
C1389  C1390   1.420   .     A
C1390  C1398   1.467   .     S
C1390  C1391   1.391   .     A
C1391  H1407   1.083   .     S
C1392  C1393   1.418   .     A
C1392  C1431   1.499   .     S
C1392  C875    1.383   1_565 S
C1394  N1414   1.370   .     A
C1394  C1435   1.481   .     S
C1394  C1481   1.428   .     S
C1395  N1413   1.384   .     A
C1395  C1439   1.502   .     S
C1396  C1443   1.481   .     S
C1396  N1413   1.373   .     A
C1397  C1447   1.494   .     S
C1397  N1414   1.387   .     A
C1397  C1482   1.429   .     S
C1398  O1420   1.298   .     A
C1398  O1419   1.315   .     A
C1399  O1421   1.313   .     A
C1399  O1422   1.310   .     A
C1399  C1401   1.486   .     S
C1402  C1403   1.381   .     A
C1402  H1410   1.076   .     S
C1403  C630    1.398   1_556 S
C1403  H637    1.081   1_556 S
C1404  C1455   1.514   .     S
Cu1405 Cu1406  2.715   .     S
Cu1405 O1419   1.974   .     S
Cu1405 O1421   1.937   .     S
Cu1405 O1415   1.991   .     S
Cu1405 O1417   1.954   .     S
Cu1405 N1413   2.040   .     S
Cu1406 N1414   2.040   .     S
Cu1406 O1420   1.991   .     S
Cu1406 O1416   1.974   .     S
Cu1406 O1422   1.954   .     S
Cu1406 O1418   1.937   .     S
H1408  C626    1.083   1_556 S
C1423  H1424   1.097   .     S
C1423  H1426   1.108   .     S
C1423  H1511   1.108   .     S
C1427  H1428   1.104   .     S
C1427  H1429   1.110   .     S
C1427  H1430   1.108   .     S
C1431  H1432   1.109   .     S
C1431  H1433   1.105   .     S
C1431  H1434   1.111   .     S
C1435  O1436   1.221   .     D
C1435  O1437   1.396   .     S
O1437  H1438   1.014   .     S
C1439  H1441   1.108   .     S
C1439  H1442   1.107   .     S
C1439  H1440   1.086   .     S
C1443  O1444   1.222   .     D
C1443  O1445   1.395   .     S
O1445  H1446   1.014   .     S
C1447  O1448   1.215   .     D
C1447  O1535   1.399   .     S
O1449  H1450   1.014   .     S
C1451  H1452   1.111   .     S
C1451  H1453   1.109   .     S
C1451  H1454   1.110   .     S
C1455  H1456   1.110   .     S
C1455  H1457   1.109   .     S
C1455  H1458   1.112   .     S
C1459  O1460   1.222   .     D
C1459  O1461   1.398   .     S
O1461  H1462   1.014   .     S
C1463  O1502   1.308   .     A
C1463  C1479   1.479   .     S
C1463  O1501   1.309   .     A
C1464  C1465   1.424   .     A
C1464  C692    1.424   1_556 S
C1464  C716    1.436   1_556 S
C1465  C1469   1.412   .     A
C1465  C1472   1.421   .     A
C1466  C1470   1.397   .     A
C1467  C1468   1.407   .     A
C1467  C692    1.414   1_556 S
C1467  C712    1.405   1_556 S
C1468  C1537   1.510   .     S
C1468  C1469   1.396   .     A
C1469  H1498   1.082   .     S
C1470  C1487   1.404   .     A
C1470  H1495   1.076   .     S
C1471  C1487   1.420   .     A
C1471  C1509   1.507   .     S
C1471  C1486   1.403   .     A
C1472  C1488   1.394   .     A
C1472  C1474   1.479   .     S
C1473  C1479   1.420   .     A
C1473  C1545   1.494   .     S
C1473  C959    1.406   1_565 S
C1474  O1504   1.304   .     A
C1474  O1503   1.314   .     A
C1475  C1513   1.516   .     S
C1475  C1476   1.420   .     A
C1476  C1484   1.467   .     S
C1476  C1477   1.391   .     A
C1477  H1493   1.083   .     S
C1478  C1479   1.418   .     A
C1478  C1517   1.499   .     S
C1478  C961    1.383   1_565 S
C1480  N1500   1.370   .     A
C1480  C1521   1.481   .     S
C1480  C1309   1.428   1_655 S
C1481  N1499   1.384   .     A
C1481  C1525   1.502   .     S
C1482  C1529   1.481   .     S
C1482  N1499   1.373   .     A
C1483  C1533   1.494   .     S
C1483  N1500   1.387   .     A
C1483  C1310   1.429   1_655 S
C1484  O1506   1.298   .     A
C1484  O1505   1.315   .     A
C1485  O1507   1.313   .     A
C1485  O1508   1.310   .     A
C1485  C1487   1.486   .     S
C1488  C1489   1.381   .     A
C1488  H1496   1.076   .     S
C1489  C716    1.398   1_556 S
C1489  H723    1.081   1_556 S
C1490  C1541   1.514   .     S
Cu1491 Cu1492  2.715   .     S
Cu1491 O1505   1.974   .     S
Cu1491 O1507   1.937   .     S
Cu1491 O1501   1.991   .     S
Cu1491 O1503   1.954   .     S
Cu1491 N1499   2.040   .     S
Cu1492 N1500   2.040   .     S
Cu1492 O1506   1.991   .     S
Cu1492 O1502   1.974   .     S
Cu1492 O1508   1.954   .     S
Cu1492 O1504   1.937   .     S
H1494  C712    1.083   1_556 S
C1509  H1510   1.097   .     S
C1509  H1512   1.108   .     S
C1509  H1339   1.108   1_655 S
C1513  H1514   1.104   .     S
C1513  H1515   1.110   .     S
C1513  H1516   1.108   .     S
C1517  H1518   1.109   .     S
C1517  H1519   1.105   .     S
C1517  H1520   1.111   .     S
C1521  O1522   1.221   .     D
C1521  O1523   1.396   .     S
O1523  H1524   1.014   .     S
C1525  H1527   1.108   .     S
C1525  H1528   1.107   .     S
C1525  H1526   1.086   .     S
C1529  O1530   1.222   .     D
C1529  O1531   1.395   .     S
O1531  H1532   1.014   .     S
C1533  O1534   1.215   .     D
C1533  O1363   1.399   1_655 S
O1535  H1536   1.014   .     S
C1537  H1538   1.111   .     S
C1537  H1539   1.109   .     S
C1537  H1540   1.110   .     S
C1541  H1542   1.110   .     S
C1541  H1543   1.109   .     S
C1541  H1544   1.112   .     S
C1545  O1546   1.222   .     D
C1545  O1547   1.398   .     S
O1547  H1548   1.014   .     S
