data_str_m3_o1_o17_pcu_sym.73
_audit_creation_date              2020-01-03
_audit_creation_method            'Materials Studio'
_symmetry_space_group_name_H-M    'P1'
_symmetry_Int_Tables_number       1
_symmetry_cell_setting            triclinic
loop_
_symmetry_equiv_pos_as_xyz
  x,y,z
_cell_length_a                    32.0601
_cell_length_b                    29.5439
_cell_length_c                    29.8557
_cell_angle_alpha                 90.1905
_cell_angle_beta                  89.8829
_cell_angle_gamma                 89.9103
loop_
_atom_site_label
_atom_site_type_symbol
_atom_site_fract_x
_atom_site_fract_y
_atom_site_fract_z
_atom_site_U_iso_or_equiv
_atom_site_adp_type
_atom_site_occupancy
C1     C     0.08665   0.16668   0.25028   0.00000  Uiso   1.00
C2     C     0.04251   0.16664   0.25044   0.00000  Uiso   1.00
C3     C     0.19378   0.02402   0.27641   0.00000  Uiso   1.00
C4     C     0.13956   0.30932   0.22359   0.00000  Uiso   1.00
C5     C     0.13956   0.02394   0.22358   0.00000  Uiso   1.00
C6     C     0.19378   0.30940   0.27641   0.00000  Uiso   1.00
C7     C     0.16647   0.16658   0.16361   0.00000  Uiso   1.00
C8     C     0.16705   0.16675   0.33637   0.00000  Uiso   1.00
C9     C     0.20574   0.17430   0.40660   0.00000  Uiso   1.00
C10    C     0.12833   0.15592   0.09336   0.00000  Uiso   1.00
C11    C     0.16818   0.16702   0.38397   0.00000  Uiso   1.00
C12    C     0.24669   0.16664   0.25009   0.00000  Uiso   1.00
C13    C     0.16534   0.16616   0.11598   0.00000  Uiso   1.00
C14    C     0.13104   0.15863   0.40611   0.00000  Uiso   1.00
C15    C     0.20262   0.17382   0.09380   0.00000  Uiso   1.00
C16    C     0.12953   0.15885   0.45257   0.00000  Uiso   1.00
C17    C     0.20462   0.17098   0.04740   0.00000  Uiso   1.00
C18    C     0.16737   0.16490   0.47652   0.00000  Uiso   1.00
C19    C     0.16701   0.16363   0.02342   0.00000  Uiso   1.00
C20    C     0.20553   0.17272   0.45354   0.00000  Uiso   1.00
C21    C     0.12888   0.15574   0.04639   0.00000  Uiso   1.00
C22    C     0.09145   0.15224   0.47566   0.00000  Uiso   1.00
C23    C     0.09185   0.14993   0.02210   0.00000  Uiso   1.00
C24    C     0.24280   0.17715   0.02436   0.00000  Uiso   1.00
C25    C     0.24479   0.18187   0.38075   0.00000  Uiso   1.00
C26    C     0.08944   0.14686   0.11908   0.00000  Uiso   1.00
C27    C     0.05014   0.14914   0.45331   0.00000  Uiso   1.00
C28    C     0.28399   0.18060   0.04699   0.00000  Uiso   1.00
C29    C     0.24249   0.17906   0.47785   0.00000  Uiso   1.00
C30    C     0.02145   0.12739   0.23752   0.00000  Uiso   1.00
C31    C     0.31188   0.20584   0.26331   0.00000  Uiso   1.00
C32    C     0.31208   0.12736   0.23748   0.00000  Uiso   1.00
C33    C     0.02126   0.20586   0.26338   0.00000  Uiso   1.00
C34    C     0.29083   0.16661   0.25032   0.00000  Uiso   1.00
H35    H     0.10361   0.15153   0.38625   0.00000  Uiso   1.00
H36    H     0.21546   0.29128   0.29753   0.00000  Uiso   1.00
H37    H     0.30138   0.15824   0.36257   0.00000  Uiso   1.00
H38    H     0.04273   0.10346   0.13296   0.00000  Uiso   1.00
H39    H     0.32684   0.11939   0.45178   0.00000  Uiso   1.00
H40    H     0.00755   0.20971   0.04830   0.00000  Uiso   1.00
H41    H     0.06234   0.14554   0.03918   0.00000  Uiso   1.00
H42    H     0.27178   0.18485   0.46075   0.00000  Uiso   1.00
H43    H     0.22982   0.18227   0.11353   0.00000  Uiso   1.00
H44    H     0.03787   0.09704   0.22704   0.00000  Uiso   1.00
H45    H     0.29545   0.23621   0.27368   0.00000  Uiso   1.00
H46    H     0.29582   0.09700   0.22701   0.00000  Uiso   1.00
H47    H     0.03755   0.23622   0.27380   0.00000  Uiso   1.00
H48    H     0.21546   0.04221   0.29754   0.00000  Uiso   1.00
H49    H     0.11788   0.29113   0.20246   0.00000  Uiso   1.00
H50    H     0.11789   0.04207   0.20245   0.00000  Uiso   1.00
N51    N     0.16667   0.28573   0.25000   0.00000  Uiso   1.00
N52    N     0.16667   0.04760   0.25000   0.00000  Uiso   1.00
O53    O     0.10559   0.20487   0.24999   0.00000  Uiso   1.00
O54    O     0.27660   0.14951   0.38183   0.00000  Uiso   1.00
O55    O     0.07576   0.17546   0.14492   0.00000  Uiso   1.00
O56    O     0.06875   0.10559   0.11372   0.00000  Uiso   1.00
O57    O     0.04094   0.17513   0.42310   0.00000  Uiso   1.00
O58    O     0.02078   0.11789   0.46882   0.00000  Uiso   1.00
O59    O     0.29257   0.15572   0.07831   0.00000  Uiso   1.00
O60    O     0.31388   0.21085   0.03072   0.00000  Uiso   1.00
O61    O     0.22774   0.12846   0.25001   0.00000  Uiso   1.00
O62    O     0.22774   0.20487   0.25001   0.00000  Uiso   1.00
O63    O     0.10559   0.12846   0.25000   0.00000  Uiso   1.00
O64    O     0.16666   0.20489   0.18393   0.00000  Uiso   1.00
O65    O     0.16667   0.12844   0.31608   0.00000  Uiso   1.00
O66    O     0.16667   0.20489   0.31608   0.00000  Uiso   1.00
O67    O     0.16666   0.12844   0.18393   0.00000  Uiso   1.00
O68    O     0.24873   0.21609   0.35823   0.00000  Uiso   1.00
Zn69   Zn    0.16667   0.21771   0.25000   0.00000  Uiso   1.00
Zn70   Zn    0.16667   0.11563   0.25000   0.00000  Uiso   1.00
C71    C     0.41998   0.16668   0.25028   0.00000  Uiso   1.00
C72    C     0.37584   0.16664   0.25044   0.00000  Uiso   1.00
C73    C     0.52711   0.02402   0.27641   0.00000  Uiso   1.00
C74    C     0.47289   0.30932   0.22359   0.00000  Uiso   1.00
C75    C     0.47289   0.02394   0.22358   0.00000  Uiso   1.00
C76    C     0.52711   0.30940   0.27641   0.00000  Uiso   1.00
C77    C     0.49980   0.16658   0.16361   0.00000  Uiso   1.00
C78    C     0.50038   0.16675   0.33637   0.00000  Uiso   1.00
C79    C     0.53907   0.17430   0.40660   0.00000  Uiso   1.00
C80    C     0.46167   0.15592   0.09336   0.00000  Uiso   1.00
C81    C     0.50152   0.16702   0.38397   0.00000  Uiso   1.00
C82    C     0.58002   0.16664   0.25009   0.00000  Uiso   1.00
C83    C     0.49867   0.16616   0.11598   0.00000  Uiso   1.00
C84    C     0.46437   0.15863   0.40611   0.00000  Uiso   1.00
C85    C     0.53596   0.17382   0.09380   0.00000  Uiso   1.00
C86    C     0.46286   0.15885   0.45257   0.00000  Uiso   1.00
C87    C     0.53796   0.17098   0.04740   0.00000  Uiso   1.00
C88    C     0.50071   0.16490   0.47652   0.00000  Uiso   1.00
C89    C     0.50035   0.16363   0.02342   0.00000  Uiso   1.00
C90    C     0.53887   0.17272   0.45354   0.00000  Uiso   1.00
C91    C     0.46221   0.15574   0.04639   0.00000  Uiso   1.00
C92    C     0.42478   0.15224   0.47566   0.00000  Uiso   1.00
C93    C     0.42519   0.14993   0.02210   0.00000  Uiso   1.00
C94    C     0.57613   0.17715   0.02436   0.00000  Uiso   1.00
C95    C     0.57812   0.18187   0.38075   0.00000  Uiso   1.00
C96    C     0.42277   0.14686   0.11908   0.00000  Uiso   1.00
C97    C     0.38347   0.14914   0.45331   0.00000  Uiso   1.00
C98    C     0.61732   0.18060   0.04699   0.00000  Uiso   1.00
C99    C     0.57582   0.17906   0.47785   0.00000  Uiso   1.00
C100   C     0.35478   0.12739   0.23752   0.00000  Uiso   1.00
C101   C     0.64522   0.20584   0.26331   0.00000  Uiso   1.00
C102   C     0.64541   0.12736   0.23748   0.00000  Uiso   1.00
C103   C     0.35460   0.20586   0.26338   0.00000  Uiso   1.00
C104   C     0.62416   0.16661   0.25032   0.00000  Uiso   1.00
H105   H     0.43694   0.15153   0.38625   0.00000  Uiso   1.00
H106   H     0.54879   0.29128   0.29753   0.00000  Uiso   1.00
H107   H     0.63472   0.15824   0.36257   0.00000  Uiso   1.00
H108   H     0.37607   0.10346   0.13296   0.00000  Uiso   1.00
H109   H     0.66018   0.11939   0.45178   0.00000  Uiso   1.00
H110   H     0.34088   0.20971   0.04830   0.00000  Uiso   1.00
H111   H     0.39568   0.14554   0.03918   0.00000  Uiso   1.00
H112   H     0.60512   0.18485   0.46075   0.00000  Uiso   1.00
H113   H     0.56315   0.18227   0.11353   0.00000  Uiso   1.00
H114   H     0.37120   0.09704   0.22704   0.00000  Uiso   1.00
H115   H     0.62878   0.23621   0.27368   0.00000  Uiso   1.00
H116   H     0.62915   0.09700   0.22701   0.00000  Uiso   1.00
H117   H     0.37088   0.23622   0.27380   0.00000  Uiso   1.00
H118   H     0.54879   0.04221   0.29754   0.00000  Uiso   1.00
H119   H     0.45121   0.29113   0.20246   0.00000  Uiso   1.00
H120   H     0.45122   0.04207   0.20245   0.00000  Uiso   1.00
N121   N     0.50000   0.28573   0.25000   0.00000  Uiso   1.00
N122   N     0.50000   0.04760   0.25000   0.00000  Uiso   1.00
O123   O     0.43892   0.20487   0.24999   0.00000  Uiso   1.00
O124   O     0.60994   0.14951   0.38183   0.00000  Uiso   1.00
O125   O     0.40909   0.17546   0.14492   0.00000  Uiso   1.00
O126   O     0.40208   0.10559   0.11372   0.00000  Uiso   1.00
O127   O     0.37427   0.17513   0.42310   0.00000  Uiso   1.00
O128   O     0.35411   0.11789   0.46882   0.00000  Uiso   1.00
O129   O     0.62590   0.15572   0.07831   0.00000  Uiso   1.00
O130   O     0.64721   0.21085   0.03072   0.00000  Uiso   1.00
O131   O     0.56108   0.12846   0.25001   0.00000  Uiso   1.00
O132   O     0.56108   0.20487   0.25001   0.00000  Uiso   1.00
O133   O     0.43892   0.12846   0.25000   0.00000  Uiso   1.00
O134   O     0.49999   0.20489   0.18393   0.00000  Uiso   1.00
O135   O     0.50001   0.12844   0.31608   0.00000  Uiso   1.00
O136   O     0.50001   0.20489   0.31608   0.00000  Uiso   1.00
O137   O     0.49999   0.12844   0.18393   0.00000  Uiso   1.00
O138   O     0.58206   0.21609   0.35823   0.00000  Uiso   1.00
Zn139  Zn    0.50000   0.21771   0.25000   0.00000  Uiso   1.00
Zn140  Zn    0.50000   0.11563   0.25000   0.00000  Uiso   1.00
C141   C     0.75332   0.16668   0.25028   0.00000  Uiso   1.00
C142   C     0.70917   0.16664   0.25044   0.00000  Uiso   1.00
C143   C     0.86045   0.02402   0.27641   0.00000  Uiso   1.00
C144   C     0.80622   0.30932   0.22359   0.00000  Uiso   1.00
C145   C     0.80622   0.02394   0.22358   0.00000  Uiso   1.00
C146   C     0.86045   0.30940   0.27641   0.00000  Uiso   1.00
C147   C     0.83313   0.16658   0.16361   0.00000  Uiso   1.00
C148   C     0.83371   0.16675   0.33637   0.00000  Uiso   1.00
C149   C     0.87241   0.17430   0.40660   0.00000  Uiso   1.00
C150   C     0.79500   0.15592   0.09336   0.00000  Uiso   1.00
C151   C     0.83485   0.16702   0.38397   0.00000  Uiso   1.00
C152   C     0.91335   0.16664   0.25009   0.00000  Uiso   1.00
C153   C     0.83201   0.16616   0.11598   0.00000  Uiso   1.00
C154   C     0.79771   0.15863   0.40611   0.00000  Uiso   1.00
C155   C     0.86929   0.17382   0.09380   0.00000  Uiso   1.00
C156   C     0.79620   0.15885   0.45257   0.00000  Uiso   1.00
C157   C     0.87129   0.17098   0.04740   0.00000  Uiso   1.00
C158   C     0.83404   0.16490   0.47652   0.00000  Uiso   1.00
C159   C     0.83368   0.16363   0.02342   0.00000  Uiso   1.00
C160   C     0.87220   0.17272   0.45354   0.00000  Uiso   1.00
C161   C     0.79554   0.15574   0.04639   0.00000  Uiso   1.00
C162   C     0.75812   0.15224   0.47566   0.00000  Uiso   1.00
C163   C     0.75852   0.14993   0.02210   0.00000  Uiso   1.00
C164   C     0.90947   0.17715   0.02436   0.00000  Uiso   1.00
C165   C     0.91145   0.18187   0.38075   0.00000  Uiso   1.00
C166   C     0.75611   0.14686   0.11908   0.00000  Uiso   1.00
C167   C     0.71680   0.14914   0.45331   0.00000  Uiso   1.00
C168   C     0.95065   0.18060   0.04699   0.00000  Uiso   1.00
C169   C     0.90915   0.17906   0.47785   0.00000  Uiso   1.00
C170   C     0.68811   0.12739   0.23752   0.00000  Uiso   1.00
C171   C     0.97855   0.20584   0.26331   0.00000  Uiso   1.00
C172   C     0.97875   0.12736   0.23748   0.00000  Uiso   1.00
C173   C     0.68793   0.20586   0.26338   0.00000  Uiso   1.00
C174   C     0.95749   0.16661   0.25032   0.00000  Uiso   1.00
H175   H     0.77028   0.15153   0.38625   0.00000  Uiso   1.00
H176   H     0.88213   0.29128   0.29753   0.00000  Uiso   1.00
H177   H     0.96805   0.15824   0.36257   0.00000  Uiso   1.00
H178   H     0.70940   0.10346   0.13296   0.00000  Uiso   1.00
H179   H     0.99351   0.11939   0.45178   0.00000  Uiso   1.00
H180   H     0.67421   0.20971   0.04830   0.00000  Uiso   1.00
H181   H     0.72901   0.14554   0.03918   0.00000  Uiso   1.00
H182   H     0.93845   0.18485   0.46075   0.00000  Uiso   1.00
H183   H     0.89648   0.18227   0.11353   0.00000  Uiso   1.00
H184   H     0.70454   0.09704   0.22704   0.00000  Uiso   1.00
H185   H     0.96212   0.23621   0.27368   0.00000  Uiso   1.00
H186   H     0.96248   0.09700   0.22701   0.00000  Uiso   1.00
H187   H     0.70422   0.23622   0.27380   0.00000  Uiso   1.00
H188   H     0.88212   0.04221   0.29754   0.00000  Uiso   1.00
H189   H     0.78455   0.29113   0.20246   0.00000  Uiso   1.00
H190   H     0.78455   0.04207   0.20245   0.00000  Uiso   1.00
N191   N     0.83333   0.28573   0.25000   0.00000  Uiso   1.00
N192   N     0.83333   0.04760   0.25000   0.00000  Uiso   1.00
O193   O     0.77226   0.20487   0.24999   0.00000  Uiso   1.00
O194   O     0.94327   0.14951   0.38183   0.00000  Uiso   1.00
O195   O     0.74242   0.17546   0.14492   0.00000  Uiso   1.00
O196   O     0.73541   0.10559   0.11372   0.00000  Uiso   1.00
O197   O     0.70760   0.17513   0.42310   0.00000  Uiso   1.00
O198   O     0.68745   0.11789   0.46882   0.00000  Uiso   1.00
O199   O     0.95923   0.15572   0.07831   0.00000  Uiso   1.00
O200   O     0.98054   0.21085   0.03072   0.00000  Uiso   1.00
O201   O     0.89441   0.12846   0.25001   0.00000  Uiso   1.00
O202   O     0.89441   0.20487   0.25001   0.00000  Uiso   1.00
O203   O     0.77226   0.12846   0.25000   0.00000  Uiso   1.00
O204   O     0.83333   0.20489   0.18393   0.00000  Uiso   1.00
O205   O     0.83334   0.12844   0.31608   0.00000  Uiso   1.00
O206   O     0.83334   0.20489   0.31608   0.00000  Uiso   1.00
O207   O     0.83333   0.12844   0.18393   0.00000  Uiso   1.00
O208   O     0.91539   0.21609   0.35823   0.00000  Uiso   1.00
Zn209  Zn    0.83333   0.21771   0.25000   0.00000  Uiso   1.00
Zn210  Zn    0.83333   0.11563   0.25000   0.00000  Uiso   1.00
C211   C     0.08665   0.50001   0.25028   0.00000  Uiso   1.00
C212   C     0.04251   0.49998   0.25044   0.00000  Uiso   1.00
C213   C     0.19378   0.35735   0.27641   0.00000  Uiso   1.00
C214   C     0.13956   0.64265   0.22359   0.00000  Uiso   1.00
C215   C     0.13956   0.35727   0.22358   0.00000  Uiso   1.00
C216   C     0.19378   0.64273   0.27641   0.00000  Uiso   1.00
C217   C     0.16647   0.49991   0.16361   0.00000  Uiso   1.00
C218   C     0.16705   0.50009   0.33637   0.00000  Uiso   1.00
C219   C     0.20574   0.50763   0.40660   0.00000  Uiso   1.00
C220   C     0.12833   0.48926   0.09336   0.00000  Uiso   1.00
C221   C     0.16818   0.50036   0.38397   0.00000  Uiso   1.00
C222   C     0.24669   0.49998   0.25009   0.00000  Uiso   1.00
C223   C     0.16534   0.49949   0.11598   0.00000  Uiso   1.00
C224   C     0.13104   0.49196   0.40611   0.00000  Uiso   1.00
C225   C     0.20262   0.50715   0.09380   0.00000  Uiso   1.00
C226   C     0.12953   0.49218   0.45257   0.00000  Uiso   1.00
C227   C     0.20462   0.50431   0.04740   0.00000  Uiso   1.00
C228   C     0.16737   0.49823   0.47652   0.00000  Uiso   1.00
C229   C     0.16701   0.49697   0.02342   0.00000  Uiso   1.00
C230   C     0.20553   0.50605   0.45354   0.00000  Uiso   1.00
C231   C     0.12888   0.48908   0.04639   0.00000  Uiso   1.00
C232   C     0.09145   0.48558   0.47566   0.00000  Uiso   1.00
C233   C     0.09185   0.48326   0.02210   0.00000  Uiso   1.00
C234   C     0.24280   0.51049   0.02436   0.00000  Uiso   1.00
C235   C     0.24479   0.51520   0.38075   0.00000  Uiso   1.00
C236   C     0.08944   0.48019   0.11908   0.00000  Uiso   1.00
C237   C     0.05014   0.48247   0.45331   0.00000  Uiso   1.00
C238   C     0.28399   0.51394   0.04699   0.00000  Uiso   1.00
C239   C     0.24249   0.51239   0.47785   0.00000  Uiso   1.00
C240   C     0.02145   0.46072   0.23752   0.00000  Uiso   1.00
C241   C     0.31188   0.53918   0.26331   0.00000  Uiso   1.00
C242   C     0.31208   0.46070   0.23748   0.00000  Uiso   1.00
C243   C     0.02126   0.53919   0.26338   0.00000  Uiso   1.00
C244   C     0.29083   0.49994   0.25032   0.00000  Uiso   1.00
H245   H     0.10361   0.48486   0.38625   0.00000  Uiso   1.00
H246   H     0.21546   0.62461   0.29753   0.00000  Uiso   1.00
H247   H     0.30138   0.49157   0.36257   0.00000  Uiso   1.00
H248   H     0.04273   0.43679   0.13296   0.00000  Uiso   1.00
H249   H     0.32684   0.45273   0.45178   0.00000  Uiso   1.00
H250   H     0.00755   0.54304   0.04830   0.00000  Uiso   1.00
H251   H     0.06234   0.47888   0.03918   0.00000  Uiso   1.00
H252   H     0.27178   0.51819   0.46075   0.00000  Uiso   1.00
H253   H     0.22982   0.51560   0.11353   0.00000  Uiso   1.00
H254   H     0.03787   0.43038   0.22704   0.00000  Uiso   1.00
H255   H     0.29545   0.56955   0.27368   0.00000  Uiso   1.00
H256   H     0.29582   0.43033   0.22701   0.00000  Uiso   1.00
H257   H     0.03755   0.56956   0.27380   0.00000  Uiso   1.00
H258   H     0.21546   0.37554   0.29754   0.00000  Uiso   1.00
H259   H     0.11788   0.62446   0.20246   0.00000  Uiso   1.00
H260   H     0.11789   0.37540   0.20245   0.00000  Uiso   1.00
N261   N     0.16667   0.61907   0.25000   0.00000  Uiso   1.00
N262   N     0.16667   0.38093   0.25000   0.00000  Uiso   1.00
O263   O     0.10559   0.53821   0.24999   0.00000  Uiso   1.00
O264   O     0.27660   0.48285   0.38183   0.00000  Uiso   1.00
O265   O     0.07576   0.50879   0.14492   0.00000  Uiso   1.00
O266   O     0.06875   0.43892   0.11372   0.00000  Uiso   1.00
O267   O     0.04094   0.50847   0.42310   0.00000  Uiso   1.00
O268   O     0.02078   0.45122   0.46882   0.00000  Uiso   1.00
O269   O     0.29257   0.48906   0.07831   0.00000  Uiso   1.00
O270   O     0.31388   0.54418   0.03072   0.00000  Uiso   1.00
O271   O     0.22774   0.46179   0.25001   0.00000  Uiso   1.00
O272   O     0.22774   0.53821   0.25001   0.00000  Uiso   1.00
O273   O     0.10559   0.46179   0.25000   0.00000  Uiso   1.00
O274   O     0.16666   0.53823   0.18393   0.00000  Uiso   1.00
O275   O     0.16667   0.46177   0.31608   0.00000  Uiso   1.00
O276   O     0.16667   0.53823   0.31608   0.00000  Uiso   1.00
O277   O     0.16666   0.46177   0.18393   0.00000  Uiso   1.00
O278   O     0.24873   0.54942   0.35823   0.00000  Uiso   1.00
Zn279  Zn    0.16667   0.55104   0.25000   0.00000  Uiso   1.00
Zn280  Zn    0.16667   0.44896   0.25000   0.00000  Uiso   1.00
C281   C     0.41998   0.50001   0.25028   0.00000  Uiso   1.00
C282   C     0.37584   0.49998   0.25044   0.00000  Uiso   1.00
C283   C     0.52711   0.35735   0.27641   0.00000  Uiso   1.00
C284   C     0.47289   0.64265   0.22359   0.00000  Uiso   1.00
C285   C     0.47289   0.35727   0.22358   0.00000  Uiso   1.00
C286   C     0.52711   0.64273   0.27641   0.00000  Uiso   1.00
C287   C     0.49980   0.49991   0.16361   0.00000  Uiso   1.00
C288   C     0.50038   0.50009   0.33637   0.00000  Uiso   1.00
C289   C     0.53907   0.50763   0.40660   0.00000  Uiso   1.00
C290   C     0.46167   0.48926   0.09336   0.00000  Uiso   1.00
C291   C     0.50152   0.50036   0.38397   0.00000  Uiso   1.00
C292   C     0.58002   0.49998   0.25009   0.00000  Uiso   1.00
C293   C     0.49867   0.49949   0.11598   0.00000  Uiso   1.00
C294   C     0.46437   0.49196   0.40611   0.00000  Uiso   1.00
C295   C     0.53596   0.50715   0.09380   0.00000  Uiso   1.00
C296   C     0.46286   0.49218   0.45257   0.00000  Uiso   1.00
C297   C     0.53796   0.50431   0.04740   0.00000  Uiso   1.00
C298   C     0.50071   0.49823   0.47652   0.00000  Uiso   1.00
C299   C     0.50035   0.49697   0.02342   0.00000  Uiso   1.00
C300   C     0.53887   0.50605   0.45354   0.00000  Uiso   1.00
C301   C     0.46221   0.48908   0.04639   0.00000  Uiso   1.00
C302   C     0.42478   0.48558   0.47566   0.00000  Uiso   1.00
C303   C     0.42519   0.48326   0.02210   0.00000  Uiso   1.00
C304   C     0.57613   0.51049   0.02436   0.00000  Uiso   1.00
C305   C     0.57812   0.51520   0.38075   0.00000  Uiso   1.00
C306   C     0.42277   0.48019   0.11908   0.00000  Uiso   1.00
C307   C     0.38347   0.48247   0.45331   0.00000  Uiso   1.00
C308   C     0.61732   0.51394   0.04699   0.00000  Uiso   1.00
C309   C     0.57582   0.51239   0.47785   0.00000  Uiso   1.00
C310   C     0.35478   0.46072   0.23752   0.00000  Uiso   1.00
C311   C     0.64522   0.53918   0.26331   0.00000  Uiso   1.00
C312   C     0.64541   0.46070   0.23748   0.00000  Uiso   1.00
C313   C     0.35460   0.53919   0.26338   0.00000  Uiso   1.00
C314   C     0.62416   0.49994   0.25032   0.00000  Uiso   1.00
H315   H     0.43694   0.48486   0.38625   0.00000  Uiso   1.00
H316   H     0.54879   0.62461   0.29753   0.00000  Uiso   1.00
H317   H     0.63472   0.49157   0.36257   0.00000  Uiso   1.00
H318   H     0.37607   0.43679   0.13296   0.00000  Uiso   1.00
H319   H     0.66018   0.45273   0.45178   0.00000  Uiso   1.00
H320   H     0.34088   0.54304   0.04830   0.00000  Uiso   1.00
H321   H     0.39568   0.47888   0.03918   0.00000  Uiso   1.00
H322   H     0.60512   0.51819   0.46075   0.00000  Uiso   1.00
H323   H     0.56315   0.51560   0.11353   0.00000  Uiso   1.00
H324   H     0.37120   0.43038   0.22704   0.00000  Uiso   1.00
H325   H     0.62878   0.56955   0.27368   0.00000  Uiso   1.00
H326   H     0.62915   0.43033   0.22701   0.00000  Uiso   1.00
H327   H     0.37088   0.56956   0.27380   0.00000  Uiso   1.00
H328   H     0.54879   0.37554   0.29754   0.00000  Uiso   1.00
H329   H     0.45121   0.62446   0.20246   0.00000  Uiso   1.00
H330   H     0.45122   0.37540   0.20245   0.00000  Uiso   1.00
N331   N     0.50000   0.61907   0.25000   0.00000  Uiso   1.00
N332   N     0.50000   0.38093   0.25000   0.00000  Uiso   1.00
O333   O     0.43892   0.53821   0.24999   0.00000  Uiso   1.00
O334   O     0.60994   0.48285   0.38183   0.00000  Uiso   1.00
O335   O     0.40909   0.50879   0.14492   0.00000  Uiso   1.00
O336   O     0.40208   0.43892   0.11372   0.00000  Uiso   1.00
O337   O     0.37427   0.50847   0.42310   0.00000  Uiso   1.00
O338   O     0.35411   0.45122   0.46882   0.00000  Uiso   1.00
O339   O     0.62590   0.48906   0.07831   0.00000  Uiso   1.00
O340   O     0.64721   0.54418   0.03072   0.00000  Uiso   1.00
O341   O     0.56108   0.46179   0.25001   0.00000  Uiso   1.00
O342   O     0.56108   0.53821   0.25001   0.00000  Uiso   1.00
O343   O     0.43892   0.46179   0.25000   0.00000  Uiso   1.00
O344   O     0.49999   0.53823   0.18393   0.00000  Uiso   1.00
O345   O     0.50001   0.46177   0.31608   0.00000  Uiso   1.00
O346   O     0.50001   0.53823   0.31608   0.00000  Uiso   1.00
O347   O     0.49999   0.46177   0.18393   0.00000  Uiso   1.00
O348   O     0.58206   0.54942   0.35823   0.00000  Uiso   1.00
Zn349  Zn    0.50000   0.55104   0.25000   0.00000  Uiso   1.00
Zn350  Zn    0.50000   0.44896   0.25000   0.00000  Uiso   1.00
C351   C     0.75332   0.50001   0.25028   0.00000  Uiso   1.00
C352   C     0.70917   0.49998   0.25044   0.00000  Uiso   1.00
C353   C     0.86045   0.35735   0.27641   0.00000  Uiso   1.00
C354   C     0.80622   0.64265   0.22359   0.00000  Uiso   1.00
C355   C     0.80622   0.35727   0.22358   0.00000  Uiso   1.00
C356   C     0.86045   0.64273   0.27641   0.00000  Uiso   1.00
C357   C     0.83313   0.49991   0.16361   0.00000  Uiso   1.00
C358   C     0.83371   0.50009   0.33637   0.00000  Uiso   1.00
C359   C     0.87241   0.50763   0.40660   0.00000  Uiso   1.00
C360   C     0.79500   0.48926   0.09336   0.00000  Uiso   1.00
C361   C     0.83485   0.50036   0.38397   0.00000  Uiso   1.00
C362   C     0.91335   0.49998   0.25009   0.00000  Uiso   1.00
C363   C     0.83201   0.49949   0.11598   0.00000  Uiso   1.00
C364   C     0.79771   0.49196   0.40611   0.00000  Uiso   1.00
C365   C     0.86929   0.50715   0.09380   0.00000  Uiso   1.00
C366   C     0.79620   0.49218   0.45257   0.00000  Uiso   1.00
C367   C     0.87129   0.50431   0.04740   0.00000  Uiso   1.00
C368   C     0.83404   0.49823   0.47652   0.00000  Uiso   1.00
C369   C     0.83368   0.49697   0.02342   0.00000  Uiso   1.00
C370   C     0.87220   0.50605   0.45354   0.00000  Uiso   1.00
C371   C     0.79554   0.48908   0.04639   0.00000  Uiso   1.00
C372   C     0.75812   0.48558   0.47566   0.00000  Uiso   1.00
C373   C     0.75852   0.48326   0.02210   0.00000  Uiso   1.00
C374   C     0.90947   0.51049   0.02436   0.00000  Uiso   1.00
C375   C     0.91145   0.51520   0.38075   0.00000  Uiso   1.00
C376   C     0.75611   0.48019   0.11908   0.00000  Uiso   1.00
C377   C     0.71680   0.48247   0.45331   0.00000  Uiso   1.00
C378   C     0.95065   0.51394   0.04699   0.00000  Uiso   1.00
C379   C     0.90915   0.51239   0.47785   0.00000  Uiso   1.00
C380   C     0.68811   0.46072   0.23752   0.00000  Uiso   1.00
C381   C     0.97855   0.53918   0.26331   0.00000  Uiso   1.00
C382   C     0.97875   0.46070   0.23748   0.00000  Uiso   1.00
C383   C     0.68793   0.53919   0.26338   0.00000  Uiso   1.00
C384   C     0.95749   0.49994   0.25032   0.00000  Uiso   1.00
H385   H     0.77028   0.48486   0.38625   0.00000  Uiso   1.00
H386   H     0.88213   0.62461   0.29753   0.00000  Uiso   1.00
H387   H     0.96805   0.49157   0.36257   0.00000  Uiso   1.00
H388   H     0.70940   0.43679   0.13296   0.00000  Uiso   1.00
H389   H     0.99351   0.45273   0.45178   0.00000  Uiso   1.00
H390   H     0.67421   0.54304   0.04830   0.00000  Uiso   1.00
H391   H     0.72901   0.47888   0.03918   0.00000  Uiso   1.00
H392   H     0.93845   0.51819   0.46075   0.00000  Uiso   1.00
H393   H     0.89648   0.51560   0.11353   0.00000  Uiso   1.00
H394   H     0.70454   0.43038   0.22704   0.00000  Uiso   1.00
H395   H     0.96212   0.56955   0.27368   0.00000  Uiso   1.00
H396   H     0.96248   0.43033   0.22701   0.00000  Uiso   1.00
H397   H     0.70422   0.56956   0.27380   0.00000  Uiso   1.00
H398   H     0.88212   0.37554   0.29754   0.00000  Uiso   1.00
H399   H     0.78455   0.62446   0.20246   0.00000  Uiso   1.00
H400   H     0.78455   0.37540   0.20245   0.00000  Uiso   1.00
N401   N     0.83333   0.61907   0.25000   0.00000  Uiso   1.00
N402   N     0.83333   0.38093   0.25000   0.00000  Uiso   1.00
O403   O     0.77226   0.53821   0.24999   0.00000  Uiso   1.00
O404   O     0.94327   0.48285   0.38183   0.00000  Uiso   1.00
O405   O     0.74242   0.50879   0.14492   0.00000  Uiso   1.00
O406   O     0.73541   0.43892   0.11372   0.00000  Uiso   1.00
O407   O     0.70760   0.50847   0.42310   0.00000  Uiso   1.00
O408   O     0.68745   0.45122   0.46882   0.00000  Uiso   1.00
O409   O     0.95923   0.48906   0.07831   0.00000  Uiso   1.00
O410   O     0.98054   0.54418   0.03072   0.00000  Uiso   1.00
O411   O     0.89441   0.46179   0.25001   0.00000  Uiso   1.00
O412   O     0.89441   0.53821   0.25001   0.00000  Uiso   1.00
O413   O     0.77226   0.46179   0.25000   0.00000  Uiso   1.00
O414   O     0.83333   0.53823   0.18393   0.00000  Uiso   1.00
O415   O     0.83334   0.46177   0.31608   0.00000  Uiso   1.00
O416   O     0.83334   0.53823   0.31608   0.00000  Uiso   1.00
O417   O     0.83333   0.46177   0.18393   0.00000  Uiso   1.00
O418   O     0.91539   0.54942   0.35823   0.00000  Uiso   1.00
Zn419  Zn    0.83333   0.55104   0.25000   0.00000  Uiso   1.00
Zn420  Zn    0.83333   0.44896   0.25000   0.00000  Uiso   1.00
C421   C     0.08665   0.83335   0.25028   0.00000  Uiso   1.00
C422   C     0.04251   0.83331   0.25044   0.00000  Uiso   1.00
C423   C     0.19378   0.69068   0.27641   0.00000  Uiso   1.00
C424   C     0.13956   0.97599   0.22359   0.00000  Uiso   1.00
C425   C     0.13956   0.69061   0.22358   0.00000  Uiso   1.00
C426   C     0.19378   0.97607   0.27641   0.00000  Uiso   1.00
C427   C     0.16647   0.83324   0.16361   0.00000  Uiso   1.00
C428   C     0.16705   0.83342   0.33637   0.00000  Uiso   1.00
C429   C     0.20574   0.84096   0.40660   0.00000  Uiso   1.00
C430   C     0.12833   0.82259   0.09336   0.00000  Uiso   1.00
C431   C     0.16818   0.83369   0.38397   0.00000  Uiso   1.00
C432   C     0.24669   0.83331   0.25009   0.00000  Uiso   1.00
C433   C     0.16534   0.83282   0.11598   0.00000  Uiso   1.00
C434   C     0.13104   0.82530   0.40611   0.00000  Uiso   1.00
C435   C     0.20262   0.84049   0.09380   0.00000  Uiso   1.00
C436   C     0.12953   0.82551   0.45257   0.00000  Uiso   1.00
C437   C     0.20462   0.83764   0.04740   0.00000  Uiso   1.00
C438   C     0.16737   0.83156   0.47652   0.00000  Uiso   1.00
C439   C     0.16701   0.83030   0.02342   0.00000  Uiso   1.00
C440   C     0.20553   0.83939   0.45354   0.00000  Uiso   1.00
C441   C     0.12888   0.82241   0.04639   0.00000  Uiso   1.00
C442   C     0.09145   0.81891   0.47566   0.00000  Uiso   1.00
C443   C     0.09185   0.81660   0.02210   0.00000  Uiso   1.00
C444   C     0.24280   0.84382   0.02436   0.00000  Uiso   1.00
C445   C     0.24479   0.84854   0.38075   0.00000  Uiso   1.00
C446   C     0.08944   0.81352   0.11908   0.00000  Uiso   1.00
C447   C     0.05014   0.81580   0.45331   0.00000  Uiso   1.00
C448   C     0.28399   0.84727   0.04699   0.00000  Uiso   1.00
C449   C     0.24249   0.84572   0.47785   0.00000  Uiso   1.00
C450   C     0.02145   0.79405   0.23752   0.00000  Uiso   1.00
C451   C     0.31188   0.87251   0.26331   0.00000  Uiso   1.00
C452   C     0.31208   0.79403   0.23748   0.00000  Uiso   1.00
C453   C     0.02126   0.87252   0.26338   0.00000  Uiso   1.00
C454   C     0.29083   0.83327   0.25032   0.00000  Uiso   1.00
H455   H     0.10361   0.81820   0.38625   0.00000  Uiso   1.00
H456   H     0.21546   0.95794   0.29753   0.00000  Uiso   1.00
H457   H     0.30138   0.82490   0.36257   0.00000  Uiso   1.00
H458   H     0.04273   0.77013   0.13296   0.00000  Uiso   1.00
H459   H     0.32684   0.78606   0.45178   0.00000  Uiso   1.00
H460   H     0.00755   0.87638   0.04830   0.00000  Uiso   1.00
H461   H     0.06234   0.81221   0.03918   0.00000  Uiso   1.00
H462   H     0.27178   0.85152   0.46075   0.00000  Uiso   1.00
H463   H     0.22982   0.84893   0.11353   0.00000  Uiso   1.00
H464   H     0.03787   0.76371   0.22704   0.00000  Uiso   1.00
H465   H     0.29545   0.90288   0.27368   0.00000  Uiso   1.00
H466   H     0.29582   0.76367   0.22701   0.00000  Uiso   1.00
H467   H     0.03755   0.90289   0.27380   0.00000  Uiso   1.00
H468   H     0.21546   0.70887   0.29754   0.00000  Uiso   1.00
H469   H     0.11788   0.95780   0.20246   0.00000  Uiso   1.00
H470   H     0.11789   0.70873   0.20245   0.00000  Uiso   1.00
N471   N     0.16667   0.95240   0.25000   0.00000  Uiso   1.00
N472   N     0.16667   0.71427   0.25000   0.00000  Uiso   1.00
O473   O     0.10559   0.87154   0.24999   0.00000  Uiso   1.00
O474   O     0.27660   0.81618   0.38183   0.00000  Uiso   1.00
O475   O     0.07576   0.84212   0.14492   0.00000  Uiso   1.00
O476   O     0.06875   0.77225   0.11372   0.00000  Uiso   1.00
O477   O     0.04094   0.84180   0.42310   0.00000  Uiso   1.00
O478   O     0.02078   0.78455   0.46882   0.00000  Uiso   1.00
O479   O     0.29257   0.82239   0.07831   0.00000  Uiso   1.00
O480   O     0.31388   0.87752   0.03072   0.00000  Uiso   1.00
O481   O     0.22774   0.79513   0.25001   0.00000  Uiso   1.00
O482   O     0.22774   0.87154   0.25001   0.00000  Uiso   1.00
O483   O     0.10559   0.79513   0.25000   0.00000  Uiso   1.00
O484   O     0.16666   0.87156   0.18393   0.00000  Uiso   1.00
O485   O     0.16667   0.79511   0.31608   0.00000  Uiso   1.00
O486   O     0.16667   0.87156   0.31608   0.00000  Uiso   1.00
O487   O     0.16666   0.79511   0.18393   0.00000  Uiso   1.00
O488   O     0.24873   0.88276   0.35823   0.00000  Uiso   1.00
Zn489  Zn    0.16667   0.88437   0.25000   0.00000  Uiso   1.00
Zn490  Zn    0.16667   0.78229   0.25000   0.00000  Uiso   1.00
C491   C     0.41998   0.83335   0.25028   0.00000  Uiso   1.00
C492   C     0.37584   0.83331   0.25044   0.00000  Uiso   1.00
C493   C     0.52711   0.69068   0.27641   0.00000  Uiso   1.00
C494   C     0.47289   0.97599   0.22359   0.00000  Uiso   1.00
C495   C     0.47289   0.69061   0.22358   0.00000  Uiso   1.00
C496   C     0.52711   0.97607   0.27641   0.00000  Uiso   1.00
C497   C     0.49980   0.83324   0.16361   0.00000  Uiso   1.00
C498   C     0.50038   0.83342   0.33637   0.00000  Uiso   1.00
C499   C     0.53907   0.84096   0.40660   0.00000  Uiso   1.00
C500   C     0.46167   0.82259   0.09336   0.00000  Uiso   1.00
C501   C     0.50152   0.83369   0.38397   0.00000  Uiso   1.00
C502   C     0.58002   0.83331   0.25009   0.00000  Uiso   1.00
C503   C     0.49867   0.83282   0.11598   0.00000  Uiso   1.00
C504   C     0.46437   0.82530   0.40611   0.00000  Uiso   1.00
C505   C     0.53596   0.84049   0.09380   0.00000  Uiso   1.00
C506   C     0.46286   0.82551   0.45257   0.00000  Uiso   1.00
C507   C     0.53796   0.83764   0.04740   0.00000  Uiso   1.00
C508   C     0.50071   0.83156   0.47652   0.00000  Uiso   1.00
C509   C     0.50035   0.83030   0.02342   0.00000  Uiso   1.00
C510   C     0.53887   0.83939   0.45354   0.00000  Uiso   1.00
C511   C     0.46221   0.82241   0.04639   0.00000  Uiso   1.00
C512   C     0.42478   0.81891   0.47566   0.00000  Uiso   1.00
C513   C     0.42519   0.81660   0.02210   0.00000  Uiso   1.00
C514   C     0.57613   0.84382   0.02436   0.00000  Uiso   1.00
C515   C     0.57812   0.84854   0.38075   0.00000  Uiso   1.00
C516   C     0.42277   0.81352   0.11908   0.00000  Uiso   1.00
C517   C     0.38347   0.81580   0.45331   0.00000  Uiso   1.00
C518   C     0.61732   0.84727   0.04699   0.00000  Uiso   1.00
C519   C     0.57582   0.84572   0.47785   0.00000  Uiso   1.00
C520   C     0.35478   0.79405   0.23752   0.00000  Uiso   1.00
C521   C     0.64522   0.87251   0.26331   0.00000  Uiso   1.00
C522   C     0.64541   0.79403   0.23748   0.00000  Uiso   1.00
C523   C     0.35460   0.87252   0.26338   0.00000  Uiso   1.00
C524   C     0.62416   0.83327   0.25032   0.00000  Uiso   1.00
H525   H     0.43694   0.81820   0.38625   0.00000  Uiso   1.00
H526   H     0.54879   0.95794   0.29753   0.00000  Uiso   1.00
H527   H     0.63472   0.82490   0.36257   0.00000  Uiso   1.00
H528   H     0.37607   0.77013   0.13296   0.00000  Uiso   1.00
H529   H     0.66018   0.78606   0.45178   0.00000  Uiso   1.00
H530   H     0.34088   0.87638   0.04830   0.00000  Uiso   1.00
H531   H     0.39568   0.81221   0.03918   0.00000  Uiso   1.00
H532   H     0.60512   0.85152   0.46075   0.00000  Uiso   1.00
H533   H     0.56315   0.84893   0.11353   0.00000  Uiso   1.00
H534   H     0.37120   0.76371   0.22704   0.00000  Uiso   1.00
H535   H     0.62878   0.90288   0.27368   0.00000  Uiso   1.00
H536   H     0.62915   0.76367   0.22701   0.00000  Uiso   1.00
H537   H     0.37088   0.90289   0.27380   0.00000  Uiso   1.00
H538   H     0.54879   0.70887   0.29754   0.00000  Uiso   1.00
H539   H     0.45121   0.95780   0.20246   0.00000  Uiso   1.00
H540   H     0.45122   0.70873   0.20245   0.00000  Uiso   1.00
N541   N     0.50000   0.95240   0.25000   0.00000  Uiso   1.00
N542   N     0.50000   0.71427   0.25000   0.00000  Uiso   1.00
O543   O     0.43892   0.87154   0.24999   0.00000  Uiso   1.00
O544   O     0.60994   0.81618   0.38183   0.00000  Uiso   1.00
O545   O     0.40909   0.84212   0.14492   0.00000  Uiso   1.00
O546   O     0.40208   0.77225   0.11372   0.00000  Uiso   1.00
O547   O     0.37427   0.84180   0.42310   0.00000  Uiso   1.00
O548   O     0.35411   0.78455   0.46882   0.00000  Uiso   1.00
O549   O     0.62590   0.82239   0.07831   0.00000  Uiso   1.00
O550   O     0.64721   0.87752   0.03072   0.00000  Uiso   1.00
O551   O     0.56108   0.79513   0.25001   0.00000  Uiso   1.00
O552   O     0.56108   0.87154   0.25001   0.00000  Uiso   1.00
O553   O     0.43892   0.79513   0.25000   0.00000  Uiso   1.00
O554   O     0.49999   0.87156   0.18393   0.00000  Uiso   1.00
O555   O     0.50001   0.79511   0.31608   0.00000  Uiso   1.00
O556   O     0.50001   0.87156   0.31608   0.00000  Uiso   1.00
O557   O     0.49999   0.79511   0.18393   0.00000  Uiso   1.00
O558   O     0.58206   0.88276   0.35823   0.00000  Uiso   1.00
Zn559  Zn    0.50000   0.88437   0.25000   0.00000  Uiso   1.00
Zn560  Zn    0.50000   0.78229   0.25000   0.00000  Uiso   1.00
C561   C     0.75332   0.83335   0.25028   0.00000  Uiso   1.00
C562   C     0.70917   0.83331   0.25044   0.00000  Uiso   1.00
C563   C     0.86045   0.69068   0.27641   0.00000  Uiso   1.00
C564   C     0.80622   0.97599   0.22359   0.00000  Uiso   1.00
C565   C     0.80622   0.69061   0.22358   0.00000  Uiso   1.00
C566   C     0.86045   0.97607   0.27641   0.00000  Uiso   1.00
C567   C     0.83313   0.83324   0.16361   0.00000  Uiso   1.00
C568   C     0.83371   0.83342   0.33637   0.00000  Uiso   1.00
C569   C     0.87241   0.84096   0.40660   0.00000  Uiso   1.00
C570   C     0.79500   0.82259   0.09336   0.00000  Uiso   1.00
C571   C     0.83485   0.83369   0.38397   0.00000  Uiso   1.00
C572   C     0.91335   0.83331   0.25009   0.00000  Uiso   1.00
C573   C     0.83201   0.83282   0.11598   0.00000  Uiso   1.00
C574   C     0.79771   0.82530   0.40611   0.00000  Uiso   1.00
C575   C     0.86929   0.84049   0.09380   0.00000  Uiso   1.00
C576   C     0.79620   0.82551   0.45257   0.00000  Uiso   1.00
C577   C     0.87129   0.83764   0.04740   0.00000  Uiso   1.00
C578   C     0.83404   0.83156   0.47652   0.00000  Uiso   1.00
C579   C     0.83368   0.83030   0.02342   0.00000  Uiso   1.00
C580   C     0.87220   0.83939   0.45354   0.00000  Uiso   1.00
C581   C     0.79554   0.82241   0.04639   0.00000  Uiso   1.00
C582   C     0.75812   0.81891   0.47566   0.00000  Uiso   1.00
C583   C     0.75852   0.81660   0.02210   0.00000  Uiso   1.00
C584   C     0.90947   0.84382   0.02436   0.00000  Uiso   1.00
C585   C     0.91145   0.84854   0.38075   0.00000  Uiso   1.00
C586   C     0.75611   0.81352   0.11908   0.00000  Uiso   1.00
C587   C     0.71680   0.81580   0.45331   0.00000  Uiso   1.00
C588   C     0.95065   0.84727   0.04699   0.00000  Uiso   1.00
C589   C     0.90915   0.84572   0.47785   0.00000  Uiso   1.00
C590   C     0.68811   0.79405   0.23752   0.00000  Uiso   1.00
C591   C     0.97855   0.87251   0.26331   0.00000  Uiso   1.00
C592   C     0.97875   0.79403   0.23748   0.00000  Uiso   1.00
C593   C     0.68793   0.87252   0.26338   0.00000  Uiso   1.00
C594   C     0.95749   0.83327   0.25032   0.00000  Uiso   1.00
H595   H     0.77028   0.81820   0.38625   0.00000  Uiso   1.00
H596   H     0.88213   0.95794   0.29753   0.00000  Uiso   1.00
H597   H     0.96805   0.82490   0.36257   0.00000  Uiso   1.00
H598   H     0.70940   0.77013   0.13296   0.00000  Uiso   1.00
H599   H     0.99351   0.78606   0.45178   0.00000  Uiso   1.00
H600   H     0.67421   0.87638   0.04830   0.00000  Uiso   1.00
H601   H     0.72901   0.81221   0.03918   0.00000  Uiso   1.00
H602   H     0.93845   0.85152   0.46075   0.00000  Uiso   1.00
H603   H     0.89648   0.84893   0.11353   0.00000  Uiso   1.00
H604   H     0.70454   0.76371   0.22704   0.00000  Uiso   1.00
H605   H     0.96212   0.90288   0.27368   0.00000  Uiso   1.00
H606   H     0.96248   0.76367   0.22701   0.00000  Uiso   1.00
H607   H     0.70422   0.90289   0.27380   0.00000  Uiso   1.00
H608   H     0.88212   0.70887   0.29754   0.00000  Uiso   1.00
H609   H     0.78455   0.95780   0.20246   0.00000  Uiso   1.00
H610   H     0.78455   0.70873   0.20245   0.00000  Uiso   1.00
N611   N     0.83333   0.95240   0.25000   0.00000  Uiso   1.00
N612   N     0.83333   0.71427   0.25000   0.00000  Uiso   1.00
O613   O     0.77226   0.87154   0.24999   0.00000  Uiso   1.00
O614   O     0.94327   0.81618   0.38183   0.00000  Uiso   1.00
O615   O     0.74242   0.84212   0.14492   0.00000  Uiso   1.00
O616   O     0.73541   0.77225   0.11372   0.00000  Uiso   1.00
O617   O     0.70760   0.84180   0.42310   0.00000  Uiso   1.00
O618   O     0.68745   0.78455   0.46882   0.00000  Uiso   1.00
O619   O     0.95923   0.82239   0.07831   0.00000  Uiso   1.00
O620   O     0.98054   0.87752   0.03072   0.00000  Uiso   1.00
O621   O     0.89441   0.79513   0.25001   0.00000  Uiso   1.00
O622   O     0.89441   0.87154   0.25001   0.00000  Uiso   1.00
O623   O     0.77226   0.79513   0.25000   0.00000  Uiso   1.00
O624   O     0.83333   0.87156   0.18393   0.00000  Uiso   1.00
O625   O     0.83334   0.79511   0.31608   0.00000  Uiso   1.00
O626   O     0.83334   0.87156   0.31608   0.00000  Uiso   1.00
O627   O     0.83333   0.79511   0.18393   0.00000  Uiso   1.00
O628   O     0.91539   0.88276   0.35823   0.00000  Uiso   1.00
Zn629  Zn    0.83333   0.88437   0.25000   0.00000  Uiso   1.00
Zn630  Zn    0.83333   0.78229   0.25000   0.00000  Uiso   1.00
C631   C     0.08665   0.16668   0.75028   0.00000  Uiso   1.00
C632   C     0.04251   0.16664   0.75044   0.00000  Uiso   1.00
C633   C     0.19378   0.02402   0.77641   0.00000  Uiso   1.00
C634   C     0.13956   0.30932   0.72359   0.00000  Uiso   1.00
C635   C     0.13956   0.02394   0.72358   0.00000  Uiso   1.00
C636   C     0.19378   0.30940   0.77641   0.00000  Uiso   1.00
C637   C     0.16647   0.16658   0.66361   0.00000  Uiso   1.00
C638   C     0.16705   0.16675   0.83637   0.00000  Uiso   1.00
C639   C     0.20574   0.17430   0.90660   0.00000  Uiso   1.00
C640   C     0.12833   0.15592   0.59336   0.00000  Uiso   1.00
C641   C     0.16818   0.16702   0.88397   0.00000  Uiso   1.00
C642   C     0.24669   0.16664   0.75009   0.00000  Uiso   1.00
C643   C     0.16534   0.16616   0.61598   0.00000  Uiso   1.00
C644   C     0.13104   0.15863   0.90611   0.00000  Uiso   1.00
C645   C     0.20262   0.17382   0.59380   0.00000  Uiso   1.00
C646   C     0.12953   0.15885   0.95257   0.00000  Uiso   1.00
C647   C     0.20462   0.17098   0.54740   0.00000  Uiso   1.00
C648   C     0.16737   0.16490   0.97652   0.00000  Uiso   1.00
C649   C     0.16701   0.16363   0.52342   0.00000  Uiso   1.00
C650   C     0.20553   0.17272   0.95354   0.00000  Uiso   1.00
C651   C     0.12888   0.15574   0.54639   0.00000  Uiso   1.00
C652   C     0.09145   0.15224   0.97566   0.00000  Uiso   1.00
C653   C     0.09185   0.14993   0.52210   0.00000  Uiso   1.00
C654   C     0.24280   0.17715   0.52436   0.00000  Uiso   1.00
C655   C     0.24479   0.18187   0.88075   0.00000  Uiso   1.00
C656   C     0.08944   0.14686   0.61908   0.00000  Uiso   1.00
C657   C     0.05014   0.14914   0.95331   0.00000  Uiso   1.00
C658   C     0.28399   0.18060   0.54699   0.00000  Uiso   1.00
C659   C     0.24249   0.17906   0.97785   0.00000  Uiso   1.00
C660   C     0.02145   0.12739   0.73752   0.00000  Uiso   1.00
C661   C     0.31188   0.20584   0.76331   0.00000  Uiso   1.00
C662   C     0.31208   0.12736   0.73748   0.00000  Uiso   1.00
C663   C     0.02126   0.20586   0.76338   0.00000  Uiso   1.00
C664   C     0.29083   0.16661   0.75032   0.00000  Uiso   1.00
H665   H     0.10361   0.15153   0.88625   0.00000  Uiso   1.00
H666   H     0.21546   0.29128   0.79753   0.00000  Uiso   1.00
H667   H     0.30138   0.15824   0.86257   0.00000  Uiso   1.00
H668   H     0.04273   0.10346   0.63296   0.00000  Uiso   1.00
H669   H     0.32684   0.11939   0.95178   0.00000  Uiso   1.00
H670   H     0.00755   0.20971   0.54830   0.00000  Uiso   1.00
H671   H     0.06234   0.14554   0.53918   0.00000  Uiso   1.00
H672   H     0.27178   0.18485   0.96075   0.00000  Uiso   1.00
H673   H     0.22982   0.18227   0.61353   0.00000  Uiso   1.00
H674   H     0.03787   0.09704   0.72704   0.00000  Uiso   1.00
H675   H     0.29545   0.23621   0.77368   0.00000  Uiso   1.00
H676   H     0.29582   0.09700   0.72701   0.00000  Uiso   1.00
H677   H     0.03755   0.23622   0.77380   0.00000  Uiso   1.00
H678   H     0.21546   0.04221   0.79754   0.00000  Uiso   1.00
H679   H     0.11788   0.29113   0.70246   0.00000  Uiso   1.00
H680   H     0.11789   0.04207   0.70245   0.00000  Uiso   1.00
N681   N     0.16667   0.28573   0.75000   0.00000  Uiso   1.00
N682   N     0.16667   0.04760   0.75000   0.00000  Uiso   1.00
O683   O     0.10559   0.20487   0.74999   0.00000  Uiso   1.00
O684   O     0.27660   0.14951   0.88183   0.00000  Uiso   1.00
O685   O     0.07576   0.17546   0.64492   0.00000  Uiso   1.00
O686   O     0.06875   0.10559   0.61372   0.00000  Uiso   1.00
O687   O     0.04094   0.17513   0.92310   0.00000  Uiso   1.00
O688   O     0.02078   0.11789   0.96882   0.00000  Uiso   1.00
O689   O     0.29257   0.15572   0.57831   0.00000  Uiso   1.00
O690   O     0.31388   0.21085   0.53072   0.00000  Uiso   1.00
O691   O     0.22774   0.12846   0.75001   0.00000  Uiso   1.00
O692   O     0.22774   0.20487   0.75001   0.00000  Uiso   1.00
O693   O     0.10559   0.12846   0.75000   0.00000  Uiso   1.00
O694   O     0.16666   0.20489   0.68393   0.00000  Uiso   1.00
O695   O     0.16667   0.12844   0.81608   0.00000  Uiso   1.00
O696   O     0.16667   0.20489   0.81608   0.00000  Uiso   1.00
O697   O     0.16666   0.12844   0.68393   0.00000  Uiso   1.00
O698   O     0.24873   0.21609   0.85823   0.00000  Uiso   1.00
Zn699  Zn    0.16667   0.21771   0.75000   0.00000  Uiso   1.00
Zn700  Zn    0.16667   0.11563   0.75000   0.00000  Uiso   1.00
C701   C     0.41998   0.16668   0.75028   0.00000  Uiso   1.00
C702   C     0.37584   0.16664   0.75044   0.00000  Uiso   1.00
C703   C     0.52711   0.02402   0.77641   0.00000  Uiso   1.00
C704   C     0.47289   0.30932   0.72359   0.00000  Uiso   1.00
C705   C     0.47289   0.02394   0.72358   0.00000  Uiso   1.00
C706   C     0.52711   0.30940   0.77641   0.00000  Uiso   1.00
C707   C     0.49980   0.16658   0.66361   0.00000  Uiso   1.00
C708   C     0.50038   0.16675   0.83637   0.00000  Uiso   1.00
C709   C     0.53907   0.17430   0.90660   0.00000  Uiso   1.00
C710   C     0.46167   0.15592   0.59336   0.00000  Uiso   1.00
C711   C     0.50152   0.16702   0.88397   0.00000  Uiso   1.00
C712   C     0.58002   0.16664   0.75009   0.00000  Uiso   1.00
C713   C     0.49867   0.16616   0.61598   0.00000  Uiso   1.00
C714   C     0.46437   0.15863   0.90611   0.00000  Uiso   1.00
C715   C     0.53596   0.17382   0.59380   0.00000  Uiso   1.00
C716   C     0.46286   0.15885   0.95257   0.00000  Uiso   1.00
C717   C     0.53796   0.17098   0.54740   0.00000  Uiso   1.00
C718   C     0.50071   0.16490   0.97652   0.00000  Uiso   1.00
C719   C     0.50035   0.16363   0.52342   0.00000  Uiso   1.00
C720   C     0.53887   0.17272   0.95354   0.00000  Uiso   1.00
C721   C     0.46221   0.15574   0.54639   0.00000  Uiso   1.00
C722   C     0.42478   0.15224   0.97566   0.00000  Uiso   1.00
C723   C     0.42519   0.14993   0.52210   0.00000  Uiso   1.00
C724   C     0.57613   0.17715   0.52436   0.00000  Uiso   1.00
C725   C     0.57812   0.18187   0.88075   0.00000  Uiso   1.00
C726   C     0.42277   0.14686   0.61908   0.00000  Uiso   1.00
C727   C     0.38347   0.14914   0.95331   0.00000  Uiso   1.00
C728   C     0.61732   0.18060   0.54699   0.00000  Uiso   1.00
C729   C     0.57582   0.17906   0.97785   0.00000  Uiso   1.00
C730   C     0.35478   0.12739   0.73752   0.00000  Uiso   1.00
C731   C     0.64522   0.20584   0.76331   0.00000  Uiso   1.00
C732   C     0.64541   0.12736   0.73748   0.00000  Uiso   1.00
C733   C     0.35460   0.20586   0.76338   0.00000  Uiso   1.00
C734   C     0.62416   0.16661   0.75032   0.00000  Uiso   1.00
H735   H     0.43694   0.15153   0.88625   0.00000  Uiso   1.00
H736   H     0.54879   0.29128   0.79753   0.00000  Uiso   1.00
H737   H     0.63472   0.15824   0.86257   0.00000  Uiso   1.00
H738   H     0.37607   0.10346   0.63296   0.00000  Uiso   1.00
H739   H     0.66018   0.11939   0.95178   0.00000  Uiso   1.00
H740   H     0.34088   0.20971   0.54830   0.00000  Uiso   1.00
H741   H     0.39568   0.14554   0.53918   0.00000  Uiso   1.00
H742   H     0.60512   0.18485   0.96075   0.00000  Uiso   1.00
H743   H     0.56315   0.18227   0.61353   0.00000  Uiso   1.00
H744   H     0.37120   0.09704   0.72704   0.00000  Uiso   1.00
H745   H     0.62878   0.23621   0.77368   0.00000  Uiso   1.00
H746   H     0.62915   0.09700   0.72701   0.00000  Uiso   1.00
H747   H     0.37088   0.23622   0.77380   0.00000  Uiso   1.00
H748   H     0.54879   0.04221   0.79754   0.00000  Uiso   1.00
H749   H     0.45121   0.29113   0.70246   0.00000  Uiso   1.00
H750   H     0.45122   0.04207   0.70245   0.00000  Uiso   1.00
N751   N     0.50000   0.28573   0.75000   0.00000  Uiso   1.00
N752   N     0.50000   0.04760   0.75000   0.00000  Uiso   1.00
O753   O     0.43892   0.20487   0.74999   0.00000  Uiso   1.00
O754   O     0.60994   0.14951   0.88183   0.00000  Uiso   1.00
O755   O     0.40909   0.17546   0.64492   0.00000  Uiso   1.00
O756   O     0.40208   0.10559   0.61372   0.00000  Uiso   1.00
O757   O     0.37427   0.17513   0.92310   0.00000  Uiso   1.00
O758   O     0.35411   0.11789   0.96882   0.00000  Uiso   1.00
O759   O     0.62590   0.15572   0.57831   0.00000  Uiso   1.00
O760   O     0.64721   0.21085   0.53072   0.00000  Uiso   1.00
O761   O     0.56108   0.12846   0.75001   0.00000  Uiso   1.00
O762   O     0.56108   0.20487   0.75001   0.00000  Uiso   1.00
O763   O     0.43892   0.12846   0.75000   0.00000  Uiso   1.00
O764   O     0.49999   0.20489   0.68393   0.00000  Uiso   1.00
O765   O     0.50001   0.12844   0.81608   0.00000  Uiso   1.00
O766   O     0.50001   0.20489   0.81608   0.00000  Uiso   1.00
O767   O     0.49999   0.12844   0.68393   0.00000  Uiso   1.00
O768   O     0.58206   0.21609   0.85823   0.00000  Uiso   1.00
Zn769  Zn    0.50000   0.21771   0.75000   0.00000  Uiso   1.00
Zn770  Zn    0.50000   0.11563   0.75000   0.00000  Uiso   1.00
C771   C     0.75332   0.16668   0.75028   0.00000  Uiso   1.00
C772   C     0.70917   0.16664   0.75044   0.00000  Uiso   1.00
C773   C     0.86045   0.02402   0.77641   0.00000  Uiso   1.00
C774   C     0.80622   0.30932   0.72359   0.00000  Uiso   1.00
C775   C     0.80622   0.02394   0.72358   0.00000  Uiso   1.00
C776   C     0.86045   0.30940   0.77641   0.00000  Uiso   1.00
C777   C     0.83313   0.16658   0.66361   0.00000  Uiso   1.00
C778   C     0.83371   0.16675   0.83637   0.00000  Uiso   1.00
C779   C     0.87241   0.17430   0.90660   0.00000  Uiso   1.00
C780   C     0.79500   0.15592   0.59336   0.00000  Uiso   1.00
C781   C     0.83485   0.16702   0.88397   0.00000  Uiso   1.00
C782   C     0.91335   0.16664   0.75009   0.00000  Uiso   1.00
C783   C     0.83201   0.16616   0.61598   0.00000  Uiso   1.00
C784   C     0.79771   0.15863   0.90611   0.00000  Uiso   1.00
C785   C     0.86929   0.17382   0.59380   0.00000  Uiso   1.00
C786   C     0.79620   0.15885   0.95257   0.00000  Uiso   1.00
C787   C     0.87129   0.17098   0.54740   0.00000  Uiso   1.00
C788   C     0.83404   0.16490   0.97652   0.00000  Uiso   1.00
C789   C     0.83368   0.16363   0.52342   0.00000  Uiso   1.00
C790   C     0.87220   0.17272   0.95354   0.00000  Uiso   1.00
C791   C     0.79554   0.15574   0.54639   0.00000  Uiso   1.00
C792   C     0.75812   0.15224   0.97566   0.00000  Uiso   1.00
C793   C     0.75852   0.14993   0.52210   0.00000  Uiso   1.00
C794   C     0.90947   0.17715   0.52436   0.00000  Uiso   1.00
C795   C     0.91145   0.18187   0.88075   0.00000  Uiso   1.00
C796   C     0.75611   0.14686   0.61908   0.00000  Uiso   1.00
C797   C     0.71680   0.14914   0.95331   0.00000  Uiso   1.00
C798   C     0.95065   0.18060   0.54699   0.00000  Uiso   1.00
C799   C     0.90915   0.17906   0.97785   0.00000  Uiso   1.00
C800   C     0.68811   0.12739   0.73752   0.00000  Uiso   1.00
C801   C     0.97855   0.20584   0.76331   0.00000  Uiso   1.00
C802   C     0.97875   0.12736   0.73748   0.00000  Uiso   1.00
C803   C     0.68793   0.20586   0.76338   0.00000  Uiso   1.00
C804   C     0.95749   0.16661   0.75032   0.00000  Uiso   1.00
H805   H     0.77028   0.15153   0.88625   0.00000  Uiso   1.00
H806   H     0.88213   0.29128   0.79753   0.00000  Uiso   1.00
H807   H     0.96805   0.15824   0.86257   0.00000  Uiso   1.00
H808   H     0.70940   0.10346   0.63296   0.00000  Uiso   1.00
H809   H     0.99351   0.11939   0.95178   0.00000  Uiso   1.00
H810   H     0.67421   0.20971   0.54830   0.00000  Uiso   1.00
H811   H     0.72901   0.14554   0.53918   0.00000  Uiso   1.00
H812   H     0.93845   0.18485   0.96075   0.00000  Uiso   1.00
H813   H     0.89648   0.18227   0.61353   0.00000  Uiso   1.00
H814   H     0.70454   0.09704   0.72704   0.00000  Uiso   1.00
H815   H     0.96212   0.23621   0.77368   0.00000  Uiso   1.00
H816   H     0.96248   0.09700   0.72701   0.00000  Uiso   1.00
H817   H     0.70422   0.23622   0.77380   0.00000  Uiso   1.00
H818   H     0.88212   0.04221   0.79754   0.00000  Uiso   1.00
H819   H     0.78455   0.29113   0.70246   0.00000  Uiso   1.00
H820   H     0.78455   0.04207   0.70245   0.00000  Uiso   1.00
N821   N     0.83333   0.28573   0.75000   0.00000  Uiso   1.00
N822   N     0.83333   0.04760   0.75000   0.00000  Uiso   1.00
O823   O     0.77226   0.20487   0.74999   0.00000  Uiso   1.00
O824   O     0.94327   0.14951   0.88183   0.00000  Uiso   1.00
O825   O     0.74242   0.17546   0.64492   0.00000  Uiso   1.00
O826   O     0.73541   0.10559   0.61372   0.00000  Uiso   1.00
O827   O     0.70760   0.17513   0.92310   0.00000  Uiso   1.00
O828   O     0.68745   0.11789   0.96882   0.00000  Uiso   1.00
O829   O     0.95923   0.15572   0.57831   0.00000  Uiso   1.00
O830   O     0.98054   0.21085   0.53072   0.00000  Uiso   1.00
O831   O     0.89441   0.12846   0.75001   0.00000  Uiso   1.00
O832   O     0.89441   0.20487   0.75001   0.00000  Uiso   1.00
O833   O     0.77226   0.12846   0.75000   0.00000  Uiso   1.00
O834   O     0.83333   0.20489   0.68393   0.00000  Uiso   1.00
O835   O     0.83334   0.12844   0.81608   0.00000  Uiso   1.00
O836   O     0.83334   0.20489   0.81608   0.00000  Uiso   1.00
O837   O     0.83333   0.12844   0.68393   0.00000  Uiso   1.00
O838   O     0.91539   0.21609   0.85823   0.00000  Uiso   1.00
Zn839  Zn    0.83333   0.21771   0.75000   0.00000  Uiso   1.00
Zn840  Zn    0.83333   0.11563   0.75000   0.00000  Uiso   1.00
C841   C     0.08665   0.50001   0.75028   0.00000  Uiso   1.00
C842   C     0.04251   0.49998   0.75044   0.00000  Uiso   1.00
C843   C     0.19378   0.35735   0.77641   0.00000  Uiso   1.00
C844   C     0.13956   0.64265   0.72359   0.00000  Uiso   1.00
C845   C     0.13956   0.35727   0.72358   0.00000  Uiso   1.00
C846   C     0.19378   0.64273   0.77641   0.00000  Uiso   1.00
C847   C     0.16647   0.49991   0.66361   0.00000  Uiso   1.00
C848   C     0.16705   0.50009   0.83637   0.00000  Uiso   1.00
C849   C     0.20574   0.50763   0.90660   0.00000  Uiso   1.00
C850   C     0.12833   0.48926   0.59336   0.00000  Uiso   1.00
C851   C     0.16818   0.50036   0.88397   0.00000  Uiso   1.00
C852   C     0.24669   0.49998   0.75009   0.00000  Uiso   1.00
C853   C     0.16534   0.49949   0.61598   0.00000  Uiso   1.00
C854   C     0.13104   0.49196   0.90611   0.00000  Uiso   1.00
C855   C     0.20262   0.50715   0.59380   0.00000  Uiso   1.00
C856   C     0.12953   0.49218   0.95257   0.00000  Uiso   1.00
C857   C     0.20462   0.50431   0.54740   0.00000  Uiso   1.00
C858   C     0.16737   0.49823   0.97652   0.00000  Uiso   1.00
C859   C     0.16701   0.49697   0.52342   0.00000  Uiso   1.00
C860   C     0.20553   0.50605   0.95354   0.00000  Uiso   1.00
C861   C     0.12888   0.48908   0.54639   0.00000  Uiso   1.00
C862   C     0.09145   0.48558   0.97566   0.00000  Uiso   1.00
C863   C     0.09185   0.48326   0.52210   0.00000  Uiso   1.00
C864   C     0.24280   0.51049   0.52436   0.00000  Uiso   1.00
C865   C     0.24479   0.51520   0.88075   0.00000  Uiso   1.00
C866   C     0.08944   0.48019   0.61908   0.00000  Uiso   1.00
C867   C     0.05014   0.48247   0.95331   0.00000  Uiso   1.00
C868   C     0.28399   0.51394   0.54699   0.00000  Uiso   1.00
C869   C     0.24249   0.51239   0.97785   0.00000  Uiso   1.00
C870   C     0.02145   0.46072   0.73752   0.00000  Uiso   1.00
C871   C     0.31188   0.53918   0.76331   0.00000  Uiso   1.00
C872   C     0.31208   0.46070   0.73748   0.00000  Uiso   1.00
C873   C     0.02126   0.53919   0.76338   0.00000  Uiso   1.00
C874   C     0.29083   0.49994   0.75032   0.00000  Uiso   1.00
H875   H     0.10361   0.48486   0.88625   0.00000  Uiso   1.00
H876   H     0.21546   0.62461   0.79753   0.00000  Uiso   1.00
H877   H     0.30138   0.49157   0.86257   0.00000  Uiso   1.00
H878   H     0.04273   0.43679   0.63296   0.00000  Uiso   1.00
H879   H     0.32684   0.45273   0.95178   0.00000  Uiso   1.00
H880   H     0.00755   0.54304   0.54830   0.00000  Uiso   1.00
H881   H     0.06234   0.47888   0.53918   0.00000  Uiso   1.00
H882   H     0.27178   0.51819   0.96075   0.00000  Uiso   1.00
H883   H     0.22982   0.51560   0.61353   0.00000  Uiso   1.00
H884   H     0.03787   0.43038   0.72704   0.00000  Uiso   1.00
H885   H     0.29545   0.56955   0.77368   0.00000  Uiso   1.00
H886   H     0.29582   0.43033   0.72701   0.00000  Uiso   1.00
H887   H     0.03755   0.56956   0.77380   0.00000  Uiso   1.00
H888   H     0.21546   0.37554   0.79754   0.00000  Uiso   1.00
H889   H     0.11788   0.62446   0.70246   0.00000  Uiso   1.00
H890   H     0.11789   0.37540   0.70245   0.00000  Uiso   1.00
N891   N     0.16667   0.61907   0.75000   0.00000  Uiso   1.00
N892   N     0.16667   0.38093   0.75000   0.00000  Uiso   1.00
O893   O     0.10559   0.53821   0.74999   0.00000  Uiso   1.00
O894   O     0.27660   0.48285   0.88183   0.00000  Uiso   1.00
O895   O     0.07576   0.50879   0.64492   0.00000  Uiso   1.00
O896   O     0.06875   0.43892   0.61372   0.00000  Uiso   1.00
O897   O     0.04094   0.50847   0.92310   0.00000  Uiso   1.00
O898   O     0.02078   0.45122   0.96882   0.00000  Uiso   1.00
O899   O     0.29257   0.48906   0.57831   0.00000  Uiso   1.00
O900   O     0.31388   0.54418   0.53072   0.00000  Uiso   1.00
O901   O     0.22774   0.46179   0.75001   0.00000  Uiso   1.00
O902   O     0.22774   0.53821   0.75001   0.00000  Uiso   1.00
O903   O     0.10559   0.46179   0.75000   0.00000  Uiso   1.00
O904   O     0.16666   0.53823   0.68393   0.00000  Uiso   1.00
O905   O     0.16667   0.46177   0.81608   0.00000  Uiso   1.00
O906   O     0.16667   0.53823   0.81608   0.00000  Uiso   1.00
O907   O     0.16666   0.46177   0.68393   0.00000  Uiso   1.00
O908   O     0.24873   0.54942   0.85823   0.00000  Uiso   1.00
Zn909  Zn    0.16667   0.55104   0.75000   0.00000  Uiso   1.00
Zn910  Zn    0.16667   0.44896   0.75000   0.00000  Uiso   1.00
C911   C     0.41998   0.50001   0.75028   0.00000  Uiso   1.00
C912   C     0.37584   0.49998   0.75044   0.00000  Uiso   1.00
C913   C     0.52711   0.35735   0.77641   0.00000  Uiso   1.00
C914   C     0.47289   0.64265   0.72359   0.00000  Uiso   1.00
C915   C     0.47289   0.35727   0.72358   0.00000  Uiso   1.00
C916   C     0.52711   0.64273   0.77641   0.00000  Uiso   1.00
C917   C     0.49980   0.49991   0.66361   0.00000  Uiso   1.00
C918   C     0.50038   0.50009   0.83637   0.00000  Uiso   1.00
C919   C     0.53907   0.50763   0.90660   0.00000  Uiso   1.00
C920   C     0.46167   0.48926   0.59336   0.00000  Uiso   1.00
C921   C     0.50152   0.50036   0.88397   0.00000  Uiso   1.00
C922   C     0.58002   0.49998   0.75009   0.00000  Uiso   1.00
C923   C     0.49867   0.49949   0.61598   0.00000  Uiso   1.00
C924   C     0.46437   0.49196   0.90611   0.00000  Uiso   1.00
C925   C     0.53596   0.50715   0.59380   0.00000  Uiso   1.00
C926   C     0.46286   0.49218   0.95257   0.00000  Uiso   1.00
C927   C     0.53796   0.50431   0.54740   0.00000  Uiso   1.00
C928   C     0.50071   0.49823   0.97652   0.00000  Uiso   1.00
C929   C     0.50035   0.49697   0.52342   0.00000  Uiso   1.00
C930   C     0.53887   0.50605   0.95354   0.00000  Uiso   1.00
C931   C     0.46221   0.48908   0.54639   0.00000  Uiso   1.00
C932   C     0.42478   0.48558   0.97566   0.00000  Uiso   1.00
C933   C     0.42519   0.48326   0.52210   0.00000  Uiso   1.00
C934   C     0.57613   0.51049   0.52436   0.00000  Uiso   1.00
C935   C     0.57812   0.51520   0.88075   0.00000  Uiso   1.00
C936   C     0.42277   0.48019   0.61908   0.00000  Uiso   1.00
C937   C     0.38347   0.48247   0.95331   0.00000  Uiso   1.00
C938   C     0.61732   0.51394   0.54699   0.00000  Uiso   1.00
C939   C     0.57582   0.51239   0.97785   0.00000  Uiso   1.00
C940   C     0.35478   0.46072   0.73752   0.00000  Uiso   1.00
C941   C     0.64522   0.53918   0.76331   0.00000  Uiso   1.00
C942   C     0.64541   0.46070   0.73748   0.00000  Uiso   1.00
C943   C     0.35460   0.53919   0.76338   0.00000  Uiso   1.00
C944   C     0.62416   0.49994   0.75032   0.00000  Uiso   1.00
H945   H     0.43694   0.48486   0.88625   0.00000  Uiso   1.00
H946   H     0.54879   0.62461   0.79753   0.00000  Uiso   1.00
H947   H     0.63472   0.49157   0.86257   0.00000  Uiso   1.00
H948   H     0.37607   0.43679   0.63296   0.00000  Uiso   1.00
H949   H     0.66018   0.45273   0.95178   0.00000  Uiso   1.00
H950   H     0.34088   0.54304   0.54830   0.00000  Uiso   1.00
H951   H     0.39568   0.47888   0.53918   0.00000  Uiso   1.00
H952   H     0.60512   0.51819   0.96075   0.00000  Uiso   1.00
H953   H     0.56315   0.51560   0.61353   0.00000  Uiso   1.00
H954   H     0.37120   0.43038   0.72704   0.00000  Uiso   1.00
H955   H     0.62878   0.56955   0.77368   0.00000  Uiso   1.00
H956   H     0.62915   0.43033   0.72701   0.00000  Uiso   1.00
H957   H     0.37088   0.56956   0.77380   0.00000  Uiso   1.00
H958   H     0.54879   0.37554   0.79754   0.00000  Uiso   1.00
H959   H     0.45121   0.62446   0.70246   0.00000  Uiso   1.00
H960   H     0.45122   0.37540   0.70245   0.00000  Uiso   1.00
N961   N     0.50000   0.61907   0.75000   0.00000  Uiso   1.00
N962   N     0.50000   0.38093   0.75000   0.00000  Uiso   1.00
O963   O     0.43892   0.53821   0.74999   0.00000  Uiso   1.00
O964   O     0.60994   0.48285   0.88183   0.00000  Uiso   1.00
O965   O     0.40909   0.50879   0.64492   0.00000  Uiso   1.00
O966   O     0.40208   0.43892   0.61372   0.00000  Uiso   1.00
O967   O     0.37427   0.50847   0.92310   0.00000  Uiso   1.00
O968   O     0.35411   0.45122   0.96882   0.00000  Uiso   1.00
O969   O     0.62590   0.48906   0.57831   0.00000  Uiso   1.00
O970   O     0.64721   0.54418   0.53072   0.00000  Uiso   1.00
O971   O     0.56108   0.46179   0.75001   0.00000  Uiso   1.00
O972   O     0.56108   0.53821   0.75001   0.00000  Uiso   1.00
O973   O     0.43892   0.46179   0.75000   0.00000  Uiso   1.00
O974   O     0.49999   0.53823   0.68393   0.00000  Uiso   1.00
O975   O     0.50001   0.46177   0.81608   0.00000  Uiso   1.00
O976   O     0.50001   0.53823   0.81608   0.00000  Uiso   1.00
O977   O     0.49999   0.46177   0.68393   0.00000  Uiso   1.00
O978   O     0.58206   0.54942   0.85823   0.00000  Uiso   1.00
Zn979  Zn    0.50000   0.55104   0.75000   0.00000  Uiso   1.00
Zn980  Zn    0.50000   0.44896   0.75000   0.00000  Uiso   1.00
C981   C     0.75332   0.50001   0.75028   0.00000  Uiso   1.00
C982   C     0.70917   0.49998   0.75044   0.00000  Uiso   1.00
C983   C     0.86045   0.35735   0.77641   0.00000  Uiso   1.00
C984   C     0.80622   0.64265   0.72359   0.00000  Uiso   1.00
C985   C     0.80622   0.35727   0.72358   0.00000  Uiso   1.00
C986   C     0.86045   0.64273   0.77641   0.00000  Uiso   1.00
C987   C     0.83313   0.49991   0.66361   0.00000  Uiso   1.00
C988   C     0.83371   0.50009   0.83637   0.00000  Uiso   1.00
C989   C     0.87241   0.50763   0.90660   0.00000  Uiso   1.00
C990   C     0.79500   0.48926   0.59336   0.00000  Uiso   1.00
C991   C     0.83485   0.50036   0.88397   0.00000  Uiso   1.00
C992   C     0.91335   0.49998   0.75009   0.00000  Uiso   1.00
C993   C     0.83201   0.49949   0.61598   0.00000  Uiso   1.00
C994   C     0.79771   0.49196   0.90611   0.00000  Uiso   1.00
C995   C     0.86929   0.50715   0.59380   0.00000  Uiso   1.00
C996   C     0.79620   0.49218   0.95257   0.00000  Uiso   1.00
C997   C     0.87129   0.50431   0.54740   0.00000  Uiso   1.00
C998   C     0.83404   0.49823   0.97652   0.00000  Uiso   1.00
C999   C     0.83368   0.49697   0.52342   0.00000  Uiso   1.00
C1000  C     0.87220   0.50605   0.95354   0.00000  Uiso   1.00
C1001  C     0.79554   0.48908   0.54639   0.00000  Uiso   1.00
C1002  C     0.75812   0.48558   0.97566   0.00000  Uiso   1.00
C1003  C     0.75852   0.48326   0.52210   0.00000  Uiso   1.00
C1004  C     0.90947   0.51049   0.52436   0.00000  Uiso   1.00
C1005  C     0.91145   0.51520   0.88075   0.00000  Uiso   1.00
C1006  C     0.75611   0.48019   0.61908   0.00000  Uiso   1.00
C1007  C     0.71680   0.48247   0.95331   0.00000  Uiso   1.00
C1008  C     0.95065   0.51394   0.54699   0.00000  Uiso   1.00
C1009  C     0.90915   0.51239   0.97785   0.00000  Uiso   1.00
C1010  C     0.68811   0.46072   0.73752   0.00000  Uiso   1.00
C1011  C     0.97855   0.53918   0.76331   0.00000  Uiso   1.00
C1012  C     0.97875   0.46070   0.73748   0.00000  Uiso   1.00
C1013  C     0.68793   0.53919   0.76338   0.00000  Uiso   1.00
C1014  C     0.95749   0.49994   0.75032   0.00000  Uiso   1.00
H1015  H     0.77028   0.48486   0.88625   0.00000  Uiso   1.00
H1016  H     0.88213   0.62461   0.79753   0.00000  Uiso   1.00
H1017  H     0.96805   0.49157   0.86257   0.00000  Uiso   1.00
H1018  H     0.70940   0.43679   0.63296   0.00000  Uiso   1.00
H1019  H     0.99351   0.45273   0.95178   0.00000  Uiso   1.00
H1020  H     0.67421   0.54304   0.54830   0.00000  Uiso   1.00
H1021  H     0.72901   0.47888   0.53918   0.00000  Uiso   1.00
H1022  H     0.93845   0.51819   0.96075   0.00000  Uiso   1.00
H1023  H     0.89648   0.51560   0.61353   0.00000  Uiso   1.00
H1024  H     0.70454   0.43038   0.72704   0.00000  Uiso   1.00
H1025  H     0.96212   0.56955   0.77368   0.00000  Uiso   1.00
H1026  H     0.96248   0.43033   0.72701   0.00000  Uiso   1.00
H1027  H     0.70422   0.56956   0.77380   0.00000  Uiso   1.00
H1028  H     0.88212   0.37554   0.79754   0.00000  Uiso   1.00
H1029  H     0.78455   0.62446   0.70246   0.00000  Uiso   1.00
H1030  H     0.78455   0.37540   0.70245   0.00000  Uiso   1.00
N1031  N     0.83333   0.61907   0.75000   0.00000  Uiso   1.00
N1032  N     0.83333   0.38093   0.75000   0.00000  Uiso   1.00
O1033  O     0.77226   0.53821   0.74999   0.00000  Uiso   1.00
O1034  O     0.94327   0.48285   0.88183   0.00000  Uiso   1.00
O1035  O     0.74242   0.50879   0.64492   0.00000  Uiso   1.00
O1036  O     0.73541   0.43892   0.61372   0.00000  Uiso   1.00
O1037  O     0.70760   0.50847   0.92310   0.00000  Uiso   1.00
O1038  O     0.68745   0.45122   0.96882   0.00000  Uiso   1.00
O1039  O     0.95923   0.48906   0.57831   0.00000  Uiso   1.00
O1040  O     0.98054   0.54418   0.53072   0.00000  Uiso   1.00
O1041  O     0.89441   0.46179   0.75001   0.00000  Uiso   1.00
O1042  O     0.89441   0.53821   0.75001   0.00000  Uiso   1.00
O1043  O     0.77226   0.46179   0.75000   0.00000  Uiso   1.00
O1044  O     0.83333   0.53823   0.68393   0.00000  Uiso   1.00
O1045  O     0.83334   0.46177   0.81608   0.00000  Uiso   1.00
O1046  O     0.83334   0.53823   0.81608   0.00000  Uiso   1.00
O1047  O     0.83333   0.46177   0.68393   0.00000  Uiso   1.00
O1048  O     0.91539   0.54942   0.85823   0.00000  Uiso   1.00
Zn1049 Zn    0.83333   0.55104   0.75000   0.00000  Uiso   1.00
Zn1050 Zn    0.83333   0.44896   0.75000   0.00000  Uiso   1.00
C1051  C     0.08665   0.83335   0.75028   0.00000  Uiso   1.00
C1052  C     0.04251   0.83331   0.75044   0.00000  Uiso   1.00
C1053  C     0.19378   0.69068   0.77641   0.00000  Uiso   1.00
C1054  C     0.13956   0.97599   0.72359   0.00000  Uiso   1.00
C1055  C     0.13956   0.69061   0.72358   0.00000  Uiso   1.00
C1056  C     0.19378   0.97607   0.77641   0.00000  Uiso   1.00
C1057  C     0.16647   0.83324   0.66361   0.00000  Uiso   1.00
C1058  C     0.16705   0.83342   0.83637   0.00000  Uiso   1.00
C1059  C     0.20574   0.84096   0.90660   0.00000  Uiso   1.00
C1060  C     0.12833   0.82259   0.59336   0.00000  Uiso   1.00
C1061  C     0.16818   0.83369   0.88397   0.00000  Uiso   1.00
C1062  C     0.24669   0.83331   0.75009   0.00000  Uiso   1.00
C1063  C     0.16534   0.83282   0.61598   0.00000  Uiso   1.00
C1064  C     0.13104   0.82530   0.90611   0.00000  Uiso   1.00
C1065  C     0.20262   0.84049   0.59380   0.00000  Uiso   1.00
C1066  C     0.12953   0.82551   0.95257   0.00000  Uiso   1.00
C1067  C     0.20462   0.83764   0.54740   0.00000  Uiso   1.00
C1068  C     0.16737   0.83156   0.97652   0.00000  Uiso   1.00
C1069  C     0.16701   0.83030   0.52342   0.00000  Uiso   1.00
C1070  C     0.20553   0.83939   0.95354   0.00000  Uiso   1.00
C1071  C     0.12888   0.82241   0.54639   0.00000  Uiso   1.00
C1072  C     0.09145   0.81891   0.97566   0.00000  Uiso   1.00
C1073  C     0.09185   0.81660   0.52210   0.00000  Uiso   1.00
C1074  C     0.24280   0.84382   0.52436   0.00000  Uiso   1.00
C1075  C     0.24479   0.84854   0.88075   0.00000  Uiso   1.00
C1076  C     0.08944   0.81352   0.61908   0.00000  Uiso   1.00
C1077  C     0.05014   0.81580   0.95331   0.00000  Uiso   1.00
C1078  C     0.28399   0.84727   0.54699   0.00000  Uiso   1.00
C1079  C     0.24249   0.84572   0.97785   0.00000  Uiso   1.00
C1080  C     0.02145   0.79405   0.73752   0.00000  Uiso   1.00
C1081  C     0.31188   0.87251   0.76331   0.00000  Uiso   1.00
C1082  C     0.31208   0.79403   0.73748   0.00000  Uiso   1.00
C1083  C     0.02126   0.87252   0.76338   0.00000  Uiso   1.00
C1084  C     0.29083   0.83327   0.75032   0.00000  Uiso   1.00
H1085  H     0.10361   0.81820   0.88625   0.00000  Uiso   1.00
H1086  H     0.21546   0.95794   0.79753   0.00000  Uiso   1.00
H1087  H     0.30138   0.82490   0.86257   0.00000  Uiso   1.00
H1088  H     0.04273   0.77013   0.63296   0.00000  Uiso   1.00
H1089  H     0.32684   0.78606   0.95178   0.00000  Uiso   1.00
H1090  H     0.00755   0.87638   0.54830   0.00000  Uiso   1.00
H1091  H     0.06234   0.81221   0.53918   0.00000  Uiso   1.00
H1092  H     0.27178   0.85152   0.96075   0.00000  Uiso   1.00
H1093  H     0.22982   0.84893   0.61353   0.00000  Uiso   1.00
H1094  H     0.03787   0.76371   0.72704   0.00000  Uiso   1.00
H1095  H     0.29545   0.90288   0.77368   0.00000  Uiso   1.00
H1096  H     0.29582   0.76367   0.72701   0.00000  Uiso   1.00
H1097  H     0.03755   0.90289   0.77380   0.00000  Uiso   1.00
H1098  H     0.21546   0.70887   0.79754   0.00000  Uiso   1.00
H1099  H     0.11788   0.95780   0.70246   0.00000  Uiso   1.00
H1100  H     0.11789   0.70873   0.70245   0.00000  Uiso   1.00
N1101  N     0.16667   0.95240   0.75000   0.00000  Uiso   1.00
N1102  N     0.16667   0.71427   0.75000   0.00000  Uiso   1.00
O1103  O     0.10559   0.87154   0.74999   0.00000  Uiso   1.00
O1104  O     0.27660   0.81618   0.88183   0.00000  Uiso   1.00
O1105  O     0.07576   0.84212   0.64492   0.00000  Uiso   1.00
O1106  O     0.06875   0.77225   0.61372   0.00000  Uiso   1.00
O1107  O     0.04094   0.84180   0.92310   0.00000  Uiso   1.00
O1108  O     0.02078   0.78455   0.96882   0.00000  Uiso   1.00
O1109  O     0.29257   0.82239   0.57831   0.00000  Uiso   1.00
O1110  O     0.31388   0.87752   0.53072   0.00000  Uiso   1.00
O1111  O     0.22774   0.79513   0.75001   0.00000  Uiso   1.00
O1112  O     0.22774   0.87154   0.75001   0.00000  Uiso   1.00
O1113  O     0.10559   0.79513   0.75000   0.00000  Uiso   1.00
O1114  O     0.16666   0.87156   0.68393   0.00000  Uiso   1.00
O1115  O     0.16667   0.79511   0.81608   0.00000  Uiso   1.00
O1116  O     0.16667   0.87156   0.81608   0.00000  Uiso   1.00
O1117  O     0.16666   0.79511   0.68393   0.00000  Uiso   1.00
O1118  O     0.24873   0.88276   0.85823   0.00000  Uiso   1.00
Zn1119 Zn    0.16667   0.88437   0.75000   0.00000  Uiso   1.00
Zn1120 Zn    0.16667   0.78229   0.75000   0.00000  Uiso   1.00
C1121  C     0.41998   0.83335   0.75028   0.00000  Uiso   1.00
C1122  C     0.37584   0.83331   0.75044   0.00000  Uiso   1.00
C1123  C     0.52711   0.69068   0.77641   0.00000  Uiso   1.00
C1124  C     0.47289   0.97599   0.72359   0.00000  Uiso   1.00
C1125  C     0.47289   0.69061   0.72358   0.00000  Uiso   1.00
C1126  C     0.52711   0.97607   0.77641   0.00000  Uiso   1.00
C1127  C     0.49980   0.83324   0.66361   0.00000  Uiso   1.00
C1128  C     0.50038   0.83342   0.83637   0.00000  Uiso   1.00
C1129  C     0.53907   0.84096   0.90660   0.00000  Uiso   1.00
C1130  C     0.46167   0.82259   0.59336   0.00000  Uiso   1.00
C1131  C     0.50152   0.83369   0.88397   0.00000  Uiso   1.00
C1132  C     0.58002   0.83331   0.75009   0.00000  Uiso   1.00
C1133  C     0.49867   0.83282   0.61598   0.00000  Uiso   1.00
C1134  C     0.46437   0.82530   0.90611   0.00000  Uiso   1.00
C1135  C     0.53596   0.84049   0.59380   0.00000  Uiso   1.00
C1136  C     0.46286   0.82551   0.95257   0.00000  Uiso   1.00
C1137  C     0.53796   0.83764   0.54740   0.00000  Uiso   1.00
C1138  C     0.50071   0.83156   0.97652   0.00000  Uiso   1.00
C1139  C     0.50035   0.83030   0.52342   0.00000  Uiso   1.00
C1140  C     0.53887   0.83939   0.95354   0.00000  Uiso   1.00
C1141  C     0.46221   0.82241   0.54639   0.00000  Uiso   1.00
C1142  C     0.42478   0.81891   0.97566   0.00000  Uiso   1.00
C1143  C     0.42519   0.81660   0.52210   0.00000  Uiso   1.00
C1144  C     0.57613   0.84382   0.52436   0.00000  Uiso   1.00
C1145  C     0.57812   0.84854   0.88075   0.00000  Uiso   1.00
C1146  C     0.42277   0.81352   0.61908   0.00000  Uiso   1.00
C1147  C     0.38347   0.81580   0.95331   0.00000  Uiso   1.00
C1148  C     0.61732   0.84727   0.54699   0.00000  Uiso   1.00
C1149  C     0.57582   0.84572   0.97785   0.00000  Uiso   1.00
C1150  C     0.35478   0.79405   0.73752   0.00000  Uiso   1.00
C1151  C     0.64522   0.87251   0.76331   0.00000  Uiso   1.00
C1152  C     0.64541   0.79403   0.73748   0.00000  Uiso   1.00
C1153  C     0.35460   0.87252   0.76338   0.00000  Uiso   1.00
C1154  C     0.62416   0.83327   0.75032   0.00000  Uiso   1.00
H1155  H     0.43694   0.81820   0.88625   0.00000  Uiso   1.00
H1156  H     0.54879   0.95794   0.79753   0.00000  Uiso   1.00
H1157  H     0.63472   0.82490   0.86257   0.00000  Uiso   1.00
H1158  H     0.37607   0.77013   0.63296   0.00000  Uiso   1.00
H1159  H     0.66018   0.78606   0.95178   0.00000  Uiso   1.00
H1160  H     0.34088   0.87638   0.54830   0.00000  Uiso   1.00
H1161  H     0.39568   0.81221   0.53918   0.00000  Uiso   1.00
H1162  H     0.60512   0.85152   0.96075   0.00000  Uiso   1.00
H1163  H     0.56315   0.84893   0.61353   0.00000  Uiso   1.00
H1164  H     0.37120   0.76371   0.72704   0.00000  Uiso   1.00
H1165  H     0.62878   0.90288   0.77368   0.00000  Uiso   1.00
H1166  H     0.62915   0.76367   0.72701   0.00000  Uiso   1.00
H1167  H     0.37088   0.90289   0.77380   0.00000  Uiso   1.00
H1168  H     0.54879   0.70887   0.79754   0.00000  Uiso   1.00
H1169  H     0.45121   0.95780   0.70246   0.00000  Uiso   1.00
H1170  H     0.45122   0.70873   0.70245   0.00000  Uiso   1.00
N1171  N     0.50000   0.95240   0.75000   0.00000  Uiso   1.00
N1172  N     0.50000   0.71427   0.75000   0.00000  Uiso   1.00
O1173  O     0.43892   0.87154   0.74999   0.00000  Uiso   1.00
O1174  O     0.60994   0.81618   0.88183   0.00000  Uiso   1.00
O1175  O     0.40909   0.84212   0.64492   0.00000  Uiso   1.00
O1176  O     0.40208   0.77225   0.61372   0.00000  Uiso   1.00
O1177  O     0.37427   0.84180   0.92310   0.00000  Uiso   1.00
O1178  O     0.35411   0.78455   0.96882   0.00000  Uiso   1.00
O1179  O     0.62590   0.82239   0.57831   0.00000  Uiso   1.00
O1180  O     0.64721   0.87752   0.53072   0.00000  Uiso   1.00
O1181  O     0.56108   0.79513   0.75001   0.00000  Uiso   1.00
O1182  O     0.56108   0.87154   0.75001   0.00000  Uiso   1.00
O1183  O     0.43892   0.79513   0.75000   0.00000  Uiso   1.00
O1184  O     0.49999   0.87156   0.68393   0.00000  Uiso   1.00
O1185  O     0.50001   0.79511   0.81608   0.00000  Uiso   1.00
O1186  O     0.50001   0.87156   0.81608   0.00000  Uiso   1.00
O1187  O     0.49999   0.79511   0.68393   0.00000  Uiso   1.00
O1188  O     0.58206   0.88276   0.85823   0.00000  Uiso   1.00
Zn1189 Zn    0.50000   0.88437   0.75000   0.00000  Uiso   1.00
Zn1190 Zn    0.50000   0.78229   0.75000   0.00000  Uiso   1.00
C1191  C     0.75332   0.83335   0.75028   0.00000  Uiso   1.00
C1192  C     0.70917   0.83331   0.75044   0.00000  Uiso   1.00
C1193  C     0.86045   0.69068   0.77641   0.00000  Uiso   1.00
C1194  C     0.80622   0.97599   0.72359   0.00000  Uiso   1.00
C1195  C     0.80622   0.69061   0.72358   0.00000  Uiso   1.00
C1196  C     0.86045   0.97607   0.77641   0.00000  Uiso   1.00
C1197  C     0.83313   0.83324   0.66361   0.00000  Uiso   1.00
C1198  C     0.83371   0.83342   0.83637   0.00000  Uiso   1.00
C1199  C     0.87241   0.84096   0.90660   0.00000  Uiso   1.00
C1200  C     0.79500   0.82259   0.59336   0.00000  Uiso   1.00
C1201  C     0.83485   0.83369   0.88397   0.00000  Uiso   1.00
C1202  C     0.91335   0.83331   0.75009   0.00000  Uiso   1.00
C1203  C     0.83201   0.83282   0.61598   0.00000  Uiso   1.00
C1204  C     0.79771   0.82530   0.90611   0.00000  Uiso   1.00
C1205  C     0.86929   0.84049   0.59380   0.00000  Uiso   1.00
C1206  C     0.79620   0.82551   0.95257   0.00000  Uiso   1.00
C1207  C     0.87129   0.83764   0.54740   0.00000  Uiso   1.00
C1208  C     0.83404   0.83156   0.97652   0.00000  Uiso   1.00
C1209  C     0.83368   0.83030   0.52342   0.00000  Uiso   1.00
C1210  C     0.87220   0.83939   0.95354   0.00000  Uiso   1.00
C1211  C     0.79554   0.82241   0.54639   0.00000  Uiso   1.00
C1212  C     0.75812   0.81891   0.97566   0.00000  Uiso   1.00
C1213  C     0.75852   0.81660   0.52210   0.00000  Uiso   1.00
C1214  C     0.90947   0.84382   0.52436   0.00000  Uiso   1.00
C1215  C     0.91145   0.84854   0.88075   0.00000  Uiso   1.00
C1216  C     0.75611   0.81352   0.61908   0.00000  Uiso   1.00
C1217  C     0.71680   0.81580   0.95331   0.00000  Uiso   1.00
C1218  C     0.95065   0.84727   0.54699   0.00000  Uiso   1.00
C1219  C     0.90915   0.84572   0.97785   0.00000  Uiso   1.00
C1220  C     0.68811   0.79405   0.73752   0.00000  Uiso   1.00
C1221  C     0.97855   0.87251   0.76331   0.00000  Uiso   1.00
C1222  C     0.97875   0.79403   0.73748   0.00000  Uiso   1.00
C1223  C     0.68793   0.87252   0.76338   0.00000  Uiso   1.00
C1224  C     0.95749   0.83327   0.75032   0.00000  Uiso   1.00
H1225  H     0.77028   0.81820   0.88625   0.00000  Uiso   1.00
H1226  H     0.88213   0.95794   0.79753   0.00000  Uiso   1.00
H1227  H     0.96805   0.82490   0.86257   0.00000  Uiso   1.00
H1228  H     0.70940   0.77013   0.63296   0.00000  Uiso   1.00
H1229  H     0.99351   0.78606   0.95178   0.00000  Uiso   1.00
H1230  H     0.67421   0.87638   0.54830   0.00000  Uiso   1.00
H1231  H     0.72901   0.81221   0.53918   0.00000  Uiso   1.00
H1232  H     0.93845   0.85152   0.96075   0.00000  Uiso   1.00
H1233  H     0.89648   0.84893   0.61353   0.00000  Uiso   1.00
H1234  H     0.70454   0.76371   0.72704   0.00000  Uiso   1.00
H1235  H     0.96212   0.90288   0.77368   0.00000  Uiso   1.00
H1236  H     0.96248   0.76367   0.72701   0.00000  Uiso   1.00
H1237  H     0.70422   0.90289   0.77380   0.00000  Uiso   1.00
H1238  H     0.88212   0.70887   0.79754   0.00000  Uiso   1.00
H1239  H     0.78455   0.95780   0.70246   0.00000  Uiso   1.00
H1240  H     0.78455   0.70873   0.70245   0.00000  Uiso   1.00
N1241  N     0.83333   0.95240   0.75000   0.00000  Uiso   1.00
N1242  N     0.83333   0.71427   0.75000   0.00000  Uiso   1.00
O1243  O     0.77226   0.87154   0.74999   0.00000  Uiso   1.00
O1244  O     0.94327   0.81618   0.88183   0.00000  Uiso   1.00
O1245  O     0.74242   0.84212   0.64492   0.00000  Uiso   1.00
O1246  O     0.73541   0.77225   0.61372   0.00000  Uiso   1.00
O1247  O     0.70760   0.84180   0.92310   0.00000  Uiso   1.00
O1248  O     0.68745   0.78455   0.96882   0.00000  Uiso   1.00
O1249  O     0.95923   0.82239   0.57831   0.00000  Uiso   1.00
O1250  O     0.98054   0.87752   0.53072   0.00000  Uiso   1.00
O1251  O     0.89441   0.79513   0.75001   0.00000  Uiso   1.00
O1252  O     0.89441   0.87154   0.75001   0.00000  Uiso   1.00
O1253  O     0.77226   0.79513   0.75000   0.00000  Uiso   1.00
O1254  O     0.83333   0.87156   0.68393   0.00000  Uiso   1.00
O1255  O     0.83334   0.79511   0.81608   0.00000  Uiso   1.00
O1256  O     0.83334   0.87156   0.81608   0.00000  Uiso   1.00
O1257  O     0.83333   0.79511   0.68393   0.00000  Uiso   1.00
O1258  O     0.91539   0.88276   0.85823   0.00000  Uiso   1.00
Zn1259 Zn    0.83333   0.88437   0.75000   0.00000  Uiso   1.00
Zn1260 Zn    0.83333   0.78229   0.75000   0.00000  Uiso   1.00
loop_
_geom_bond_atom_site_label_1
_geom_bond_atom_site_label_2
_geom_bond_distance
_geom_bond_site_symmetry_2
_ccdc_geom_bond_type
C1     O63     1.281   .     A
C1     C2      1.415   .     S
C1     O53     1.282   .     A
C2     C30     1.397   .     A
C2     C33     1.396   .     A
C3     N52     1.366   .     A
C3     H48     1.082   .     S
C3     C426    1.417   1_545 S
C4     H49     1.082   .     S
C4     N51     1.367   .     A
C4     C215    1.417   .     S
C5     N52     1.366   .     A
C5     H50     1.082   .     S
C5     C424    1.417   1_545 S
C6     N51     1.366   .     A
C6     H36     1.082   .     S
C6     C213    1.417   .     S
C7     O64     1.283   .     A
C7     C13     1.422   .     S
C7     O67     1.281   .     A
C8     O66     1.281   .     A
C8     O65     1.282   .     A
C8     C11     1.421   .     S
C9     C20     1.402   .     A
C9     C25     1.487   .     S
C9     C11     1.399   .     A
C10    C26     1.488   .     S
C10    C21     1.402   .     A
C10    C13     1.399   .     A
C11    C14     1.384   .     A
C12    O62     1.282   .     A
C12    C34     1.415   .     S
C12    O61     1.282   .     A
C13    C15     1.385   .     A
C14    C16     1.388   .     A
C14    H35     1.082   .     S
C15    H43     1.082   .     S
C15    C17     1.389   .     A
C16    C18     1.421   .     A
C16    C22     1.415   .     A
C17    C19     1.420   .     A
C17    C24     1.415   .     A
C18    C20     1.421   .     A
C18    C649    1.401   .     S
C19    C21     1.421   .     A
C19    C648    1.401   1_554 S
C20    C29     1.403   .     A
C21    C23     1.403   .     A
C22    C27     1.487   .     S
C22    C653    1.389   .     S
C23    H41     1.082   .     S
C23    C652    1.389   1_554 S
C24    C28     1.488   .     S
C24    C659    1.390   1_554 S
C25    O68     1.222   .     D
C25    O54     1.397   .     S
C26    O55     1.222   .     D
C26    O56     1.398   .     S
C27    O57     1.223   .     D
C27    O58     1.399   .     S
C28    O60     1.399   .     S
C28    O59     1.223   .     D
C29    H42     1.082   .     S
C29    C654    1.390   .     S
C30    H44     1.084   .     S
C30    C172    1.369   1_455 S
C31    C34     1.397   .     A
C31    H45     1.084   .     S
C31    C103    1.369   .     S
C32    H46     1.084   .     S
C32    C34     1.396   .     A
C32    C100    1.369   .     S
C33    H47     1.084   .     S
C33    C171    1.369   1_455 S
H37    O54     1.014   .     S
H38    O56     1.014   .     S
H39    O128    1.013   .     S
H40    O200    1.014   1_455 S
N51    Zn69    2.010   .     S
N52    Zn70    2.010   .     S
O53    Zn69    1.995   .     S
O58    H179    1.013   1_455 S
O60    H110    1.014   .     S
O61    Zn70    1.995   .     S
O62    Zn69    1.994   .     S
O63    Zn70    1.994   .     S
O64    Zn69    2.007   .     S
O65    Zn70    2.007   .     S
O66    Zn69    2.010   .     S
O67    Zn70    2.010   .     S
C71    O133    1.281   .     A
C71    C72     1.415   .     S
C71    O123    1.282   .     A
C72    C100    1.397   .     A
C72    C103    1.396   .     A
C73    N122    1.366   .     A
C73    H118    1.082   .     S
C73    C496    1.417   1_545 S
C74    H119    1.082   .     S
C74    N121    1.367   .     A
C74    C285    1.417   .     S
C75    N122    1.366   .     A
C75    H120    1.082   .     S
C75    C494    1.417   1_545 S
C76    N121    1.366   .     A
C76    H106    1.082   .     S
C76    C283    1.417   .     S
C77    O134    1.283   .     A
C77    C83     1.422   .     S
C77    O137    1.281   .     A
C78    O136    1.281   .     A
C78    O135    1.282   .     A
C78    C81     1.421   .     S
C79    C90     1.402   .     A
C79    C95     1.487   .     S
C79    C81     1.399   .     A
C80    C96     1.488   .     S
C80    C91     1.402   .     A
C80    C83     1.399   .     A
C81    C84     1.384   .     A
C82    O132    1.282   .     A
C82    C104    1.415   .     S
C82    O131    1.282   .     A
C83    C85     1.385   .     A
C84    C86     1.388   .     A
C84    H105    1.082   .     S
C85    H113    1.082   .     S
C85    C87     1.389   .     A
C86    C88     1.421   .     A
C86    C92     1.415   .     A
C87    C89     1.420   .     A
C87    C94     1.415   .     A
C88    C90     1.421   .     A
C88    C719    1.401   .     S
C89    C91     1.421   .     A
C89    C718    1.401   1_554 S
C90    C99     1.403   .     A
C91    C93     1.403   .     A
C92    C97     1.487   .     S
C92    C723    1.389   .     S
C93    H111    1.082   .     S
C93    C722    1.389   1_554 S
C94    C98     1.488   .     S
C94    C729    1.390   1_554 S
C95    O138    1.222   .     D
C95    O124    1.397   .     S
C96    O125    1.222   .     D
C96    O126    1.398   .     S
C97    O127    1.223   .     D
C97    O128    1.399   .     S
C98    O130    1.399   .     S
C98    O129    1.223   .     D
C99    H112    1.082   .     S
C99    C724    1.390   .     S
C100   H114    1.084   .     S
C101   C104    1.397   .     A
C101   H115    1.084   .     S
C101   C173    1.369   .     S
C102   H116    1.084   .     S
C102   C104    1.396   .     A
C102   C170    1.369   .     S
C103   H117    1.084   .     S
H107   O124    1.014   .     S
H108   O126    1.014   .     S
H109   O198    1.013   .     S
N121   Zn139   2.010   .     S
N122   Zn140   2.010   .     S
O123   Zn139   1.995   .     S
O130   H180    1.014   .     S
O131   Zn140   1.995   .     S
O132   Zn139   1.994   .     S
O133   Zn140   1.994   .     S
O134   Zn139   2.007   .     S
O135   Zn140   2.007   .     S
O136   Zn139   2.010   .     S
O137   Zn140   2.010   .     S
C141   O203    1.281   .     A
C141   C142    1.415   .     S
C141   O193    1.282   .     A
C142   C170    1.397   .     A
C142   C173    1.396   .     A
C143   N192    1.366   .     A
C143   H188    1.082   .     S
C143   C566    1.417   1_545 S
C144   H189    1.082   .     S
C144   N191    1.367   .     A
C144   C355    1.417   .     S
C145   N192    1.366   .     A
C145   H190    1.082   .     S
C145   C564    1.417   1_545 S
C146   N191    1.366   .     A
C146   H176    1.082   .     S
C146   C353    1.417   .     S
C147   O204    1.283   .     A
C147   C153    1.422   .     S
C147   O207    1.281   .     A
C148   O206    1.281   .     A
C148   O205    1.282   .     A
C148   C151    1.421   .     S
C149   C160    1.402   .     A
C149   C165    1.487   .     S
C149   C151    1.399   .     A
C150   C166    1.488   .     S
C150   C161    1.402   .     A
C150   C153    1.399   .     A
C151   C154    1.384   .     A
C152   O202    1.282   .     A
C152   C174    1.415   .     S
C152   O201    1.282   .     A
C153   C155    1.385   .     A
C154   C156    1.388   .     A
C154   H175    1.082   .     S
C155   H183    1.082   .     S
C155   C157    1.389   .     A
C156   C158    1.421   .     A
C156   C162    1.415   .     A
C157   C159    1.420   .     A
C157   C164    1.415   .     A
C158   C160    1.421   .     A
C158   C789    1.401   .     S
C159   C161    1.421   .     A
C159   C788    1.401   1_554 S
C160   C169    1.403   .     A
C161   C163    1.403   .     A
C162   C167    1.487   .     S
C162   C793    1.389   .     S
C163   H181    1.082   .     S
C163   C792    1.389   1_554 S
C164   C168    1.488   .     S
C164   C799    1.390   1_554 S
C165   O208    1.222   .     D
C165   O194    1.397   .     S
C166   O195    1.222   .     D
C166   O196    1.398   .     S
C167   O197    1.223   .     D
C167   O198    1.399   .     S
C168   O200    1.399   .     S
C168   O199    1.223   .     D
C169   H182    1.082   .     S
C169   C794    1.390   .     S
C170   H184    1.084   .     S
C171   C174    1.397   .     A
C171   H185    1.084   .     S
C171   C33     1.369   1_655 S
C172   H186    1.084   .     S
C172   C174    1.396   .     A
C172   C30     1.369   1_655 S
C173   H187    1.084   .     S
H177   O194    1.014   .     S
H178   O196    1.014   .     S
H179   O58     1.013   1_655 S
N191   Zn209   2.010   .     S
N192   Zn210   2.010   .     S
O193   Zn209   1.995   .     S
O200   H40     1.014   1_655 S
O201   Zn210   1.995   .     S
O202   Zn209   1.994   .     S
O203   Zn210   1.994   .     S
O204   Zn209   2.007   .     S
O205   Zn210   2.007   .     S
O206   Zn209   2.010   .     S
O207   Zn210   2.010   .     S
C211   O273    1.281   .     A
C211   C212    1.415   .     S
C211   O263    1.282   .     A
C212   C240    1.397   .     A
C212   C243    1.396   .     A
C213   N262    1.366   .     A
C213   H258    1.082   .     S
C214   H259    1.082   .     S
C214   N261    1.367   .     A
C214   C425    1.417   .     S
C215   N262    1.366   .     A
C215   H260    1.082   .     S
C216   N261    1.366   .     A
C216   H246    1.082   .     S
C216   C423    1.417   .     S
C217   O274    1.283   .     A
C217   C223    1.422   .     S
C217   O277    1.281   .     A
C218   O276    1.281   .     A
C218   O275    1.282   .     A
C218   C221    1.421   .     S
C219   C230    1.402   .     A
C219   C235    1.487   .     S
C219   C221    1.399   .     A
C220   C236    1.488   .     S
C220   C231    1.402   .     A
C220   C223    1.399   .     A
C221   C224    1.384   .     A
C222   O272    1.282   .     A
C222   C244    1.415   .     S
C222   O271    1.282   .     A
C223   C225    1.385   .     A
C224   C226    1.388   .     A
C224   H245    1.082   .     S
C225   H253    1.082   .     S
C225   C227    1.389   .     A
C226   C228    1.421   .     A
C226   C232    1.415   .     A
C227   C229    1.420   .     A
C227   C234    1.415   .     A
C228   C230    1.421   .     A
C228   C859    1.401   .     S
C229   C231    1.421   .     A
C229   C858    1.401   1_554 S
C230   C239    1.403   .     A
C231   C233    1.403   .     A
C232   C237    1.487   .     S
C232   C863    1.389   .     S
C233   H251    1.082   .     S
C233   C862    1.389   1_554 S
C234   C238    1.488   .     S
C234   C869    1.390   1_554 S
C235   O278    1.222   .     D
C235   O264    1.397   .     S
C236   O265    1.222   .     D
C236   O266    1.398   .     S
C237   O267    1.223   .     D
C237   O268    1.399   .     S
C238   O270    1.399   .     S
C238   O269    1.223   .     D
C239   H252    1.082   .     S
C239   C864    1.390   .     S
C240   H254    1.084   .     S
C240   C382    1.369   1_455 S
C241   C244    1.397   .     A
C241   H255    1.084   .     S
C241   C313    1.369   .     S
C242   H256    1.084   .     S
C242   C244    1.396   .     A
C242   C310    1.369   .     S
C243   H257    1.084   .     S
C243   C381    1.369   1_455 S
H247   O264    1.014   .     S
H248   O266    1.014   .     S
H249   O338    1.013   .     S
H250   O410    1.014   1_455 S
N261   Zn279   2.010   .     S
N262   Zn280   2.010   .     S
O263   Zn279   1.995   .     S
O268   H389    1.013   1_455 S
O270   H320    1.014   .     S
O271   Zn280   1.995   .     S
O272   Zn279   1.994   .     S
O273   Zn280   1.994   .     S
O274   Zn279   2.007   .     S
O275   Zn280   2.007   .     S
O276   Zn279   2.010   .     S
O277   Zn280   2.010   .     S
C281   O343    1.281   .     A
C281   C282    1.415   .     S
C281   O333    1.282   .     A
C282   C310    1.397   .     A
C282   C313    1.396   .     A
C283   N332    1.366   .     A
C283   H328    1.082   .     S
C284   H329    1.082   .     S
C284   N331    1.367   .     A
C284   C495    1.417   .     S
C285   N332    1.366   .     A
C285   H330    1.082   .     S
C286   N331    1.366   .     A
C286   H316    1.082   .     S
C286   C493    1.417   .     S
C287   O344    1.283   .     A
C287   C293    1.422   .     S
C287   O347    1.281   .     A
C288   O346    1.281   .     A
C288   O345    1.282   .     A
C288   C291    1.421   .     S
C289   C300    1.402   .     A
C289   C305    1.487   .     S
C289   C291    1.399   .     A
C290   C306    1.488   .     S
C290   C301    1.402   .     A
C290   C293    1.399   .     A
C291   C294    1.384   .     A
C292   O342    1.282   .     A
C292   C314    1.415   .     S
C292   O341    1.282   .     A
C293   C295    1.385   .     A
C294   C296    1.388   .     A
C294   H315    1.082   .     S
C295   H323    1.082   .     S
C295   C297    1.389   .     A
C296   C298    1.421   .     A
C296   C302    1.415   .     A
C297   C299    1.420   .     A
C297   C304    1.415   .     A
C298   C300    1.421   .     A
C298   C929    1.401   .     S
C299   C301    1.421   .     A
C299   C928    1.401   1_554 S
C300   C309    1.403   .     A
C301   C303    1.403   .     A
C302   C307    1.487   .     S
C302   C933    1.389   .     S
C303   H321    1.082   .     S
C303   C932    1.389   1_554 S
C304   C308    1.488   .     S
C304   C939    1.390   1_554 S
C305   O348    1.222   .     D
C305   O334    1.397   .     S
C306   O335    1.222   .     D
C306   O336    1.398   .     S
C307   O337    1.223   .     D
C307   O338    1.399   .     S
C308   O340    1.399   .     S
C308   O339    1.223   .     D
C309   H322    1.082   .     S
C309   C934    1.390   .     S
C310   H324    1.084   .     S
C311   C314    1.397   .     A
C311   H325    1.084   .     S
C311   C383    1.369   .     S
C312   H326    1.084   .     S
C312   C314    1.396   .     A
C312   C380    1.369   .     S
C313   H327    1.084   .     S
H317   O334    1.014   .     S
H318   O336    1.014   .     S
H319   O408    1.013   .     S
N331   Zn349   2.010   .     S
N332   Zn350   2.010   .     S
O333   Zn349   1.995   .     S
O340   H390    1.014   .     S
O341   Zn350   1.995   .     S
O342   Zn349   1.994   .     S
O343   Zn350   1.994   .     S
O344   Zn349   2.007   .     S
O345   Zn350   2.007   .     S
O346   Zn349   2.010   .     S
O347   Zn350   2.010   .     S
C351   O413    1.281   .     A
C351   C352    1.415   .     S
C351   O403    1.282   .     A
C352   C380    1.397   .     A
C352   C383    1.396   .     A
C353   N402    1.366   .     A
C353   H398    1.082   .     S
C354   H399    1.082   .     S
C354   N401    1.367   .     A
C354   C565    1.417   .     S
C355   N402    1.366   .     A
C355   H400    1.082   .     S
C356   N401    1.366   .     A
C356   H386    1.082   .     S
C356   C563    1.417   .     S
C357   O414    1.283   .     A
C357   C363    1.422   .     S
C357   O417    1.281   .     A
C358   O416    1.281   .     A
C358   O415    1.282   .     A
C358   C361    1.421   .     S
C359   C370    1.402   .     A
C359   C375    1.487   .     S
C359   C361    1.399   .     A
C360   C376    1.488   .     S
C360   C371    1.402   .     A
C360   C363    1.399   .     A
C361   C364    1.384   .     A
C362   O412    1.282   .     A
C362   C384    1.415   .     S
C362   O411    1.282   .     A
C363   C365    1.385   .     A
C364   C366    1.388   .     A
C364   H385    1.082   .     S
C365   H393    1.082   .     S
C365   C367    1.389   .     A
C366   C368    1.421   .     A
C366   C372    1.415   .     A
C367   C369    1.420   .     A
C367   C374    1.415   .     A
C368   C370    1.421   .     A
C368   C999    1.401   .     S
C369   C371    1.421   .     A
C369   C998    1.401   1_554 S
C370   C379    1.403   .     A
C371   C373    1.403   .     A
C372   C377    1.487   .     S
C372   C1003   1.389   .     S
C373   H391    1.082   .     S
C373   C1002   1.389   1_554 S
C374   C378    1.488   .     S
C374   C1009   1.390   1_554 S
C375   O418    1.222   .     D
C375   O404    1.397   .     S
C376   O405    1.222   .     D
C376   O406    1.398   .     S
C377   O407    1.223   .     D
C377   O408    1.399   .     S
C378   O410    1.399   .     S
C378   O409    1.223   .     D
C379   H392    1.082   .     S
C379   C1004   1.390   .     S
C380   H394    1.084   .     S
C381   C384    1.397   .     A
C381   H395    1.084   .     S
C381   C243    1.369   1_655 S
C382   H396    1.084   .     S
C382   C384    1.396   .     A
C382   C240    1.369   1_655 S
C383   H397    1.084   .     S
H387   O404    1.014   .     S
H388   O406    1.014   .     S
H389   O268    1.013   1_655 S
N401   Zn419   2.010   .     S
N402   Zn420   2.010   .     S
O403   Zn419   1.995   .     S
O410   H250    1.014   1_655 S
O411   Zn420   1.995   .     S
O412   Zn419   1.994   .     S
O413   Zn420   1.994   .     S
O414   Zn419   2.007   .     S
O415   Zn420   2.007   .     S
O416   Zn419   2.010   .     S
O417   Zn420   2.010   .     S
C421   O483    1.281   .     A
C421   C422    1.415   .     S
C421   O473    1.282   .     A
C422   C450    1.397   .     A
C422   C453    1.396   .     A
C423   N472    1.366   .     A
C423   H468    1.082   .     S
C424   H469    1.082   .     S
C424   N471    1.367   .     A
C424   C5      1.417   1_565 S
C425   N472    1.366   .     A
C425   H470    1.082   .     S
C426   N471    1.366   .     A
C426   H456    1.082   .     S
C426   C3      1.417   1_565 S
C427   O484    1.283   .     A
C427   C433    1.422   .     S
C427   O487    1.281   .     A
C428   O486    1.281   .     A
C428   O485    1.282   .     A
C428   C431    1.421   .     S
C429   C440    1.402   .     A
C429   C445    1.487   .     S
C429   C431    1.399   .     A
C430   C446    1.488   .     S
C430   C441    1.402   .     A
C430   C433    1.399   .     A
C431   C434    1.384   .     A
C432   O482    1.282   .     A
C432   C454    1.415   .     S
C432   O481    1.282   .     A
C433   C435    1.385   .     A
C434   C436    1.388   .     A
C434   H455    1.082   .     S
C435   H463    1.082   .     S
C435   C437    1.389   .     A
C436   C438    1.421   .     A
C436   C442    1.415   .     A
C437   C439    1.420   .     A
C437   C444    1.415   .     A
C438   C440    1.421   .     A
C438   C1069   1.401   .     S
C439   C441    1.421   .     A
C439   C1068   1.401   1_554 S
C440   C449    1.403   .     A
C441   C443    1.403   .     A
C442   C447    1.487   .     S
C442   C1073   1.389   .     S
C443   H461    1.082   .     S
C443   C1072   1.389   1_554 S
C444   C448    1.488   .     S
C444   C1079   1.390   1_554 S
C445   O488    1.222   .     D
C445   O474    1.397   .     S
C446   O475    1.222   .     D
C446   O476    1.398   .     S
C447   O477    1.223   .     D
C447   O478    1.399   .     S
C448   O480    1.399   .     S
C448   O479    1.223   .     D
C449   H462    1.082   .     S
C449   C1074   1.390   .     S
C450   H464    1.084   .     S
C450   C592    1.369   1_455 S
C451   C454    1.397   .     A
C451   H465    1.084   .     S
C451   C523    1.369   .     S
C452   H466    1.084   .     S
C452   C454    1.396   .     A
C452   C520    1.369   .     S
C453   H467    1.084   .     S
C453   C591    1.369   1_455 S
H457   O474    1.014   .     S
H458   O476    1.014   .     S
H459   O548    1.013   .     S
H460   O620    1.014   1_455 S
N471   Zn489   2.010   .     S
N472   Zn490   2.010   .     S
O473   Zn489   1.995   .     S
O478   H599    1.013   1_455 S
O480   H530    1.014   .     S
O481   Zn490   1.995   .     S
O482   Zn489   1.994   .     S
O483   Zn490   1.994   .     S
O484   Zn489   2.007   .     S
O485   Zn490   2.007   .     S
O486   Zn489   2.010   .     S
O487   Zn490   2.010   .     S
C491   O553    1.281   .     A
C491   C492    1.415   .     S
C491   O543    1.282   .     A
C492   C520    1.397   .     A
C492   C523    1.396   .     A
C493   N542    1.366   .     A
C493   H538    1.082   .     S
C494   H539    1.082   .     S
C494   N541    1.367   .     A
C494   C75     1.417   1_565 S
C495   N542    1.366   .     A
C495   H540    1.082   .     S
C496   N541    1.366   .     A
C496   H526    1.082   .     S
C496   C73     1.417   1_565 S
C497   O554    1.283   .     A
C497   C503    1.422   .     S
C497   O557    1.281   .     A
C498   O556    1.281   .     A
C498   O555    1.282   .     A
C498   C501    1.421   .     S
C499   C510    1.402   .     A
C499   C515    1.487   .     S
C499   C501    1.399   .     A
C500   C516    1.488   .     S
C500   C511    1.402   .     A
C500   C503    1.399   .     A
C501   C504    1.384   .     A
C502   O552    1.282   .     A
C502   C524    1.415   .     S
C502   O551    1.282   .     A
C503   C505    1.385   .     A
C504   C506    1.388   .     A
C504   H525    1.082   .     S
C505   H533    1.082   .     S
C505   C507    1.389   .     A
C506   C508    1.421   .     A
C506   C512    1.415   .     A
C507   C509    1.420   .     A
C507   C514    1.415   .     A
C508   C510    1.421   .     A
C508   C1139   1.401   .     S
C509   C511    1.421   .     A
C509   C1138   1.401   1_554 S
C510   C519    1.403   .     A
C511   C513    1.403   .     A
C512   C517    1.487   .     S
C512   C1143   1.389   .     S
C513   H531    1.082   .     S
C513   C1142   1.389   1_554 S
C514   C518    1.488   .     S
C514   C1149   1.390   1_554 S
C515   O558    1.222   .     D
C515   O544    1.397   .     S
C516   O545    1.222   .     D
C516   O546    1.398   .     S
C517   O547    1.223   .     D
C517   O548    1.399   .     S
C518   O550    1.399   .     S
C518   O549    1.223   .     D
C519   H532    1.082   .     S
C519   C1144   1.390   .     S
C520   H534    1.084   .     S
C521   C524    1.397   .     A
C521   H535    1.084   .     S
C521   C593    1.369   .     S
C522   H536    1.084   .     S
C522   C524    1.396   .     A
C522   C590    1.369   .     S
C523   H537    1.084   .     S
H527   O544    1.014   .     S
H528   O546    1.014   .     S
H529   O618    1.013   .     S
N541   Zn559   2.010   .     S
N542   Zn560   2.010   .     S
O543   Zn559   1.995   .     S
O550   H600    1.014   .     S
O551   Zn560   1.995   .     S
O552   Zn559   1.994   .     S
O553   Zn560   1.994   .     S
O554   Zn559   2.007   .     S
O555   Zn560   2.007   .     S
O556   Zn559   2.010   .     S
O557   Zn560   2.010   .     S
C561   O623    1.281   .     A
C561   C562    1.415   .     S
C561   O613    1.282   .     A
C562   C590    1.397   .     A
C562   C593    1.396   .     A
C563   N612    1.366   .     A
C563   H608    1.082   .     S
C564   H609    1.082   .     S
C564   N611    1.367   .     A
C564   C145    1.417   1_565 S
C565   N612    1.366   .     A
C565   H610    1.082   .     S
C566   N611    1.366   .     A
C566   H596    1.082   .     S
C566   C143    1.417   1_565 S
C567   O624    1.283   .     A
C567   C573    1.422   .     S
C567   O627    1.281   .     A
C568   O626    1.281   .     A
C568   O625    1.282   .     A
C568   C571    1.421   .     S
C569   C580    1.402   .     A
C569   C585    1.487   .     S
C569   C571    1.399   .     A
C570   C586    1.488   .     S
C570   C581    1.402   .     A
C570   C573    1.399   .     A
C571   C574    1.384   .     A
C572   O622    1.282   .     A
C572   C594    1.415   .     S
C572   O621    1.282   .     A
C573   C575    1.385   .     A
C574   C576    1.388   .     A
C574   H595    1.082   .     S
C575   H603    1.082   .     S
C575   C577    1.389   .     A
C576   C578    1.421   .     A
C576   C582    1.415   .     A
C577   C579    1.420   .     A
C577   C584    1.415   .     A
C578   C580    1.421   .     A
C578   C1209   1.401   .     S
C579   C581    1.421   .     A
C579   C1208   1.401   1_554 S
C580   C589    1.403   .     A
C581   C583    1.403   .     A
C582   C587    1.487   .     S
C582   C1213   1.389   .     S
C583   H601    1.082   .     S
C583   C1212   1.389   1_554 S
C584   C588    1.488   .     S
C584   C1219   1.390   1_554 S
C585   O628    1.222   .     D
C585   O614    1.397   .     S
C586   O615    1.222   .     D
C586   O616    1.398   .     S
C587   O617    1.223   .     D
C587   O618    1.399   .     S
C588   O620    1.399   .     S
C588   O619    1.223   .     D
C589   H602    1.082   .     S
C589   C1214   1.390   .     S
C590   H604    1.084   .     S
C591   C594    1.397   .     A
C591   H605    1.084   .     S
C591   C453    1.369   1_655 S
C592   H606    1.084   .     S
C592   C594    1.396   .     A
C592   C450    1.369   1_655 S
C593   H607    1.084   .     S
H597   O614    1.014   .     S
H598   O616    1.014   .     S
H599   O478    1.013   1_655 S
N611   Zn629   2.010   .     S
N612   Zn630   2.010   .     S
O613   Zn629   1.995   .     S
O620   H460    1.014   1_655 S
O621   Zn630   1.995   .     S
O622   Zn629   1.994   .     S
O623   Zn630   1.994   .     S
O624   Zn629   2.007   .     S
O625   Zn630   2.007   .     S
O626   Zn629   2.010   .     S
O627   Zn630   2.010   .     S
C631   O693    1.281   .     A
C631   C632    1.415   .     S
C631   O683    1.282   .     A
C632   C660    1.397   .     A
C632   C663    1.396   .     A
C633   N682    1.366   .     A
C633   H678    1.082   .     S
C633   C1056   1.417   1_545 S
C634   H679    1.082   .     S
C634   N681    1.367   .     A
C634   C845    1.417   .     S
C635   N682    1.366   .     A
C635   H680    1.082   .     S
C635   C1054   1.417   1_545 S
C636   N681    1.366   .     A
C636   H666    1.082   .     S
C636   C843    1.417   .     S
C637   O694    1.283   .     A
C637   C643    1.422   .     S
C637   O697    1.281   .     A
C638   O696    1.281   .     A
C638   O695    1.282   .     A
C638   C641    1.421   .     S
C639   C650    1.402   .     A
C639   C655    1.487   .     S
C639   C641    1.399   .     A
C640   C656    1.488   .     S
C640   C651    1.402   .     A
C640   C643    1.399   .     A
C641   C644    1.384   .     A
C642   O692    1.282   .     A
C642   C664    1.415   .     S
C642   O691    1.282   .     A
C643   C645    1.385   .     A
C644   C646    1.388   .     A
C644   H665    1.082   .     S
C645   H673    1.082   .     S
C645   C647    1.389   .     A
C646   C648    1.421   .     A
C646   C652    1.415   .     A
C647   C649    1.420   .     A
C647   C654    1.415   .     A
C648   C650    1.421   .     A
C648   C19     1.401   1_556 S
C649   C651    1.421   .     A
C650   C659    1.403   .     A
C651   C653    1.403   .     A
C652   C657    1.487   .     S
C652   C23     1.389   1_556 S
C653   H671    1.082   .     S
C654   C658    1.488   .     S
C655   O698    1.222   .     D
C655   O684    1.397   .     S
C656   O685    1.222   .     D
C656   O686    1.398   .     S
C657   O687    1.223   .     D
C657   O688    1.399   .     S
C658   O690    1.399   .     S
C658   O689    1.223   .     D
C659   H672    1.082   .     S
C659   C24     1.390   1_556 S
C660   H674    1.084   .     S
C660   C802    1.369   1_455 S
C661   C664    1.397   .     A
C661   H675    1.084   .     S
C661   C733    1.369   .     S
C662   H676    1.084   .     S
C662   C664    1.396   .     A
C662   C730    1.369   .     S
C663   H677    1.084   .     S
C663   C801    1.369   1_455 S
H667   O684    1.014   .     S
H668   O686    1.014   .     S
H669   O758    1.013   .     S
H670   O830    1.014   1_455 S
N681   Zn699   2.010   .     S
N682   Zn700   2.010   .     S
O683   Zn699   1.995   .     S
O688   H809    1.013   1_455 S
O690   H740    1.014   .     S
O691   Zn700   1.995   .     S
O692   Zn699   1.994   .     S
O693   Zn700   1.994   .     S
O694   Zn699   2.007   .     S
O695   Zn700   2.007   .     S
O696   Zn699   2.010   .     S
O697   Zn700   2.010   .     S
C701   O763    1.281   .     A
C701   C702    1.415   .     S
C701   O753    1.282   .     A
C702   C730    1.397   .     A
C702   C733    1.396   .     A
C703   N752    1.366   .     A
C703   H748    1.082   .     S
C703   C1126   1.417   1_545 S
C704   H749    1.082   .     S
C704   N751    1.367   .     A
C704   C915    1.417   .     S
C705   N752    1.366   .     A
C705   H750    1.082   .     S
C705   C1124   1.417   1_545 S
C706   N751    1.366   .     A
C706   H736    1.082   .     S
C706   C913    1.417   .     S
C707   O764    1.283   .     A
C707   C713    1.422   .     S
C707   O767    1.281   .     A
C708   O766    1.281   .     A
C708   O765    1.282   .     A
C708   C711    1.421   .     S
C709   C720    1.402   .     A
C709   C725    1.487   .     S
C709   C711    1.399   .     A
C710   C726    1.488   .     S
C710   C721    1.402   .     A
C710   C713    1.399   .     A
C711   C714    1.384   .     A
C712   O762    1.282   .     A
C712   C734    1.415   .     S
C712   O761    1.282   .     A
C713   C715    1.385   .     A
C714   C716    1.388   .     A
C714   H735    1.082   .     S
C715   H743    1.082   .     S
C715   C717    1.389   .     A
C716   C718    1.421   .     A
C716   C722    1.415   .     A
C717   C719    1.420   .     A
C717   C724    1.415   .     A
C718   C720    1.421   .     A
C718   C89     1.401   1_556 S
C719   C721    1.421   .     A
C720   C729    1.403   .     A
C721   C723    1.403   .     A
C722   C727    1.487   .     S
C722   C93     1.389   1_556 S
C723   H741    1.082   .     S
C724   C728    1.488   .     S
C725   O768    1.222   .     D
C725   O754    1.397   .     S
C726   O755    1.222   .     D
C726   O756    1.398   .     S
C727   O757    1.223   .     D
C727   O758    1.399   .     S
C728   O760    1.399   .     S
C728   O759    1.223   .     D
C729   H742    1.082   .     S
C729   C94     1.390   1_556 S
C730   H744    1.084   .     S
C731   C734    1.397   .     A
C731   H745    1.084   .     S
C731   C803    1.369   .     S
C732   H746    1.084   .     S
C732   C734    1.396   .     A
C732   C800    1.369   .     S
C733   H747    1.084   .     S
H737   O754    1.014   .     S
H738   O756    1.014   .     S
H739   O828    1.013   .     S
N751   Zn769   2.010   .     S
N752   Zn770   2.010   .     S
O753   Zn769   1.995   .     S
O760   H810    1.014   .     S
O761   Zn770   1.995   .     S
O762   Zn769   1.994   .     S
O763   Zn770   1.994   .     S
O764   Zn769   2.007   .     S
O765   Zn770   2.007   .     S
O766   Zn769   2.010   .     S
O767   Zn770   2.010   .     S
C771   O833    1.281   .     A
C771   C772    1.415   .     S
C771   O823    1.282   .     A
C772   C800    1.397   .     A
C772   C803    1.396   .     A
C773   N822    1.366   .     A
C773   H818    1.082   .     S
C773   C1196   1.417   1_545 S
C774   H819    1.082   .     S
C774   N821    1.367   .     A
C774   C985    1.417   .     S
C775   N822    1.366   .     A
C775   H820    1.082   .     S
C775   C1194   1.417   1_545 S
C776   N821    1.366   .     A
C776   H806    1.082   .     S
C776   C983    1.417   .     S
C777   O834    1.283   .     A
C777   C783    1.422   .     S
C777   O837    1.281   .     A
C778   O836    1.281   .     A
C778   O835    1.282   .     A
C778   C781    1.421   .     S
C779   C790    1.402   .     A
C779   C795    1.487   .     S
C779   C781    1.399   .     A
C780   C796    1.488   .     S
C780   C791    1.402   .     A
C780   C783    1.399   .     A
C781   C784    1.384   .     A
C782   O832    1.282   .     A
C782   C804    1.415   .     S
C782   O831    1.282   .     A
C783   C785    1.385   .     A
C784   C786    1.388   .     A
C784   H805    1.082   .     S
C785   H813    1.082   .     S
C785   C787    1.389   .     A
C786   C788    1.421   .     A
C786   C792    1.415   .     A
C787   C789    1.420   .     A
C787   C794    1.415   .     A
C788   C790    1.421   .     A
C788   C159    1.401   1_556 S
C789   C791    1.421   .     A
C790   C799    1.403   .     A
C791   C793    1.403   .     A
C792   C797    1.487   .     S
C792   C163    1.389   1_556 S
C793   H811    1.082   .     S
C794   C798    1.488   .     S
C795   O838    1.222   .     D
C795   O824    1.397   .     S
C796   O825    1.222   .     D
C796   O826    1.398   .     S
C797   O827    1.223   .     D
C797   O828    1.399   .     S
C798   O830    1.399   .     S
C798   O829    1.223   .     D
C799   H812    1.082   .     S
C799   C164    1.390   1_556 S
C800   H814    1.084   .     S
C801   C804    1.397   .     A
C801   H815    1.084   .     S
C801   C663    1.369   1_655 S
C802   H816    1.084   .     S
C802   C804    1.396   .     A
C802   C660    1.369   1_655 S
C803   H817    1.084   .     S
H807   O824    1.014   .     S
H808   O826    1.014   .     S
H809   O688    1.013   1_655 S
N821   Zn839   2.010   .     S
N822   Zn840   2.010   .     S
O823   Zn839   1.995   .     S
O830   H670    1.014   1_655 S
O831   Zn840   1.995   .     S
O832   Zn839   1.994   .     S
O833   Zn840   1.994   .     S
O834   Zn839   2.007   .     S
O835   Zn840   2.007   .     S
O836   Zn839   2.010   .     S
O837   Zn840   2.010   .     S
C841   O903    1.281   .     A
C841   C842    1.415   .     S
C841   O893    1.282   .     A
C842   C870    1.397   .     A
C842   C873    1.396   .     A
C843   N892    1.366   .     A
C843   H888    1.082   .     S
C844   H889    1.082   .     S
C844   N891    1.367   .     A
C844   C1055   1.417   .     S
C845   N892    1.366   .     A
C845   H890    1.082   .     S
C846   N891    1.366   .     A
C846   H876    1.082   .     S
C846   C1053   1.417   .     S
C847   O904    1.283   .     A
C847   C853    1.422   .     S
C847   O907    1.281   .     A
C848   O906    1.281   .     A
C848   O905    1.282   .     A
C848   C851    1.421   .     S
C849   C860    1.402   .     A
C849   C865    1.487   .     S
C849   C851    1.399   .     A
C850   C866    1.488   .     S
C850   C861    1.402   .     A
C850   C853    1.399   .     A
C851   C854    1.384   .     A
C852   O902    1.282   .     A
C852   C874    1.415   .     S
C852   O901    1.282   .     A
C853   C855    1.385   .     A
C854   C856    1.388   .     A
C854   H875    1.082   .     S
C855   H883    1.082   .     S
C855   C857    1.389   .     A
C856   C858    1.421   .     A
C856   C862    1.415   .     A
C857   C859    1.420   .     A
C857   C864    1.415   .     A
C858   C860    1.421   .     A
C858   C229    1.401   1_556 S
C859   C861    1.421   .     A
C860   C869    1.403   .     A
C861   C863    1.403   .     A
C862   C867    1.487   .     S
C862   C233    1.389   1_556 S
C863   H881    1.082   .     S
C864   C868    1.488   .     S
C865   O908    1.222   .     D
C865   O894    1.397   .     S
C866   O895    1.222   .     D
C866   O896    1.398   .     S
C867   O897    1.223   .     D
C867   O898    1.399   .     S
C868   O900    1.399   .     S
C868   O899    1.223   .     D
C869   H882    1.082   .     S
C869   C234    1.390   1_556 S
C870   H884    1.084   .     S
C870   C1012   1.369   1_455 S
C871   C874    1.397   .     A
C871   H885    1.084   .     S
C871   C943    1.369   .     S
C872   H886    1.084   .     S
C872   C874    1.396   .     A
C872   C940    1.369   .     S
C873   H887    1.084   .     S
C873   C1011   1.369   1_455 S
H877   O894    1.014   .     S
H878   O896    1.014   .     S
H879   O968    1.013   .     S
H880   O1040   1.014   1_455 S
N891   Zn909   2.010   .     S
N892   Zn910   2.010   .     S
O893   Zn909   1.995   .     S
O898   H1019   1.013   1_455 S
O900   H950    1.014   .     S
O901   Zn910   1.995   .     S
O902   Zn909   1.994   .     S
O903   Zn910   1.994   .     S
O904   Zn909   2.007   .     S
O905   Zn910   2.007   .     S
O906   Zn909   2.010   .     S
O907   Zn910   2.010   .     S
C911   O973    1.281   .     A
C911   C912    1.415   .     S
C911   O963    1.282   .     A
C912   C940    1.397   .     A
C912   C943    1.396   .     A
C913   N962    1.366   .     A
C913   H958    1.082   .     S
C914   H959    1.082   .     S
C914   N961    1.367   .     A
C914   C1125   1.417   .     S
C915   N962    1.366   .     A
C915   H960    1.082   .     S
C916   N961    1.366   .     A
C916   H946    1.082   .     S
C916   C1123   1.417   .     S
C917   O974    1.283   .     A
C917   C923    1.422   .     S
C917   O977    1.281   .     A
C918   O976    1.281   .     A
C918   O975    1.282   .     A
C918   C921    1.421   .     S
C919   C930    1.402   .     A
C919   C935    1.487   .     S
C919   C921    1.399   .     A
C920   C936    1.488   .     S
C920   C931    1.402   .     A
C920   C923    1.399   .     A
C921   C924    1.384   .     A
C922   O972    1.282   .     A
C922   C944    1.415   .     S
C922   O971    1.282   .     A
C923   C925    1.385   .     A
C924   C926    1.388   .     A
C924   H945    1.082   .     S
C925   H953    1.082   .     S
C925   C927    1.389   .     A
C926   C928    1.421   .     A
C926   C932    1.415   .     A
C927   C929    1.420   .     A
C927   C934    1.415   .     A
C928   C930    1.421   .     A
C928   C299    1.401   1_556 S
C929   C931    1.421   .     A
C930   C939    1.403   .     A
C931   C933    1.403   .     A
C932   C937    1.487   .     S
C932   C303    1.389   1_556 S
C933   H951    1.082   .     S
C934   C938    1.488   .     S
C935   O978    1.222   .     D
C935   O964    1.397   .     S
C936   O965    1.222   .     D
C936   O966    1.398   .     S
C937   O967    1.223   .     D
C937   O968    1.399   .     S
C938   O970    1.399   .     S
C938   O969    1.223   .     D
C939   H952    1.082   .     S
C939   C304    1.390   1_556 S
C940   H954    1.084   .     S
C941   C944    1.397   .     A
C941   H955    1.084   .     S
C941   C1013   1.369   .     S
C942   H956    1.084   .     S
C942   C944    1.396   .     A
C942   C1010   1.369   .     S
C943   H957    1.084   .     S
H947   O964    1.014   .     S
H948   O966    1.014   .     S
H949   O1038   1.013   .     S
N961   Zn979   2.010   .     S
N962   Zn980   2.010   .     S
O963   Zn979   1.995   .     S
O970   H1020   1.014   .     S
O971   Zn980   1.995   .     S
O972   Zn979   1.994   .     S
O973   Zn980   1.994   .     S
O974   Zn979   2.007   .     S
O975   Zn980   2.007   .     S
O976   Zn979   2.010   .     S
O977   Zn980   2.010   .     S
C981   O1043   1.281   .     A
C981   C982    1.415   .     S
C981   O1033   1.282   .     A
C982   C1010   1.397   .     A
C982   C1013   1.396   .     A
C983   N1032   1.366   .     A
C983   H1028   1.082   .     S
C984   H1029   1.082   .     S
C984   N1031   1.367   .     A
C984   C1195   1.417   .     S
C985   N1032   1.366   .     A
C985   H1030   1.082   .     S
C986   N1031   1.366   .     A
C986   H1016   1.082   .     S
C986   C1193   1.417   .     S
C987   O1044   1.283   .     A
C987   C993    1.422   .     S
C987   O1047   1.281   .     A
C988   O1046   1.281   .     A
C988   O1045   1.282   .     A
C988   C991    1.421   .     S
C989   C1000   1.402   .     A
C989   C1005   1.487   .     S
C989   C991    1.399   .     A
C990   C1006   1.488   .     S
C990   C1001   1.402   .     A
C990   C993    1.399   .     A
C991   C994    1.384   .     A
C992   O1042   1.282   .     A
C992   C1014   1.415   .     S
C992   O1041   1.282   .     A
C993   C995    1.385   .     A
C994   C996    1.388   .     A
C994   H1015   1.082   .     S
C995   H1023   1.082   .     S
C995   C997    1.389   .     A
C996   C998    1.421   .     A
C996   C1002   1.415   .     A
C997   C999    1.420   .     A
C997   C1004   1.415   .     A
C998   C1000   1.421   .     A
C998   C369    1.401   1_556 S
C999   C1001   1.421   .     A
C1000  C1009   1.403   .     A
C1001  C1003   1.403   .     A
C1002  C1007   1.487   .     S
C1002  C373    1.389   1_556 S
C1003  H1021   1.082   .     S
C1004  C1008   1.488   .     S
C1005  O1048   1.222   .     D
C1005  O1034   1.397   .     S
C1006  O1035   1.222   .     D
C1006  O1036   1.398   .     S
C1007  O1037   1.223   .     D
C1007  O1038   1.399   .     S
C1008  O1040   1.399   .     S
C1008  O1039   1.223   .     D
C1009  H1022   1.082   .     S
C1009  C374    1.390   1_556 S
C1010  H1024   1.084   .     S
C1011  C1014   1.397   .     A
C1011  H1025   1.084   .     S
C1011  C873    1.369   1_655 S
C1012  H1026   1.084   .     S
C1012  C1014   1.396   .     A
C1012  C870    1.369   1_655 S
C1013  H1027   1.084   .     S
H1017  O1034   1.014   .     S
H1018  O1036   1.014   .     S
H1019  O898    1.013   1_655 S
N1031  Zn1049  2.010   .     S
N1032  Zn1050  2.010   .     S
O1033  Zn1049  1.995   .     S
O1040  H880    1.014   1_655 S
O1041  Zn1050  1.995   .     S
O1042  Zn1049  1.994   .     S
O1043  Zn1050  1.994   .     S
O1044  Zn1049  2.007   .     S
O1045  Zn1050  2.007   .     S
O1046  Zn1049  2.010   .     S
O1047  Zn1050  2.010   .     S
C1051  O1113   1.281   .     A
C1051  C1052   1.415   .     S
C1051  O1103   1.282   .     A
C1052  C1080   1.397   .     A
C1052  C1083   1.396   .     A
C1053  N1102   1.366   .     A
C1053  H1098   1.082   .     S
C1054  H1099   1.082   .     S
C1054  N1101   1.367   .     A
C1054  C635    1.417   1_565 S
C1055  N1102   1.366   .     A
C1055  H1100   1.082   .     S
C1056  N1101   1.366   .     A
C1056  H1086   1.082   .     S
C1056  C633    1.417   1_565 S
C1057  O1114   1.283   .     A
C1057  C1063   1.422   .     S
C1057  O1117   1.281   .     A
C1058  O1116   1.281   .     A
C1058  O1115   1.282   .     A
C1058  C1061   1.421   .     S
C1059  C1070   1.402   .     A
C1059  C1075   1.487   .     S
C1059  C1061   1.399   .     A
C1060  C1076   1.488   .     S
C1060  C1071   1.402   .     A
C1060  C1063   1.399   .     A
C1061  C1064   1.384   .     A
C1062  O1112   1.282   .     A
C1062  C1084   1.415   .     S
C1062  O1111   1.282   .     A
C1063  C1065   1.385   .     A
C1064  C1066   1.388   .     A
C1064  H1085   1.082   .     S
C1065  H1093   1.082   .     S
C1065  C1067   1.389   .     A
C1066  C1068   1.421   .     A
C1066  C1072   1.415   .     A
C1067  C1069   1.420   .     A
C1067  C1074   1.415   .     A
C1068  C1070   1.421   .     A
C1068  C439    1.401   1_556 S
C1069  C1071   1.421   .     A
C1070  C1079   1.403   .     A
C1071  C1073   1.403   .     A
C1072  C1077   1.487   .     S
C1072  C443    1.389   1_556 S
C1073  H1091   1.082   .     S
C1074  C1078   1.488   .     S
C1075  O1118   1.222   .     D
C1075  O1104   1.397   .     S
C1076  O1105   1.222   .     D
C1076  O1106   1.398   .     S
C1077  O1107   1.223   .     D
C1077  O1108   1.399   .     S
C1078  O1110   1.399   .     S
C1078  O1109   1.223   .     D
C1079  H1092   1.082   .     S
C1079  C444    1.390   1_556 S
C1080  H1094   1.084   .     S
C1080  C1222   1.369   1_455 S
C1081  C1084   1.397   .     A
C1081  H1095   1.084   .     S
C1081  C1153   1.369   .     S
C1082  H1096   1.084   .     S
C1082  C1084   1.396   .     A
C1082  C1150   1.369   .     S
C1083  H1097   1.084   .     S
C1083  C1221   1.369   1_455 S
H1087  O1104   1.014   .     S
H1088  O1106   1.014   .     S
H1089  O1178   1.013   .     S
H1090  O1250   1.014   1_455 S
N1101  Zn1119  2.010   .     S
N1102  Zn1120  2.010   .     S
O1103  Zn1119  1.995   .     S
O1108  H1229   1.013   1_455 S
O1110  H1160   1.014   .     S
O1111  Zn1120  1.995   .     S
O1112  Zn1119  1.994   .     S
O1113  Zn1120  1.994   .     S
O1114  Zn1119  2.007   .     S
O1115  Zn1120  2.007   .     S
O1116  Zn1119  2.010   .     S
O1117  Zn1120  2.010   .     S
C1121  O1183   1.281   .     A
C1121  C1122   1.415   .     S
C1121  O1173   1.282   .     A
C1122  C1150   1.397   .     A
C1122  C1153   1.396   .     A
C1123  N1172   1.366   .     A
C1123  H1168   1.082   .     S
C1124  H1169   1.082   .     S
C1124  N1171   1.367   .     A
C1124  C705    1.417   1_565 S
C1125  N1172   1.366   .     A
C1125  H1170   1.082   .     S
C1126  N1171   1.366   .     A
C1126  H1156   1.082   .     S
C1126  C703    1.417   1_565 S
C1127  O1184   1.283   .     A
C1127  C1133   1.422   .     S
C1127  O1187   1.281   .     A
C1128  O1186   1.281   .     A
C1128  O1185   1.282   .     A
C1128  C1131   1.421   .     S
C1129  C1140   1.402   .     A
C1129  C1145   1.487   .     S
C1129  C1131   1.399   .     A
C1130  C1146   1.488   .     S
C1130  C1141   1.402   .     A
C1130  C1133   1.399   .     A
C1131  C1134   1.384   .     A
C1132  O1182   1.282   .     A
C1132  C1154   1.415   .     S
C1132  O1181   1.282   .     A
C1133  C1135   1.385   .     A
C1134  C1136   1.388   .     A
C1134  H1155   1.082   .     S
C1135  H1163   1.082   .     S
C1135  C1137   1.389   .     A
C1136  C1138   1.421   .     A
C1136  C1142   1.415   .     A
C1137  C1139   1.420   .     A
C1137  C1144   1.415   .     A
C1138  C1140   1.421   .     A
C1138  C509    1.401   1_556 S
C1139  C1141   1.421   .     A
C1140  C1149   1.403   .     A
C1141  C1143   1.403   .     A
C1142  C1147   1.487   .     S
C1142  C513    1.389   1_556 S
C1143  H1161   1.082   .     S
C1144  C1148   1.488   .     S
C1145  O1188   1.222   .     D
C1145  O1174   1.397   .     S
C1146  O1175   1.222   .     D
C1146  O1176   1.398   .     S
C1147  O1177   1.223   .     D
C1147  O1178   1.399   .     S
C1148  O1180   1.399   .     S
C1148  O1179   1.223   .     D
C1149  H1162   1.082   .     S
C1149  C514    1.390   1_556 S
C1150  H1164   1.084   .     S
C1151  C1154   1.397   .     A
C1151  H1165   1.084   .     S
C1151  C1223   1.369   .     S
C1152  H1166   1.084   .     S
C1152  C1154   1.396   .     A
C1152  C1220   1.369   .     S
C1153  H1167   1.084   .     S
H1157  O1174   1.014   .     S
H1158  O1176   1.014   .     S
H1159  O1248   1.013   .     S
N1171  Zn1189  2.010   .     S
N1172  Zn1190  2.010   .     S
O1173  Zn1189  1.995   .     S
O1180  H1230   1.014   .     S
O1181  Zn1190  1.995   .     S
O1182  Zn1189  1.994   .     S
O1183  Zn1190  1.994   .     S
O1184  Zn1189  2.007   .     S
O1185  Zn1190  2.007   .     S
O1186  Zn1189  2.010   .     S
O1187  Zn1190  2.010   .     S
C1191  O1253   1.281   .     A
C1191  C1192   1.415   .     S
C1191  O1243   1.282   .     A
C1192  C1220   1.397   .     A
C1192  C1223   1.396   .     A
C1193  N1242   1.366   .     A
C1193  H1238   1.082   .     S
C1194  H1239   1.082   .     S
C1194  N1241   1.367   .     A
C1194  C775    1.417   1_565 S
C1195  N1242   1.366   .     A
C1195  H1240   1.082   .     S
C1196  N1241   1.366   .     A
C1196  H1226   1.082   .     S
C1196  C773    1.417   1_565 S
C1197  O1254   1.283   .     A
C1197  C1203   1.422   .     S
C1197  O1257   1.281   .     A
C1198  O1256   1.281   .     A
C1198  O1255   1.282   .     A
C1198  C1201   1.421   .     S
C1199  C1210   1.402   .     A
C1199  C1215   1.487   .     S
C1199  C1201   1.399   .     A
C1200  C1216   1.488   .     S
C1200  C1211   1.402   .     A
C1200  C1203   1.399   .     A
C1201  C1204   1.384   .     A
C1202  O1252   1.282   .     A
C1202  C1224   1.415   .     S
C1202  O1251   1.282   .     A
C1203  C1205   1.385   .     A
C1204  C1206   1.388   .     A
C1204  H1225   1.082   .     S
C1205  H1233   1.082   .     S
C1205  C1207   1.389   .     A
C1206  C1208   1.421   .     A
C1206  C1212   1.415   .     A
C1207  C1209   1.420   .     A
C1207  C1214   1.415   .     A
C1208  C1210   1.421   .     A
C1208  C579    1.401   1_556 S
C1209  C1211   1.421   .     A
C1210  C1219   1.403   .     A
C1211  C1213   1.403   .     A
C1212  C1217   1.487   .     S
C1212  C583    1.389   1_556 S
C1213  H1231   1.082   .     S
C1214  C1218   1.488   .     S
C1215  O1258   1.222   .     D
C1215  O1244   1.397   .     S
C1216  O1245   1.222   .     D
C1216  O1246   1.398   .     S
C1217  O1247   1.223   .     D
C1217  O1248   1.399   .     S
C1218  O1250   1.399   .     S
C1218  O1249   1.223   .     D
C1219  H1232   1.082   .     S
C1219  C584    1.390   1_556 S
C1220  H1234   1.084   .     S
C1221  C1224   1.397   .     A
C1221  H1235   1.084   .     S
C1221  C1083   1.369   1_655 S
C1222  H1236   1.084   .     S
C1222  C1224   1.396   .     A
C1222  C1080   1.369   1_655 S
C1223  H1237   1.084   .     S
H1227  O1244   1.014   .     S
H1228  O1246   1.014   .     S
H1229  O1108   1.013   1_655 S
N1241  Zn1259  2.010   .     S
N1242  Zn1260  2.010   .     S
O1243  Zn1259  1.995   .     S
O1250  H1090   1.014   1_655 S
O1251  Zn1260  1.995   .     S
O1252  Zn1259  1.994   .     S
O1253  Zn1260  1.994   .     S
O1254  Zn1259  2.007   .     S
O1255  Zn1260  2.007   .     S
O1256  Zn1259  2.010   .     S
O1257  Zn1260  2.010   .     S
