data_str_m1_o10_o18_pcu_sym.100
_audit_creation_date              2020-01-03
_audit_creation_method            'Materials Studio'
_symmetry_space_group_name_H-M    'P1'
_symmetry_Int_Tables_number       1
_symmetry_cell_setting            triclinic
loop_
_symmetry_equiv_pos_as_xyz
  x,y,z
_cell_length_a                    32.5843
_cell_length_b                    32.5260
_cell_length_c                    35.8291
_cell_angle_alpha                 98.3243
_cell_angle_beta                  72.7945
_cell_angle_gamma                 98.5775
loop_
_atom_site_label
_atom_site_type_symbol
_atom_site_fract_x
_atom_site_fract_y
_atom_site_fract_z
_atom_site_U_iso_or_equiv
_atom_site_adp_type
_atom_site_occupancy
C1     C     0.05267   0.16030   0.25843   0.00000  Uiso   1.00
C2     C     0.20503   0.13841   0.45887   0.00000  Uiso   1.00
C3     C     0.22765   0.12092   0.47863   0.00000  Uiso   1.00
C4     C     0.28101   0.17343   0.24118   0.00000  Uiso   1.00
C5     C     0.21607   0.12480   0.01972   0.00000  Uiso   1.00
C6     C     0.18092   0.14770   0.04131   0.00000  Uiso   1.00
C7     C     0.23974   0.10743   0.03971   0.00000  Uiso   1.00
C8     C     0.22812   0.11264   0.08062   0.00000  Uiso   1.00
C9     C     0.17487   0.15856   0.08235   0.00000  Uiso   1.00
C10    C     0.32695   0.17506   0.23726   0.00000  Uiso   1.00
C11    C     0.00728   0.15792   0.26265   0.00000  Uiso   1.00
C12    C     0.09317   0.20778   0.42077   0.00000  Uiso   1.00
C13    C     0.18039   0.32213   0.23840   0.00000  Uiso   1.00
C14    C     0.15102   0.01242   0.26231   0.00000  Uiso   1.00
C15    C     0.15605   0.05623   0.25873   0.00000  Uiso   1.00
C16    C     0.17669   0.27765   0.24137   0.00000  Uiso   1.00
C17    C     0.18829   0.14530   0.14414   0.00000  Uiso   1.00
C18    C     0.14511   0.18755   0.35613   0.00000  Uiso   1.00
C19    C     0.13212   0.19237   0.39929   0.00000  Uiso   1.00
C20    C     0.19626   0.13798   0.10176   0.00000  Uiso   1.00
C21    C     0.07885   0.20787   0.46164   0.00000  Uiso   1.00
C22    C     0.27735   0.08440   0.01891   0.00000  Uiso   1.00
C23    C     0.15759   0.17821   0.41879   0.00000  Uiso   1.00
C24    C     0.31926   0.10268   0.01880   0.00000  Uiso   1.00
C25    C     0.02160   0.08116   0.49903   0.00000  Uiso   1.00
C26    C     0.01563   0.04130   0.47941   0.00000  Uiso   1.00
C27    C     0.30731   0.02291   0.47952   0.00000  Uiso   1.00
C28    C     0.27153   0.04429   0.49933   0.00000  Uiso   1.00
C29    C     0.15594   0.19774   0.10277   0.00000  Uiso   1.00
C30    C     0.17389   0.23604   0.08770   0.00000  Uiso   1.00
C31    C     0.15820   0.27339   0.10716   0.00000  Uiso   1.00
C32    C     0.12441   0.27289   0.14188   0.00000  Uiso   1.00
C33    C     0.10594   0.23499   0.15691   0.00000  Uiso   1.00
C34    C     0.14350   0.17582   0.45955   0.00000  Uiso   1.00
C35    C     0.12131   0.19749   0.13737   0.00000  Uiso   1.00
C36    C     0.03856   0.22664   0.48307   0.00000  Uiso   1.00
C37    C     0.04022   0.26357   0.00857   0.00000  Uiso   1.00
C38    C     0.00242   0.28184   0.02836   0.00000  Uiso   1.00
C39    C     0.29615   0.26349   0.02274   0.00000  Uiso   1.00
C40    C     0.29421   0.22670   0.49743   0.00000  Uiso   1.00
C41    C     0.33198   0.20830   0.47752   0.00000  Uiso   1.00
C42    C     0.10343   0.19087   0.48118   0.00000  Uiso   1.00
C43    C     0.16805   0.15864   0.47929   0.00000  Uiso   1.00
C44    C     0.15417   0.16028   0.02087   0.00000  Uiso   1.00
C45    C     0.11249   0.17146   0.04072   0.00000  Uiso   1.00
C46    C     0.08793   0.18696   0.02148   0.00000  Uiso   1.00
F47    F     0.31307   0.13965   0.29392   0.00000  Uiso   1.00
F48    F     0.11597   0.33003   0.29000   0.00000  Uiso   1.00
H49    H     0.05627   0.19522   0.03850   0.00000  Uiso   1.00
H50    H     0.32424   0.13363   0.03376   0.00000  Uiso   1.00
H51    H     0.05387   0.09538   0.49888   0.00000  Uiso   1.00
H52    H     0.04326   0.02463   0.46417   0.00000  Uiso   1.00
H53    H     0.30275   0.32539   0.46431   0.00000  Uiso   1.00
H54    H     0.23938   0.02974   0.49932   0.00000  Uiso   1.00
H55    H     0.20022   0.23687   0.06096   0.00000  Uiso   1.00
H56    H     0.17239   0.30274   0.09541   0.00000  Uiso   1.00
H57    H     0.11247   0.30186   0.15709   0.00000  Uiso   1.00
H58    H     0.07975   0.23475   0.18376   0.00000  Uiso   1.00
H59    H     0.10610   0.16837   0.14907   0.00000  Uiso   1.00
H60    H     0.01670   0.19024   0.21324   0.00000  Uiso   1.00
H61    H     0.07079   0.27824   0.01294   0.00000  Uiso   1.00
H62    H     0.00387   0.31043   0.04782   0.00000  Uiso   1.00
H63    H     0.26712   0.27810   0.03774   0.00000  Uiso   1.00
H64    H     0.26348   0.21259   0.49311   0.00000  Uiso   1.00
H65    H     0.33014   0.17981   0.45797   0.00000  Uiso   1.00
H66    H     0.20765   0.00266   0.21638   0.00000  Uiso   1.00
H67    H     0.24549   0.09846   0.09609   0.00000  Uiso   1.00
H68    H     0.25503   0.10497   0.46113   0.00000  Uiso   1.00
H69    H     0.07360   0.21943   0.40572   0.00000  Uiso   1.00
H70    H     0.18849   0.16922   0.40112   0.00000  Uiso   1.00
H71    H     0.09750   0.16680   0.07119   0.00000  Uiso   1.00
H72    H     0.21644   0.13356   0.42733   0.00000  Uiso   1.00
O73    O     0.16667   0.16667   0.25000   0.00000  Uiso   1.00
O74    O     0.15693   0.12393   0.16625   0.00000  Uiso   1.00
O75    O     0.12687   0.20646   0.33749   0.00000  Uiso   1.00
O76    O     0.21088   0.17493   0.15877   0.00000  Uiso   1.00
O77    O     0.17198   0.16135   0.33749   0.00000  Uiso   1.00
O78    O     0.17849   0.08101   0.27821   0.00000  Uiso   1.00
O79    O     0.14581   0.26136   0.26767   0.00000  Uiso   1.00
O80    O     0.07452   0.13251   0.23607   0.00000  Uiso   1.00
O81    O     0.26785   0.19179   0.21806   0.00000  Uiso   1.00
O82    O     0.06990   0.18960   0.27820   0.00000  Uiso   1.00
O83    O     0.25440   0.15277   0.26768   0.00000  Uiso   1.00
O84    O     0.13800   0.06903   0.23607   0.00000  Uiso   1.00
O85    O     0.20437   0.25527   0.21806   0.00000  Uiso   1.00
Zn86   Zn    0.19244   0.14090   0.28278   0.00000  Uiso   1.00
Zn87   Zn    0.13459   0.12378   0.22257   0.00000  Uiso   1.00
Zn88   Zn    0.21166   0.19664   0.21188   0.00000  Uiso   1.00
Zn89   Zn    0.12798   0.20535   0.28277   0.00000  Uiso   1.00
C90    C     0.38601   0.16030   0.25843   0.00000  Uiso   1.00
C91    C     0.53837   0.13841   0.45887   0.00000  Uiso   1.00
C92    C     0.56098   0.12092   0.47863   0.00000  Uiso   1.00
C93    C     0.61434   0.17343   0.24118   0.00000  Uiso   1.00
C94    C     0.54940   0.12480   0.01972   0.00000  Uiso   1.00
C95    C     0.51425   0.14770   0.04131   0.00000  Uiso   1.00
C96    C     0.57308   0.10743   0.03971   0.00000  Uiso   1.00
C97    C     0.56145   0.11264   0.08062   0.00000  Uiso   1.00
C98    C     0.50820   0.15856   0.08235   0.00000  Uiso   1.00
C99    C     0.66029   0.17506   0.23726   0.00000  Uiso   1.00
C100   C     0.34062   0.15792   0.26265   0.00000  Uiso   1.00
C101   C     0.42650   0.20778   0.42077   0.00000  Uiso   1.00
C102   C     0.51372   0.32213   0.23840   0.00000  Uiso   1.00
C103   C     0.48435   0.01242   0.26231   0.00000  Uiso   1.00
C104   C     0.48939   0.05623   0.25873   0.00000  Uiso   1.00
C105   C     0.51002   0.27765   0.24137   0.00000  Uiso   1.00
C106   C     0.52163   0.14530   0.14414   0.00000  Uiso   1.00
C107   C     0.47845   0.18755   0.35613   0.00000  Uiso   1.00
C108   C     0.46546   0.19237   0.39929   0.00000  Uiso   1.00
C109   C     0.52959   0.13798   0.10176   0.00000  Uiso   1.00
C110   C     0.41219   0.20787   0.46164   0.00000  Uiso   1.00
C111   C     0.61069   0.08440   0.01891   0.00000  Uiso   1.00
C112   C     0.49092   0.17821   0.41879   0.00000  Uiso   1.00
C113   C     0.65259   0.10268   0.01880   0.00000  Uiso   1.00
C114   C     0.35494   0.08116   0.49903   0.00000  Uiso   1.00
C115   C     0.34896   0.04130   0.47941   0.00000  Uiso   1.00
C116   C     0.64064   0.02291   0.47952   0.00000  Uiso   1.00
C117   C     0.60486   0.04429   0.49933   0.00000  Uiso   1.00
C118   C     0.48927   0.19774   0.10277   0.00000  Uiso   1.00
C119   C     0.50723   0.23604   0.08770   0.00000  Uiso   1.00
C120   C     0.49153   0.27339   0.10716   0.00000  Uiso   1.00
C121   C     0.45775   0.27289   0.14188   0.00000  Uiso   1.00
C122   C     0.43928   0.23499   0.15691   0.00000  Uiso   1.00
C123   C     0.47683   0.17582   0.45955   0.00000  Uiso   1.00
C124   C     0.45465   0.19749   0.13737   0.00000  Uiso   1.00
C125   C     0.37189   0.22664   0.48307   0.00000  Uiso   1.00
C126   C     0.37355   0.26357   0.00857   0.00000  Uiso   1.00
C127   C     0.33576   0.28184   0.02836   0.00000  Uiso   1.00
C128   C     0.62949   0.26349   0.02274   0.00000  Uiso   1.00
C129   C     0.62754   0.22670   0.49743   0.00000  Uiso   1.00
C130   C     0.66531   0.20830   0.47752   0.00000  Uiso   1.00
C131   C     0.43676   0.19087   0.48118   0.00000  Uiso   1.00
C132   C     0.50139   0.15864   0.47929   0.00000  Uiso   1.00
C133   C     0.48750   0.16028   0.02087   0.00000  Uiso   1.00
C134   C     0.44582   0.17146   0.04072   0.00000  Uiso   1.00
C135   C     0.42126   0.18696   0.02148   0.00000  Uiso   1.00
F136   F     0.64641   0.13965   0.29392   0.00000  Uiso   1.00
F137   F     0.44930   0.33003   0.29000   0.00000  Uiso   1.00
H138   H     0.38960   0.19522   0.03850   0.00000  Uiso   1.00
H139   H     0.65757   0.13363   0.03376   0.00000  Uiso   1.00
H140   H     0.38721   0.09538   0.49888   0.00000  Uiso   1.00
H141   H     0.37659   0.02463   0.46417   0.00000  Uiso   1.00
H142   H     0.63609   0.32539   0.46431   0.00000  Uiso   1.00
H143   H     0.57272   0.02974   0.49932   0.00000  Uiso   1.00
H144   H     0.53355   0.23687   0.06096   0.00000  Uiso   1.00
H145   H     0.50572   0.30274   0.09541   0.00000  Uiso   1.00
H146   H     0.44580   0.30186   0.15709   0.00000  Uiso   1.00
H147   H     0.41308   0.23475   0.18376   0.00000  Uiso   1.00
H148   H     0.43943   0.16837   0.14907   0.00000  Uiso   1.00
H149   H     0.35003   0.19024   0.21324   0.00000  Uiso   1.00
H150   H     0.40413   0.27824   0.01294   0.00000  Uiso   1.00
H151   H     0.33721   0.31043   0.04782   0.00000  Uiso   1.00
H152   H     0.60045   0.27810   0.03774   0.00000  Uiso   1.00
H153   H     0.59681   0.21259   0.49311   0.00000  Uiso   1.00
H154   H     0.66347   0.17981   0.45797   0.00000  Uiso   1.00
H155   H     0.54099   0.00266   0.21638   0.00000  Uiso   1.00
H156   H     0.57882   0.09846   0.09609   0.00000  Uiso   1.00
H157   H     0.58836   0.10497   0.46113   0.00000  Uiso   1.00
H158   H     0.40693   0.21943   0.40572   0.00000  Uiso   1.00
H159   H     0.52182   0.16922   0.40112   0.00000  Uiso   1.00
H160   H     0.43083   0.16680   0.07119   0.00000  Uiso   1.00
H161   H     0.54977   0.13356   0.42733   0.00000  Uiso   1.00
O162   O     0.50000   0.16667   0.25000   0.00000  Uiso   1.00
O163   O     0.49027   0.12393   0.16625   0.00000  Uiso   1.00
O164   O     0.46020   0.20646   0.33749   0.00000  Uiso   1.00
O165   O     0.54421   0.17493   0.15877   0.00000  Uiso   1.00
O166   O     0.50532   0.16135   0.33749   0.00000  Uiso   1.00
O167   O     0.51182   0.08101   0.27821   0.00000  Uiso   1.00
O168   O     0.47914   0.26136   0.26767   0.00000  Uiso   1.00
O169   O     0.40785   0.13251   0.23607   0.00000  Uiso   1.00
O170   O     0.60119   0.19179   0.21806   0.00000  Uiso   1.00
O171   O     0.40323   0.18960   0.27820   0.00000  Uiso   1.00
O172   O     0.58773   0.15277   0.26768   0.00000  Uiso   1.00
O173   O     0.47133   0.06903   0.23607   0.00000  Uiso   1.00
O174   O     0.53771   0.25527   0.21806   0.00000  Uiso   1.00
Zn175  Zn    0.52577   0.14090   0.28278   0.00000  Uiso   1.00
Zn176  Zn    0.46792   0.12378   0.22257   0.00000  Uiso   1.00
Zn177  Zn    0.54500   0.19664   0.21188   0.00000  Uiso   1.00
Zn178  Zn    0.46131   0.20535   0.28277   0.00000  Uiso   1.00
C179   C     0.71934   0.16030   0.25843   0.00000  Uiso   1.00
C180   C     0.87170   0.13841   0.45887   0.00000  Uiso   1.00
C181   C     0.89431   0.12092   0.47863   0.00000  Uiso   1.00
C182   C     0.94767   0.17343   0.24118   0.00000  Uiso   1.00
C183   C     0.88273   0.12480   0.01972   0.00000  Uiso   1.00
C184   C     0.84759   0.14770   0.04131   0.00000  Uiso   1.00
C185   C     0.90641   0.10743   0.03971   0.00000  Uiso   1.00
C186   C     0.89478   0.11264   0.08062   0.00000  Uiso   1.00
C187   C     0.84154   0.15856   0.08235   0.00000  Uiso   1.00
C188   C     0.99362   0.17506   0.23726   0.00000  Uiso   1.00
C189   C     0.67395   0.15792   0.26265   0.00000  Uiso   1.00
C190   C     0.75983   0.20778   0.42077   0.00000  Uiso   1.00
C191   C     0.84705   0.32213   0.23840   0.00000  Uiso   1.00
C192   C     0.81768   0.01242   0.26231   0.00000  Uiso   1.00
C193   C     0.82272   0.05623   0.25873   0.00000  Uiso   1.00
C194   C     0.84336   0.27765   0.24137   0.00000  Uiso   1.00
C195   C     0.85496   0.14530   0.14414   0.00000  Uiso   1.00
C196   C     0.81178   0.18755   0.35613   0.00000  Uiso   1.00
C197   C     0.79879   0.19237   0.39929   0.00000  Uiso   1.00
C198   C     0.86292   0.13798   0.10176   0.00000  Uiso   1.00
C199   C     0.74552   0.20787   0.46164   0.00000  Uiso   1.00
C200   C     0.94402   0.08440   0.01891   0.00000  Uiso   1.00
C201   C     0.82426   0.17821   0.41879   0.00000  Uiso   1.00
C202   C     0.98592   0.10268   0.01880   0.00000  Uiso   1.00
C203   C     0.68827   0.08116   0.49903   0.00000  Uiso   1.00
C204   C     0.68230   0.04130   0.47941   0.00000  Uiso   1.00
C205   C     0.97398   0.02291   0.47952   0.00000  Uiso   1.00
C206   C     0.93819   0.04429   0.49933   0.00000  Uiso   1.00
C207   C     0.82261   0.19774   0.10277   0.00000  Uiso   1.00
C208   C     0.84056   0.23604   0.08770   0.00000  Uiso   1.00
C209   C     0.82486   0.27339   0.10716   0.00000  Uiso   1.00
C210   C     0.79108   0.27289   0.14188   0.00000  Uiso   1.00
C211   C     0.77261   0.23499   0.15691   0.00000  Uiso   1.00
C212   C     0.81016   0.17582   0.45955   0.00000  Uiso   1.00
C213   C     0.78798   0.19749   0.13737   0.00000  Uiso   1.00
C214   C     0.70522   0.22664   0.48307   0.00000  Uiso   1.00
C215   C     0.70688   0.26357   0.00857   0.00000  Uiso   1.00
C216   C     0.66909   0.28184   0.02836   0.00000  Uiso   1.00
C217   C     0.96282   0.26349   0.02274   0.00000  Uiso   1.00
C218   C     0.96087   0.22670   0.49743   0.00000  Uiso   1.00
C219   C     0.99864   0.20830   0.47752   0.00000  Uiso   1.00
C220   C     0.77009   0.19087   0.48118   0.00000  Uiso   1.00
C221   C     0.83472   0.15864   0.47929   0.00000  Uiso   1.00
C222   C     0.82083   0.16028   0.02087   0.00000  Uiso   1.00
C223   C     0.77915   0.17146   0.04072   0.00000  Uiso   1.00
C224   C     0.75460   0.18696   0.02148   0.00000  Uiso   1.00
F225   F     0.97974   0.13965   0.29392   0.00000  Uiso   1.00
F226   F     0.78264   0.33003   0.29000   0.00000  Uiso   1.00
H227   H     0.72294   0.19522   0.03850   0.00000  Uiso   1.00
H228   H     0.99090   0.13363   0.03376   0.00000  Uiso   1.00
H229   H     0.72054   0.09538   0.49888   0.00000  Uiso   1.00
H230   H     0.70992   0.02463   0.46417   0.00000  Uiso   1.00
H231   H     0.96942   0.32539   0.46431   0.00000  Uiso   1.00
H232   H     0.90605   0.02974   0.49932   0.00000  Uiso   1.00
H233   H     0.86689   0.23687   0.06096   0.00000  Uiso   1.00
H234   H     0.83906   0.30274   0.09541   0.00000  Uiso   1.00
H235   H     0.77913   0.30186   0.15709   0.00000  Uiso   1.00
H236   H     0.74641   0.23475   0.18376   0.00000  Uiso   1.00
H237   H     0.77277   0.16837   0.14907   0.00000  Uiso   1.00
H238   H     0.68337   0.19024   0.21324   0.00000  Uiso   1.00
H239   H     0.73746   0.27824   0.01294   0.00000  Uiso   1.00
H240   H     0.67054   0.31043   0.04782   0.00000  Uiso   1.00
H241   H     0.93378   0.27810   0.03774   0.00000  Uiso   1.00
H242   H     0.93015   0.21259   0.49311   0.00000  Uiso   1.00
H243   H     0.99680   0.17981   0.45797   0.00000  Uiso   1.00
H244   H     0.87432   0.00266   0.21638   0.00000  Uiso   1.00
H245   H     0.91215   0.09846   0.09609   0.00000  Uiso   1.00
H246   H     0.92169   0.10497   0.46113   0.00000  Uiso   1.00
H247   H     0.74027   0.21943   0.40572   0.00000  Uiso   1.00
H248   H     0.85515   0.16922   0.40112   0.00000  Uiso   1.00
H249   H     0.76416   0.16680   0.07119   0.00000  Uiso   1.00
H250   H     0.88310   0.13356   0.42733   0.00000  Uiso   1.00
O251   O     0.83333   0.16667   0.25000   0.00000  Uiso   1.00
O252   O     0.82360   0.12393   0.16625   0.00000  Uiso   1.00
O253   O     0.79354   0.20646   0.33749   0.00000  Uiso   1.00
O254   O     0.87755   0.17493   0.15877   0.00000  Uiso   1.00
O255   O     0.83865   0.16135   0.33749   0.00000  Uiso   1.00
O256   O     0.84515   0.08101   0.27821   0.00000  Uiso   1.00
O257   O     0.81247   0.26136   0.26767   0.00000  Uiso   1.00
O258   O     0.74119   0.13251   0.23607   0.00000  Uiso   1.00
O259   O     0.93452   0.19179   0.21806   0.00000  Uiso   1.00
O260   O     0.73656   0.18960   0.27820   0.00000  Uiso   1.00
O261   O     0.92106   0.15277   0.26768   0.00000  Uiso   1.00
O262   O     0.80467   0.06903   0.23607   0.00000  Uiso   1.00
O263   O     0.87104   0.25527   0.21806   0.00000  Uiso   1.00
Zn264  Zn    0.85910   0.14090   0.28278   0.00000  Uiso   1.00
Zn265  Zn    0.80125   0.12378   0.22257   0.00000  Uiso   1.00
Zn266  Zn    0.87833   0.19664   0.21188   0.00000  Uiso   1.00
Zn267  Zn    0.79465   0.20535   0.28277   0.00000  Uiso   1.00
C268   C     0.05267   0.49363   0.25843   0.00000  Uiso   1.00
C269   C     0.20503   0.47174   0.45887   0.00000  Uiso   1.00
C270   C     0.22765   0.45425   0.47863   0.00000  Uiso   1.00
C271   C     0.28101   0.50676   0.24118   0.00000  Uiso   1.00
C272   C     0.21607   0.45814   0.01972   0.00000  Uiso   1.00
C273   C     0.18092   0.48103   0.04131   0.00000  Uiso   1.00
C274   C     0.23974   0.44076   0.03971   0.00000  Uiso   1.00
C275   C     0.22812   0.44597   0.08062   0.00000  Uiso   1.00
C276   C     0.17487   0.49190   0.08235   0.00000  Uiso   1.00
C277   C     0.32695   0.50839   0.23726   0.00000  Uiso   1.00
C278   C     0.00728   0.49125   0.26265   0.00000  Uiso   1.00
C279   C     0.09317   0.54111   0.42077   0.00000  Uiso   1.00
C280   C     0.18039   0.65546   0.23840   0.00000  Uiso   1.00
C281   C     0.15102   0.34576   0.26231   0.00000  Uiso   1.00
C282   C     0.15605   0.38956   0.25873   0.00000  Uiso   1.00
C283   C     0.17669   0.61099   0.24137   0.00000  Uiso   1.00
C284   C     0.18829   0.47863   0.14414   0.00000  Uiso   1.00
C285   C     0.14511   0.52088   0.35613   0.00000  Uiso   1.00
C286   C     0.13212   0.52570   0.39929   0.00000  Uiso   1.00
C287   C     0.19626   0.47131   0.10176   0.00000  Uiso   1.00
C288   C     0.07885   0.54121   0.46164   0.00000  Uiso   1.00
C289   C     0.27735   0.41774   0.01891   0.00000  Uiso   1.00
C290   C     0.15759   0.51154   0.41879   0.00000  Uiso   1.00
C291   C     0.31926   0.43601   0.01880   0.00000  Uiso   1.00
C292   C     0.02160   0.41449   0.49903   0.00000  Uiso   1.00
C293   C     0.01563   0.37463   0.47941   0.00000  Uiso   1.00
C294   C     0.30731   0.35625   0.47952   0.00000  Uiso   1.00
C295   C     0.27153   0.37762   0.49933   0.00000  Uiso   1.00
C296   C     0.15594   0.53108   0.10277   0.00000  Uiso   1.00
C297   C     0.17389   0.56937   0.08770   0.00000  Uiso   1.00
C298   C     0.15820   0.60672   0.10716   0.00000  Uiso   1.00
C299   C     0.12441   0.60623   0.14188   0.00000  Uiso   1.00
C300   C     0.10594   0.56832   0.15691   0.00000  Uiso   1.00
C301   C     0.14350   0.50915   0.45955   0.00000  Uiso   1.00
C302   C     0.12131   0.53082   0.13737   0.00000  Uiso   1.00
C303   C     0.03856   0.55997   0.48307   0.00000  Uiso   1.00
C304   C     0.04022   0.59690   0.00857   0.00000  Uiso   1.00
C305   C     0.00242   0.61518   0.02836   0.00000  Uiso   1.00
C306   C     0.29615   0.59682   0.02274   0.00000  Uiso   1.00
C307   C     0.29421   0.56003   0.49743   0.00000  Uiso   1.00
C308   C     0.33198   0.54164   0.47752   0.00000  Uiso   1.00
C309   C     0.10343   0.52421   0.48118   0.00000  Uiso   1.00
C310   C     0.16805   0.49197   0.47929   0.00000  Uiso   1.00
C311   C     0.15417   0.49361   0.02087   0.00000  Uiso   1.00
C312   C     0.11249   0.50479   0.04072   0.00000  Uiso   1.00
C313   C     0.08793   0.52029   0.02148   0.00000  Uiso   1.00
F314   F     0.31307   0.47298   0.29392   0.00000  Uiso   1.00
F315   F     0.11597   0.66336   0.29000   0.00000  Uiso   1.00
H316   H     0.05627   0.52855   0.03850   0.00000  Uiso   1.00
H317   H     0.32424   0.46696   0.03376   0.00000  Uiso   1.00
H318   H     0.05387   0.42871   0.49888   0.00000  Uiso   1.00
H319   H     0.04326   0.35796   0.46417   0.00000  Uiso   1.00
H320   H     0.30275   0.65872   0.46431   0.00000  Uiso   1.00
H321   H     0.23938   0.36307   0.49932   0.00000  Uiso   1.00
H322   H     0.20022   0.57020   0.06096   0.00000  Uiso   1.00
H323   H     0.17239   0.63607   0.09541   0.00000  Uiso   1.00
H324   H     0.11247   0.63520   0.15709   0.00000  Uiso   1.00
H325   H     0.07975   0.56809   0.18376   0.00000  Uiso   1.00
H326   H     0.10610   0.50170   0.14907   0.00000  Uiso   1.00
H327   H     0.01670   0.52358   0.21324   0.00000  Uiso   1.00
H328   H     0.07079   0.61157   0.01294   0.00000  Uiso   1.00
H329   H     0.00387   0.64376   0.04782   0.00000  Uiso   1.00
H330   H     0.26712   0.61144   0.03774   0.00000  Uiso   1.00
H331   H     0.26348   0.54592   0.49311   0.00000  Uiso   1.00
H332   H     0.33014   0.51315   0.45797   0.00000  Uiso   1.00
H333   H     0.20765   0.33599   0.21638   0.00000  Uiso   1.00
H334   H     0.24549   0.43179   0.09609   0.00000  Uiso   1.00
H335   H     0.25503   0.43830   0.46113   0.00000  Uiso   1.00
H336   H     0.07360   0.55276   0.40572   0.00000  Uiso   1.00
H337   H     0.18849   0.50255   0.40112   0.00000  Uiso   1.00
H338   H     0.09750   0.50013   0.07119   0.00000  Uiso   1.00
H339   H     0.21644   0.46689   0.42733   0.00000  Uiso   1.00
O340   O     0.16667   0.50000   0.25000   0.00000  Uiso   1.00
O341   O     0.15693   0.45726   0.16625   0.00000  Uiso   1.00
O342   O     0.12687   0.53979   0.33749   0.00000  Uiso   1.00
O343   O     0.21088   0.50826   0.15877   0.00000  Uiso   1.00
O344   O     0.17198   0.49468   0.33749   0.00000  Uiso   1.00
O345   O     0.17849   0.41434   0.27821   0.00000  Uiso   1.00
O346   O     0.14581   0.59469   0.26767   0.00000  Uiso   1.00
O347   O     0.07452   0.46584   0.23607   0.00000  Uiso   1.00
O348   O     0.26785   0.52512   0.21806   0.00000  Uiso   1.00
O349   O     0.06990   0.52293   0.27820   0.00000  Uiso   1.00
O350   O     0.25440   0.48610   0.26768   0.00000  Uiso   1.00
O351   O     0.13800   0.40236   0.23607   0.00000  Uiso   1.00
O352   O     0.20437   0.58860   0.21806   0.00000  Uiso   1.00
Zn353  Zn    0.19244   0.47423   0.28278   0.00000  Uiso   1.00
Zn354  Zn    0.13459   0.45711   0.22257   0.00000  Uiso   1.00
Zn355  Zn    0.21166   0.52997   0.21188   0.00000  Uiso   1.00
Zn356  Zn    0.12798   0.53868   0.28277   0.00000  Uiso   1.00
C357   C     0.38601   0.49363   0.25843   0.00000  Uiso   1.00
C358   C     0.53837   0.47174   0.45887   0.00000  Uiso   1.00
C359   C     0.56098   0.45425   0.47863   0.00000  Uiso   1.00
C360   C     0.61434   0.50676   0.24118   0.00000  Uiso   1.00
C361   C     0.54940   0.45814   0.01972   0.00000  Uiso   1.00
C362   C     0.51425   0.48103   0.04131   0.00000  Uiso   1.00
C363   C     0.57308   0.44076   0.03971   0.00000  Uiso   1.00
C364   C     0.56145   0.44597   0.08062   0.00000  Uiso   1.00
C365   C     0.50820   0.49190   0.08235   0.00000  Uiso   1.00
C366   C     0.66029   0.50839   0.23726   0.00000  Uiso   1.00
C367   C     0.34062   0.49125   0.26265   0.00000  Uiso   1.00
C368   C     0.42650   0.54111   0.42077   0.00000  Uiso   1.00
C369   C     0.51372   0.65546   0.23840   0.00000  Uiso   1.00
C370   C     0.48435   0.34576   0.26231   0.00000  Uiso   1.00
C371   C     0.48939   0.38956   0.25873   0.00000  Uiso   1.00
C372   C     0.51002   0.61099   0.24137   0.00000  Uiso   1.00
C373   C     0.52163   0.47863   0.14414   0.00000  Uiso   1.00
C374   C     0.47845   0.52088   0.35613   0.00000  Uiso   1.00
C375   C     0.46546   0.52570   0.39929   0.00000  Uiso   1.00
C376   C     0.52959   0.47131   0.10176   0.00000  Uiso   1.00
C377   C     0.41219   0.54121   0.46164   0.00000  Uiso   1.00
C378   C     0.61069   0.41774   0.01891   0.00000  Uiso   1.00
C379   C     0.49092   0.51154   0.41879   0.00000  Uiso   1.00
C380   C     0.65259   0.43601   0.01880   0.00000  Uiso   1.00
C381   C     0.35494   0.41449   0.49903   0.00000  Uiso   1.00
C382   C     0.34896   0.37463   0.47941   0.00000  Uiso   1.00
C383   C     0.64064   0.35625   0.47952   0.00000  Uiso   1.00
C384   C     0.60486   0.37762   0.49933   0.00000  Uiso   1.00
C385   C     0.48927   0.53108   0.10277   0.00000  Uiso   1.00
C386   C     0.50723   0.56937   0.08770   0.00000  Uiso   1.00
C387   C     0.49153   0.60672   0.10716   0.00000  Uiso   1.00
C388   C     0.45775   0.60623   0.14188   0.00000  Uiso   1.00
C389   C     0.43928   0.56832   0.15691   0.00000  Uiso   1.00
C390   C     0.47683   0.50915   0.45955   0.00000  Uiso   1.00
C391   C     0.45465   0.53082   0.13737   0.00000  Uiso   1.00
C392   C     0.37189   0.55997   0.48307   0.00000  Uiso   1.00
C393   C     0.37355   0.59690   0.00857   0.00000  Uiso   1.00
C394   C     0.33576   0.61518   0.02836   0.00000  Uiso   1.00
C395   C     0.62949   0.59682   0.02274   0.00000  Uiso   1.00
C396   C     0.62754   0.56003   0.49743   0.00000  Uiso   1.00
C397   C     0.66531   0.54164   0.47752   0.00000  Uiso   1.00
C398   C     0.43676   0.52421   0.48118   0.00000  Uiso   1.00
C399   C     0.50139   0.49197   0.47929   0.00000  Uiso   1.00
C400   C     0.48750   0.49361   0.02087   0.00000  Uiso   1.00
C401   C     0.44582   0.50479   0.04072   0.00000  Uiso   1.00
C402   C     0.42126   0.52029   0.02148   0.00000  Uiso   1.00
F403   F     0.64641   0.47298   0.29392   0.00000  Uiso   1.00
F404   F     0.44930   0.66336   0.29000   0.00000  Uiso   1.00
H405   H     0.38960   0.52855   0.03850   0.00000  Uiso   1.00
H406   H     0.65757   0.46696   0.03376   0.00000  Uiso   1.00
H407   H     0.38721   0.42871   0.49888   0.00000  Uiso   1.00
H408   H     0.37659   0.35796   0.46417   0.00000  Uiso   1.00
H409   H     0.63609   0.65872   0.46431   0.00000  Uiso   1.00
H410   H     0.57272   0.36307   0.49932   0.00000  Uiso   1.00
H411   H     0.53355   0.57020   0.06096   0.00000  Uiso   1.00
H412   H     0.50572   0.63607   0.09541   0.00000  Uiso   1.00
H413   H     0.44580   0.63520   0.15709   0.00000  Uiso   1.00
H414   H     0.41308   0.56809   0.18376   0.00000  Uiso   1.00
H415   H     0.43943   0.50170   0.14907   0.00000  Uiso   1.00
H416   H     0.35003   0.52358   0.21324   0.00000  Uiso   1.00
H417   H     0.40413   0.61157   0.01294   0.00000  Uiso   1.00
H418   H     0.33721   0.64376   0.04782   0.00000  Uiso   1.00
H419   H     0.60045   0.61144   0.03774   0.00000  Uiso   1.00
H420   H     0.59681   0.54592   0.49311   0.00000  Uiso   1.00
H421   H     0.66347   0.51315   0.45797   0.00000  Uiso   1.00
H422   H     0.54099   0.33599   0.21638   0.00000  Uiso   1.00
H423   H     0.57882   0.43179   0.09609   0.00000  Uiso   1.00
H424   H     0.58836   0.43830   0.46113   0.00000  Uiso   1.00
H425   H     0.40693   0.55276   0.40572   0.00000  Uiso   1.00
H426   H     0.52182   0.50255   0.40112   0.00000  Uiso   1.00
H427   H     0.43083   0.50013   0.07119   0.00000  Uiso   1.00
H428   H     0.54977   0.46689   0.42733   0.00000  Uiso   1.00
O429   O     0.50000   0.50000   0.25000   0.00000  Uiso   1.00
O430   O     0.49027   0.45726   0.16625   0.00000  Uiso   1.00
O431   O     0.46020   0.53979   0.33749   0.00000  Uiso   1.00
O432   O     0.54421   0.50826   0.15877   0.00000  Uiso   1.00
O433   O     0.50532   0.49468   0.33749   0.00000  Uiso   1.00
O434   O     0.51182   0.41434   0.27821   0.00000  Uiso   1.00
O435   O     0.47914   0.59469   0.26767   0.00000  Uiso   1.00
O436   O     0.40785   0.46584   0.23607   0.00000  Uiso   1.00
O437   O     0.60119   0.52512   0.21806   0.00000  Uiso   1.00
O438   O     0.40323   0.52293   0.27820   0.00000  Uiso   1.00
O439   O     0.58773   0.48610   0.26768   0.00000  Uiso   1.00
O440   O     0.47133   0.40236   0.23607   0.00000  Uiso   1.00
O441   O     0.53771   0.58860   0.21806   0.00000  Uiso   1.00
Zn442  Zn    0.52577   0.47423   0.28278   0.00000  Uiso   1.00
Zn443  Zn    0.46792   0.45711   0.22257   0.00000  Uiso   1.00
Zn444  Zn    0.54500   0.52997   0.21188   0.00000  Uiso   1.00
Zn445  Zn    0.46131   0.53868   0.28277   0.00000  Uiso   1.00
C446   C     0.71934   0.49363   0.25843   0.00000  Uiso   1.00
C447   C     0.87170   0.47174   0.45887   0.00000  Uiso   1.00
C448   C     0.89431   0.45425   0.47863   0.00000  Uiso   1.00
C449   C     0.94767   0.50676   0.24118   0.00000  Uiso   1.00
C450   C     0.88273   0.45814   0.01972   0.00000  Uiso   1.00
C451   C     0.84759   0.48103   0.04131   0.00000  Uiso   1.00
C452   C     0.90641   0.44076   0.03971   0.00000  Uiso   1.00
C453   C     0.89478   0.44597   0.08062   0.00000  Uiso   1.00
C454   C     0.84154   0.49190   0.08235   0.00000  Uiso   1.00
C455   C     0.99362   0.50839   0.23726   0.00000  Uiso   1.00
C456   C     0.67395   0.49125   0.26265   0.00000  Uiso   1.00
C457   C     0.75983   0.54111   0.42077   0.00000  Uiso   1.00
C458   C     0.84705   0.65546   0.23840   0.00000  Uiso   1.00
C459   C     0.81768   0.34576   0.26231   0.00000  Uiso   1.00
C460   C     0.82272   0.38956   0.25873   0.00000  Uiso   1.00
C461   C     0.84336   0.61099   0.24137   0.00000  Uiso   1.00
C462   C     0.85496   0.47863   0.14414   0.00000  Uiso   1.00
C463   C     0.81178   0.52088   0.35613   0.00000  Uiso   1.00
C464   C     0.79879   0.52570   0.39929   0.00000  Uiso   1.00
C465   C     0.86292   0.47131   0.10176   0.00000  Uiso   1.00
C466   C     0.74552   0.54121   0.46164   0.00000  Uiso   1.00
C467   C     0.94402   0.41774   0.01891   0.00000  Uiso   1.00
C468   C     0.82426   0.51154   0.41879   0.00000  Uiso   1.00
C469   C     0.98592   0.43601   0.01880   0.00000  Uiso   1.00
C470   C     0.68827   0.41449   0.49903   0.00000  Uiso   1.00
C471   C     0.68230   0.37463   0.47941   0.00000  Uiso   1.00
C472   C     0.97398   0.35625   0.47952   0.00000  Uiso   1.00
C473   C     0.93819   0.37762   0.49933   0.00000  Uiso   1.00
C474   C     0.82261   0.53108   0.10277   0.00000  Uiso   1.00
C475   C     0.84056   0.56937   0.08770   0.00000  Uiso   1.00
C476   C     0.82486   0.60672   0.10716   0.00000  Uiso   1.00
C477   C     0.79108   0.60623   0.14188   0.00000  Uiso   1.00
C478   C     0.77261   0.56832   0.15691   0.00000  Uiso   1.00
C479   C     0.81016   0.50915   0.45955   0.00000  Uiso   1.00
C480   C     0.78798   0.53082   0.13737   0.00000  Uiso   1.00
C481   C     0.70522   0.55997   0.48307   0.00000  Uiso   1.00
C482   C     0.70688   0.59690   0.00857   0.00000  Uiso   1.00
C483   C     0.66909   0.61518   0.02836   0.00000  Uiso   1.00
C484   C     0.96282   0.59682   0.02274   0.00000  Uiso   1.00
C485   C     0.96087   0.56003   0.49743   0.00000  Uiso   1.00
C486   C     0.99864   0.54164   0.47752   0.00000  Uiso   1.00
C487   C     0.77009   0.52421   0.48118   0.00000  Uiso   1.00
C488   C     0.83472   0.49197   0.47929   0.00000  Uiso   1.00
C489   C     0.82083   0.49361   0.02087   0.00000  Uiso   1.00
C490   C     0.77915   0.50479   0.04072   0.00000  Uiso   1.00
C491   C     0.75460   0.52029   0.02148   0.00000  Uiso   1.00
F492   F     0.97974   0.47298   0.29392   0.00000  Uiso   1.00
F493   F     0.78264   0.66336   0.29000   0.00000  Uiso   1.00
H494   H     0.72294   0.52855   0.03850   0.00000  Uiso   1.00
H495   H     0.99090   0.46696   0.03376   0.00000  Uiso   1.00
H496   H     0.72054   0.42871   0.49888   0.00000  Uiso   1.00
H497   H     0.70992   0.35796   0.46417   0.00000  Uiso   1.00
H498   H     0.96942   0.65872   0.46431   0.00000  Uiso   1.00
H499   H     0.90605   0.36307   0.49932   0.00000  Uiso   1.00
H500   H     0.86689   0.57020   0.06096   0.00000  Uiso   1.00
H501   H     0.83906   0.63607   0.09541   0.00000  Uiso   1.00
H502   H     0.77913   0.63520   0.15709   0.00000  Uiso   1.00
H503   H     0.74641   0.56809   0.18376   0.00000  Uiso   1.00
H504   H     0.77277   0.50170   0.14907   0.00000  Uiso   1.00
H505   H     0.68337   0.52358   0.21324   0.00000  Uiso   1.00
H506   H     0.73746   0.61157   0.01294   0.00000  Uiso   1.00
H507   H     0.67054   0.64376   0.04782   0.00000  Uiso   1.00
H508   H     0.93378   0.61144   0.03774   0.00000  Uiso   1.00
H509   H     0.93015   0.54592   0.49311   0.00000  Uiso   1.00
H510   H     0.99680   0.51315   0.45797   0.00000  Uiso   1.00
H511   H     0.87432   0.33599   0.21638   0.00000  Uiso   1.00
H512   H     0.91215   0.43179   0.09609   0.00000  Uiso   1.00
H513   H     0.92169   0.43830   0.46113   0.00000  Uiso   1.00
H514   H     0.74027   0.55276   0.40572   0.00000  Uiso   1.00
H515   H     0.85515   0.50255   0.40112   0.00000  Uiso   1.00
H516   H     0.76416   0.50013   0.07119   0.00000  Uiso   1.00
H517   H     0.88310   0.46689   0.42733   0.00000  Uiso   1.00
O518   O     0.83333   0.50000   0.25000   0.00000  Uiso   1.00
O519   O     0.82360   0.45726   0.16625   0.00000  Uiso   1.00
O520   O     0.79354   0.53979   0.33749   0.00000  Uiso   1.00
O521   O     0.87755   0.50826   0.15877   0.00000  Uiso   1.00
O522   O     0.83865   0.49468   0.33749   0.00000  Uiso   1.00
O523   O     0.84515   0.41434   0.27821   0.00000  Uiso   1.00
O524   O     0.81247   0.59469   0.26767   0.00000  Uiso   1.00
O525   O     0.74119   0.46584   0.23607   0.00000  Uiso   1.00
O526   O     0.93452   0.52512   0.21806   0.00000  Uiso   1.00
O527   O     0.73656   0.52293   0.27820   0.00000  Uiso   1.00
O528   O     0.92106   0.48610   0.26768   0.00000  Uiso   1.00
O529   O     0.80467   0.40236   0.23607   0.00000  Uiso   1.00
O530   O     0.87104   0.58860   0.21806   0.00000  Uiso   1.00
Zn531  Zn    0.85910   0.47423   0.28278   0.00000  Uiso   1.00
Zn532  Zn    0.80125   0.45711   0.22257   0.00000  Uiso   1.00
Zn533  Zn    0.87833   0.52997   0.21188   0.00000  Uiso   1.00
Zn534  Zn    0.79465   0.53868   0.28277   0.00000  Uiso   1.00
C535   C     0.05267   0.82697   0.25843   0.00000  Uiso   1.00
C536   C     0.20503   0.80508   0.45887   0.00000  Uiso   1.00
C537   C     0.22765   0.78758   0.47863   0.00000  Uiso   1.00
C538   C     0.28101   0.84009   0.24118   0.00000  Uiso   1.00
C539   C     0.21607   0.79147   0.01972   0.00000  Uiso   1.00
C540   C     0.18092   0.81437   0.04131   0.00000  Uiso   1.00
C541   C     0.23974   0.77409   0.03971   0.00000  Uiso   1.00
C542   C     0.22812   0.77930   0.08062   0.00000  Uiso   1.00
C543   C     0.17487   0.82523   0.08235   0.00000  Uiso   1.00
C544   C     0.32695   0.84172   0.23726   0.00000  Uiso   1.00
C545   C     0.00728   0.82459   0.26265   0.00000  Uiso   1.00
C546   C     0.09317   0.87444   0.42077   0.00000  Uiso   1.00
C547   C     0.18039   0.98879   0.23840   0.00000  Uiso   1.00
C548   C     0.15102   0.67909   0.26231   0.00000  Uiso   1.00
C549   C     0.15605   0.72290   0.25873   0.00000  Uiso   1.00
C550   C     0.17669   0.94432   0.24137   0.00000  Uiso   1.00
C551   C     0.18829   0.81196   0.14414   0.00000  Uiso   1.00
C552   C     0.14511   0.85422   0.35613   0.00000  Uiso   1.00
C553   C     0.13212   0.85904   0.39929   0.00000  Uiso   1.00
C554   C     0.19626   0.80464   0.10176   0.00000  Uiso   1.00
C555   C     0.07885   0.87454   0.46164   0.00000  Uiso   1.00
C556   C     0.27735   0.75107   0.01891   0.00000  Uiso   1.00
C557   C     0.15759   0.84487   0.41879   0.00000  Uiso   1.00
C558   C     0.31926   0.76934   0.01880   0.00000  Uiso   1.00
C559   C     0.02160   0.74783   0.49903   0.00000  Uiso   1.00
C560   C     0.01563   0.70797   0.47941   0.00000  Uiso   1.00
C561   C     0.30731   0.68958   0.47952   0.00000  Uiso   1.00
C562   C     0.27153   0.71095   0.49933   0.00000  Uiso   1.00
C563   C     0.15594   0.86441   0.10277   0.00000  Uiso   1.00
C564   C     0.17389   0.90270   0.08770   0.00000  Uiso   1.00
C565   C     0.15820   0.94005   0.10716   0.00000  Uiso   1.00
C566   C     0.12441   0.93956   0.14188   0.00000  Uiso   1.00
C567   C     0.10594   0.90166   0.15691   0.00000  Uiso   1.00
C568   C     0.14350   0.84249   0.45955   0.00000  Uiso   1.00
C569   C     0.12131   0.86415   0.13737   0.00000  Uiso   1.00
C570   C     0.03856   0.89330   0.48307   0.00000  Uiso   1.00
C571   C     0.04022   0.93023   0.00857   0.00000  Uiso   1.00
C572   C     0.00242   0.94851   0.02836   0.00000  Uiso   1.00
C573   C     0.29615   0.93016   0.02274   0.00000  Uiso   1.00
C574   C     0.29421   0.89336   0.49743   0.00000  Uiso   1.00
C575   C     0.33198   0.87497   0.47752   0.00000  Uiso   1.00
C576   C     0.10343   0.85754   0.48118   0.00000  Uiso   1.00
C577   C     0.16805   0.82530   0.47929   0.00000  Uiso   1.00
C578   C     0.15417   0.82694   0.02087   0.00000  Uiso   1.00
C579   C     0.11249   0.83812   0.04072   0.00000  Uiso   1.00
C580   C     0.08793   0.85362   0.02148   0.00000  Uiso   1.00
F581   F     0.31307   0.80631   0.29392   0.00000  Uiso   1.00
F582   F     0.11597   0.99669   0.29000   0.00000  Uiso   1.00
H583   H     0.05627   0.86188   0.03850   0.00000  Uiso   1.00
H584   H     0.32424   0.80029   0.03376   0.00000  Uiso   1.00
H585   H     0.05387   0.76205   0.49888   0.00000  Uiso   1.00
H586   H     0.04326   0.69129   0.46417   0.00000  Uiso   1.00
H587   H     0.30275   0.99205   0.46431   0.00000  Uiso   1.00
H588   H     0.23938   0.69641   0.49932   0.00000  Uiso   1.00
H589   H     0.20022   0.90353   0.06096   0.00000  Uiso   1.00
H590   H     0.17239   0.96940   0.09541   0.00000  Uiso   1.00
H591   H     0.11247   0.96853   0.15709   0.00000  Uiso   1.00
H592   H     0.07975   0.90142   0.18376   0.00000  Uiso   1.00
H593   H     0.10610   0.83504   0.14907   0.00000  Uiso   1.00
H594   H     0.01670   0.85691   0.21324   0.00000  Uiso   1.00
H595   H     0.07079   0.94490   0.01294   0.00000  Uiso   1.00
H596   H     0.00387   0.97710   0.04782   0.00000  Uiso   1.00
H597   H     0.26712   0.94477   0.03774   0.00000  Uiso   1.00
H598   H     0.26348   0.87926   0.49311   0.00000  Uiso   1.00
H599   H     0.33014   0.84648   0.45797   0.00000  Uiso   1.00
H600   H     0.20765   0.66932   0.21638   0.00000  Uiso   1.00
H601   H     0.24549   0.76513   0.09609   0.00000  Uiso   1.00
H602   H     0.25503   0.77164   0.46113   0.00000  Uiso   1.00
H603   H     0.07360   0.88610   0.40572   0.00000  Uiso   1.00
H604   H     0.18849   0.83589   0.40112   0.00000  Uiso   1.00
H605   H     0.09750   0.83347   0.07119   0.00000  Uiso   1.00
H606   H     0.21644   0.80022   0.42733   0.00000  Uiso   1.00
O607   O     0.16667   0.83333   0.25000   0.00000  Uiso   1.00
O608   O     0.15693   0.79060   0.16625   0.00000  Uiso   1.00
O609   O     0.12687   0.87313   0.33749   0.00000  Uiso   1.00
O610   O     0.21088   0.84159   0.15877   0.00000  Uiso   1.00
O611   O     0.17198   0.82802   0.33749   0.00000  Uiso   1.00
O612   O     0.17849   0.74768   0.27821   0.00000  Uiso   1.00
O613   O     0.14581   0.92803   0.26767   0.00000  Uiso   1.00
O614   O     0.07452   0.79917   0.23607   0.00000  Uiso   1.00
O615   O     0.26785   0.85845   0.21806   0.00000  Uiso   1.00
O616   O     0.06990   0.85627   0.27820   0.00000  Uiso   1.00
O617   O     0.25440   0.81944   0.26768   0.00000  Uiso   1.00
O618   O     0.13800   0.73570   0.23607   0.00000  Uiso   1.00
O619   O     0.20437   0.92193   0.21806   0.00000  Uiso   1.00
Zn620  Zn    0.19244   0.80756   0.28278   0.00000  Uiso   1.00
Zn621  Zn    0.13459   0.79044   0.22257   0.00000  Uiso   1.00
Zn622  Zn    0.21166   0.86331   0.21188   0.00000  Uiso   1.00
Zn623  Zn    0.12798   0.87202   0.28277   0.00000  Uiso   1.00
C624   C     0.38601   0.82697   0.25843   0.00000  Uiso   1.00
C625   C     0.53837   0.80508   0.45887   0.00000  Uiso   1.00
C626   C     0.56098   0.78758   0.47863   0.00000  Uiso   1.00
C627   C     0.61434   0.84009   0.24118   0.00000  Uiso   1.00
C628   C     0.54940   0.79147   0.01972   0.00000  Uiso   1.00
C629   C     0.51425   0.81437   0.04131   0.00000  Uiso   1.00
C630   C     0.57308   0.77409   0.03971   0.00000  Uiso   1.00
C631   C     0.56145   0.77930   0.08062   0.00000  Uiso   1.00
C632   C     0.50820   0.82523   0.08235   0.00000  Uiso   1.00
C633   C     0.66029   0.84172   0.23726   0.00000  Uiso   1.00
C634   C     0.34062   0.82459   0.26265   0.00000  Uiso   1.00
C635   C     0.42650   0.87444   0.42077   0.00000  Uiso   1.00
C636   C     0.51372   0.98879   0.23840   0.00000  Uiso   1.00
C637   C     0.48435   0.67909   0.26231   0.00000  Uiso   1.00
C638   C     0.48939   0.72290   0.25873   0.00000  Uiso   1.00
C639   C     0.51002   0.94432   0.24137   0.00000  Uiso   1.00
C640   C     0.52163   0.81196   0.14414   0.00000  Uiso   1.00
C641   C     0.47845   0.85422   0.35613   0.00000  Uiso   1.00
C642   C     0.46546   0.85904   0.39929   0.00000  Uiso   1.00
C643   C     0.52959   0.80464   0.10176   0.00000  Uiso   1.00
C644   C     0.41219   0.87454   0.46164   0.00000  Uiso   1.00
C645   C     0.61069   0.75107   0.01891   0.00000  Uiso   1.00
C646   C     0.49092   0.84487   0.41879   0.00000  Uiso   1.00
C647   C     0.65259   0.76934   0.01880   0.00000  Uiso   1.00
C648   C     0.35494   0.74783   0.49903   0.00000  Uiso   1.00
C649   C     0.34896   0.70797   0.47941   0.00000  Uiso   1.00
C650   C     0.64064   0.68958   0.47952   0.00000  Uiso   1.00
C651   C     0.60486   0.71095   0.49933   0.00000  Uiso   1.00
C652   C     0.48927   0.86441   0.10277   0.00000  Uiso   1.00
C653   C     0.50723   0.90270   0.08770   0.00000  Uiso   1.00
C654   C     0.49153   0.94005   0.10716   0.00000  Uiso   1.00
C655   C     0.45775   0.93956   0.14188   0.00000  Uiso   1.00
C656   C     0.43928   0.90166   0.15691   0.00000  Uiso   1.00
C657   C     0.47683   0.84249   0.45955   0.00000  Uiso   1.00
C658   C     0.45465   0.86415   0.13737   0.00000  Uiso   1.00
C659   C     0.37189   0.89330   0.48307   0.00000  Uiso   1.00
C660   C     0.37355   0.93023   0.00857   0.00000  Uiso   1.00
C661   C     0.33576   0.94851   0.02836   0.00000  Uiso   1.00
C662   C     0.62949   0.93016   0.02274   0.00000  Uiso   1.00
C663   C     0.62754   0.89336   0.49743   0.00000  Uiso   1.00
C664   C     0.66531   0.87497   0.47752   0.00000  Uiso   1.00
C665   C     0.43676   0.85754   0.48118   0.00000  Uiso   1.00
C666   C     0.50139   0.82530   0.47929   0.00000  Uiso   1.00
C667   C     0.48750   0.82694   0.02087   0.00000  Uiso   1.00
C668   C     0.44582   0.83812   0.04072   0.00000  Uiso   1.00
C669   C     0.42126   0.85362   0.02148   0.00000  Uiso   1.00
F670   F     0.64641   0.80631   0.29392   0.00000  Uiso   1.00
F671   F     0.44930   0.99669   0.29000   0.00000  Uiso   1.00
H672   H     0.38960   0.86188   0.03850   0.00000  Uiso   1.00
H673   H     0.65757   0.80029   0.03376   0.00000  Uiso   1.00
H674   H     0.38721   0.76205   0.49888   0.00000  Uiso   1.00
H675   H     0.37659   0.69129   0.46417   0.00000  Uiso   1.00
H676   H     0.63609   0.99205   0.46431   0.00000  Uiso   1.00
H677   H     0.57272   0.69641   0.49932   0.00000  Uiso   1.00
H678   H     0.53355   0.90353   0.06096   0.00000  Uiso   1.00
H679   H     0.50572   0.96940   0.09541   0.00000  Uiso   1.00
H680   H     0.44580   0.96853   0.15709   0.00000  Uiso   1.00
H681   H     0.41308   0.90142   0.18376   0.00000  Uiso   1.00
H682   H     0.43943   0.83504   0.14907   0.00000  Uiso   1.00
H683   H     0.35003   0.85691   0.21324   0.00000  Uiso   1.00
H684   H     0.40413   0.94490   0.01294   0.00000  Uiso   1.00
H685   H     0.33721   0.97710   0.04782   0.00000  Uiso   1.00
H686   H     0.60045   0.94477   0.03774   0.00000  Uiso   1.00
H687   H     0.59681   0.87926   0.49311   0.00000  Uiso   1.00
H688   H     0.66347   0.84648   0.45797   0.00000  Uiso   1.00
H689   H     0.54099   0.66932   0.21638   0.00000  Uiso   1.00
H690   H     0.57882   0.76513   0.09609   0.00000  Uiso   1.00
H691   H     0.58836   0.77164   0.46113   0.00000  Uiso   1.00
H692   H     0.40693   0.88610   0.40572   0.00000  Uiso   1.00
H693   H     0.52182   0.83589   0.40112   0.00000  Uiso   1.00
H694   H     0.43083   0.83347   0.07119   0.00000  Uiso   1.00
H695   H     0.54977   0.80022   0.42733   0.00000  Uiso   1.00
O696   O     0.50000   0.83333   0.25000   0.00000  Uiso   1.00
O697   O     0.49027   0.79060   0.16625   0.00000  Uiso   1.00
O698   O     0.46020   0.87313   0.33749   0.00000  Uiso   1.00
O699   O     0.54421   0.84159   0.15877   0.00000  Uiso   1.00
O700   O     0.50532   0.82802   0.33749   0.00000  Uiso   1.00
O701   O     0.51182   0.74768   0.27821   0.00000  Uiso   1.00
O702   O     0.47914   0.92803   0.26767   0.00000  Uiso   1.00
O703   O     0.40785   0.79917   0.23607   0.00000  Uiso   1.00
O704   O     0.60119   0.85845   0.21806   0.00000  Uiso   1.00
O705   O     0.40323   0.85627   0.27820   0.00000  Uiso   1.00
O706   O     0.58773   0.81944   0.26768   0.00000  Uiso   1.00
O707   O     0.47133   0.73570   0.23607   0.00000  Uiso   1.00
O708   O     0.53771   0.92193   0.21806   0.00000  Uiso   1.00
Zn709  Zn    0.52577   0.80756   0.28278   0.00000  Uiso   1.00
Zn710  Zn    0.46792   0.79044   0.22257   0.00000  Uiso   1.00
Zn711  Zn    0.54500   0.86331   0.21188   0.00000  Uiso   1.00
Zn712  Zn    0.46131   0.87202   0.28277   0.00000  Uiso   1.00
C713   C     0.71934   0.82697   0.25843   0.00000  Uiso   1.00
C714   C     0.87170   0.80508   0.45887   0.00000  Uiso   1.00
C715   C     0.89431   0.78758   0.47863   0.00000  Uiso   1.00
C716   C     0.94767   0.84009   0.24118   0.00000  Uiso   1.00
C717   C     0.88273   0.79147   0.01972   0.00000  Uiso   1.00
C718   C     0.84759   0.81437   0.04131   0.00000  Uiso   1.00
C719   C     0.90641   0.77409   0.03971   0.00000  Uiso   1.00
C720   C     0.89478   0.77930   0.08062   0.00000  Uiso   1.00
C721   C     0.84154   0.82523   0.08235   0.00000  Uiso   1.00
C722   C     0.99362   0.84172   0.23726   0.00000  Uiso   1.00
C723   C     0.67395   0.82459   0.26265   0.00000  Uiso   1.00
C724   C     0.75983   0.87444   0.42077   0.00000  Uiso   1.00
C725   C     0.84705   0.98879   0.23840   0.00000  Uiso   1.00
C726   C     0.81768   0.67909   0.26231   0.00000  Uiso   1.00
C727   C     0.82272   0.72290   0.25873   0.00000  Uiso   1.00
C728   C     0.84336   0.94432   0.24137   0.00000  Uiso   1.00
C729   C     0.85496   0.81196   0.14414   0.00000  Uiso   1.00
C730   C     0.81178   0.85422   0.35613   0.00000  Uiso   1.00
C731   C     0.79879   0.85904   0.39929   0.00000  Uiso   1.00
C732   C     0.86292   0.80464   0.10176   0.00000  Uiso   1.00
C733   C     0.74552   0.87454   0.46164   0.00000  Uiso   1.00
C734   C     0.94402   0.75107   0.01891   0.00000  Uiso   1.00
C735   C     0.82426   0.84487   0.41879   0.00000  Uiso   1.00
C736   C     0.98592   0.76934   0.01880   0.00000  Uiso   1.00
C737   C     0.68827   0.74783   0.49903   0.00000  Uiso   1.00
C738   C     0.68230   0.70797   0.47941   0.00000  Uiso   1.00
C739   C     0.97398   0.68958   0.47952   0.00000  Uiso   1.00
C740   C     0.93819   0.71095   0.49933   0.00000  Uiso   1.00
C741   C     0.82261   0.86441   0.10277   0.00000  Uiso   1.00
C742   C     0.84056   0.90270   0.08770   0.00000  Uiso   1.00
C743   C     0.82486   0.94005   0.10716   0.00000  Uiso   1.00
C744   C     0.79108   0.93956   0.14188   0.00000  Uiso   1.00
C745   C     0.77261   0.90166   0.15691   0.00000  Uiso   1.00
C746   C     0.81016   0.84249   0.45955   0.00000  Uiso   1.00
C747   C     0.78798   0.86415   0.13737   0.00000  Uiso   1.00
C748   C     0.70522   0.89330   0.48307   0.00000  Uiso   1.00
C749   C     0.70688   0.93023   0.00857   0.00000  Uiso   1.00
C750   C     0.66909   0.94851   0.02836   0.00000  Uiso   1.00
C751   C     0.96282   0.93016   0.02274   0.00000  Uiso   1.00
C752   C     0.96087   0.89336   0.49743   0.00000  Uiso   1.00
C753   C     0.99864   0.87497   0.47752   0.00000  Uiso   1.00
C754   C     0.77009   0.85754   0.48118   0.00000  Uiso   1.00
C755   C     0.83472   0.82530   0.47929   0.00000  Uiso   1.00
C756   C     0.82083   0.82694   0.02087   0.00000  Uiso   1.00
C757   C     0.77915   0.83812   0.04072   0.00000  Uiso   1.00
C758   C     0.75460   0.85362   0.02148   0.00000  Uiso   1.00
F759   F     0.97974   0.80631   0.29392   0.00000  Uiso   1.00
F760   F     0.78264   0.99669   0.29000   0.00000  Uiso   1.00
H761   H     0.72294   0.86188   0.03850   0.00000  Uiso   1.00
H762   H     0.99090   0.80029   0.03376   0.00000  Uiso   1.00
H763   H     0.72054   0.76205   0.49888   0.00000  Uiso   1.00
H764   H     0.70992   0.69129   0.46417   0.00000  Uiso   1.00
H765   H     0.96942   0.99205   0.46431   0.00000  Uiso   1.00
H766   H     0.90605   0.69641   0.49932   0.00000  Uiso   1.00
H767   H     0.86689   0.90353   0.06096   0.00000  Uiso   1.00
H768   H     0.83906   0.96940   0.09541   0.00000  Uiso   1.00
H769   H     0.77913   0.96853   0.15709   0.00000  Uiso   1.00
H770   H     0.74641   0.90142   0.18376   0.00000  Uiso   1.00
H771   H     0.77277   0.83504   0.14907   0.00000  Uiso   1.00
H772   H     0.68337   0.85691   0.21324   0.00000  Uiso   1.00
H773   H     0.73746   0.94490   0.01294   0.00000  Uiso   1.00
H774   H     0.67054   0.97710   0.04782   0.00000  Uiso   1.00
H775   H     0.93378   0.94477   0.03774   0.00000  Uiso   1.00
H776   H     0.93015   0.87926   0.49311   0.00000  Uiso   1.00
H777   H     0.99680   0.84648   0.45797   0.00000  Uiso   1.00
H778   H     0.87432   0.66932   0.21638   0.00000  Uiso   1.00
H779   H     0.91215   0.76513   0.09609   0.00000  Uiso   1.00
H780   H     0.92169   0.77164   0.46113   0.00000  Uiso   1.00
H781   H     0.74027   0.88610   0.40572   0.00000  Uiso   1.00
H782   H     0.85515   0.83589   0.40112   0.00000  Uiso   1.00
H783   H     0.76416   0.83347   0.07119   0.00000  Uiso   1.00
H784   H     0.88310   0.80022   0.42733   0.00000  Uiso   1.00
O785   O     0.83333   0.83333   0.25000   0.00000  Uiso   1.00
O786   O     0.82360   0.79060   0.16625   0.00000  Uiso   1.00
O787   O     0.79354   0.87313   0.33749   0.00000  Uiso   1.00
O788   O     0.87755   0.84159   0.15877   0.00000  Uiso   1.00
O789   O     0.83865   0.82802   0.33749   0.00000  Uiso   1.00
O790   O     0.84515   0.74768   0.27821   0.00000  Uiso   1.00
O791   O     0.81247   0.92803   0.26767   0.00000  Uiso   1.00
O792   O     0.74119   0.79917   0.23607   0.00000  Uiso   1.00
O793   O     0.93452   0.85845   0.21806   0.00000  Uiso   1.00
O794   O     0.73656   0.85627   0.27820   0.00000  Uiso   1.00
O795   O     0.92106   0.81944   0.26768   0.00000  Uiso   1.00
O796   O     0.80467   0.73570   0.23607   0.00000  Uiso   1.00
O797   O     0.87104   0.92193   0.21806   0.00000  Uiso   1.00
Zn798  Zn    0.85910   0.80756   0.28278   0.00000  Uiso   1.00
Zn799  Zn    0.80125   0.79044   0.22257   0.00000  Uiso   1.00
Zn800  Zn    0.87833   0.86331   0.21188   0.00000  Uiso   1.00
Zn801  Zn    0.79465   0.87202   0.28277   0.00000  Uiso   1.00
C802   C     0.05267   0.16030   0.75843   0.00000  Uiso   1.00
C803   C     0.20503   0.13841   0.95887   0.00000  Uiso   1.00
C804   C     0.22765   0.12092   0.97863   0.00000  Uiso   1.00
C805   C     0.28101   0.17343   0.74118   0.00000  Uiso   1.00
C806   C     0.21607   0.12480   0.51972   0.00000  Uiso   1.00
C807   C     0.18092   0.14770   0.54131   0.00000  Uiso   1.00
C808   C     0.23974   0.10743   0.53971   0.00000  Uiso   1.00
C809   C     0.22812   0.11264   0.58062   0.00000  Uiso   1.00
C810   C     0.17487   0.15856   0.58235   0.00000  Uiso   1.00
C811   C     0.32695   0.17506   0.73726   0.00000  Uiso   1.00
C812   C     0.00728   0.15792   0.76265   0.00000  Uiso   1.00
C813   C     0.09317   0.20778   0.92077   0.00000  Uiso   1.00
C814   C     0.18039   0.32213   0.73840   0.00000  Uiso   1.00
C815   C     0.15102   0.01242   0.76231   0.00000  Uiso   1.00
C816   C     0.15605   0.05623   0.75873   0.00000  Uiso   1.00
C817   C     0.17669   0.27765   0.74137   0.00000  Uiso   1.00
C818   C     0.18829   0.14530   0.64414   0.00000  Uiso   1.00
C819   C     0.14511   0.18755   0.85613   0.00000  Uiso   1.00
C820   C     0.13212   0.19237   0.89929   0.00000  Uiso   1.00
C821   C     0.19626   0.13798   0.60176   0.00000  Uiso   1.00
C822   C     0.07885   0.20787   0.96164   0.00000  Uiso   1.00
C823   C     0.27735   0.08440   0.51891   0.00000  Uiso   1.00
C824   C     0.15759   0.17821   0.91879   0.00000  Uiso   1.00
C825   C     0.31926   0.10268   0.51880   0.00000  Uiso   1.00
C826   C     0.02160   0.08116   0.99903   0.00000  Uiso   1.00
C827   C     0.01563   0.04130   0.97941   0.00000  Uiso   1.00
C828   C     0.30731   0.02291   0.97952   0.00000  Uiso   1.00
C829   C     0.27153   0.04429   0.99933   0.00000  Uiso   1.00
C830   C     0.15594   0.19774   0.60277   0.00000  Uiso   1.00
C831   C     0.17389   0.23604   0.58770   0.00000  Uiso   1.00
C832   C     0.15820   0.27339   0.60716   0.00000  Uiso   1.00
C833   C     0.12441   0.27289   0.64188   0.00000  Uiso   1.00
C834   C     0.10594   0.23499   0.65691   0.00000  Uiso   1.00
C835   C     0.14350   0.17582   0.95955   0.00000  Uiso   1.00
C836   C     0.12131   0.19749   0.63737   0.00000  Uiso   1.00
C837   C     0.03856   0.22664   0.98307   0.00000  Uiso   1.00
C838   C     0.04022   0.26357   0.50857   0.00000  Uiso   1.00
C839   C     0.00242   0.28184   0.52836   0.00000  Uiso   1.00
C840   C     0.29615   0.26349   0.52274   0.00000  Uiso   1.00
C841   C     0.29421   0.22670   0.99743   0.00000  Uiso   1.00
C842   C     0.33198   0.20830   0.97752   0.00000  Uiso   1.00
C843   C     0.10343   0.19087   0.98118   0.00000  Uiso   1.00
C844   C     0.16805   0.15864   0.97929   0.00000  Uiso   1.00
C845   C     0.15417   0.16028   0.52087   0.00000  Uiso   1.00
C846   C     0.11249   0.17146   0.54072   0.00000  Uiso   1.00
C847   C     0.08793   0.18696   0.52148   0.00000  Uiso   1.00
F848   F     0.31307   0.13965   0.79392   0.00000  Uiso   1.00
F849   F     0.11597   0.33003   0.79000   0.00000  Uiso   1.00
H850   H     0.05627   0.19522   0.53850   0.00000  Uiso   1.00
H851   H     0.32424   0.13363   0.53376   0.00000  Uiso   1.00
H852   H     0.05387   0.09538   0.99888   0.00000  Uiso   1.00
H853   H     0.04326   0.02463   0.96417   0.00000  Uiso   1.00
H854   H     0.30275   0.32539   0.96431   0.00000  Uiso   1.00
H855   H     0.23938   0.02974   0.99932   0.00000  Uiso   1.00
H856   H     0.20022   0.23687   0.56096   0.00000  Uiso   1.00
H857   H     0.17239   0.30274   0.59541   0.00000  Uiso   1.00
H858   H     0.11247   0.30186   0.65709   0.00000  Uiso   1.00
H859   H     0.07975   0.23475   0.68376   0.00000  Uiso   1.00
H860   H     0.10610   0.16837   0.64907   0.00000  Uiso   1.00
H861   H     0.01670   0.19024   0.71324   0.00000  Uiso   1.00
H862   H     0.07079   0.27824   0.51294   0.00000  Uiso   1.00
H863   H     0.00387   0.31043   0.54782   0.00000  Uiso   1.00
H864   H     0.26712   0.27810   0.53774   0.00000  Uiso   1.00
H865   H     0.26348   0.21259   0.99311   0.00000  Uiso   1.00
H866   H     0.33014   0.17981   0.95797   0.00000  Uiso   1.00
H867   H     0.20765   0.00266   0.71638   0.00000  Uiso   1.00
H868   H     0.24549   0.09846   0.59609   0.00000  Uiso   1.00
H869   H     0.25503   0.10497   0.96113   0.00000  Uiso   1.00
H870   H     0.07360   0.21943   0.90572   0.00000  Uiso   1.00
H871   H     0.18849   0.16922   0.90112   0.00000  Uiso   1.00
H872   H     0.09750   0.16680   0.57119   0.00000  Uiso   1.00
H873   H     0.21644   0.13356   0.92733   0.00000  Uiso   1.00
O874   O     0.16667   0.16667   0.75000   0.00000  Uiso   1.00
O875   O     0.15693   0.12393   0.66625   0.00000  Uiso   1.00
O876   O     0.12687   0.20646   0.83749   0.00000  Uiso   1.00
O877   O     0.21088   0.17493   0.65877   0.00000  Uiso   1.00
O878   O     0.17198   0.16135   0.83749   0.00000  Uiso   1.00
O879   O     0.17849   0.08101   0.77821   0.00000  Uiso   1.00
O880   O     0.14581   0.26136   0.76767   0.00000  Uiso   1.00
O881   O     0.07452   0.13251   0.73607   0.00000  Uiso   1.00
O882   O     0.26785   0.19179   0.71806   0.00000  Uiso   1.00
O883   O     0.06990   0.18960   0.77820   0.00000  Uiso   1.00
O884   O     0.25440   0.15277   0.76768   0.00000  Uiso   1.00
O885   O     0.13800   0.06903   0.73607   0.00000  Uiso   1.00
O886   O     0.20437   0.25527   0.71806   0.00000  Uiso   1.00
Zn887  Zn    0.19244   0.14090   0.78278   0.00000  Uiso   1.00
Zn888  Zn    0.13459   0.12378   0.72257   0.00000  Uiso   1.00
Zn889  Zn    0.21166   0.19664   0.71188   0.00000  Uiso   1.00
Zn890  Zn    0.12798   0.20535   0.78277   0.00000  Uiso   1.00
C891   C     0.38601   0.16030   0.75843   0.00000  Uiso   1.00
C892   C     0.53837   0.13841   0.95887   0.00000  Uiso   1.00
C893   C     0.56098   0.12092   0.97863   0.00000  Uiso   1.00
C894   C     0.61434   0.17343   0.74118   0.00000  Uiso   1.00
C895   C     0.54940   0.12480   0.51972   0.00000  Uiso   1.00
C896   C     0.51425   0.14770   0.54131   0.00000  Uiso   1.00
C897   C     0.57308   0.10743   0.53971   0.00000  Uiso   1.00
C898   C     0.56145   0.11264   0.58062   0.00000  Uiso   1.00
C899   C     0.50820   0.15856   0.58235   0.00000  Uiso   1.00
C900   C     0.66029   0.17506   0.73726   0.00000  Uiso   1.00
C901   C     0.34062   0.15792   0.76265   0.00000  Uiso   1.00
C902   C     0.42650   0.20778   0.92077   0.00000  Uiso   1.00
C903   C     0.51372   0.32213   0.73840   0.00000  Uiso   1.00
C904   C     0.48435   0.01242   0.76231   0.00000  Uiso   1.00
C905   C     0.48939   0.05623   0.75873   0.00000  Uiso   1.00
C906   C     0.51002   0.27765   0.74137   0.00000  Uiso   1.00
C907   C     0.52163   0.14530   0.64414   0.00000  Uiso   1.00
C908   C     0.47845   0.18755   0.85613   0.00000  Uiso   1.00
C909   C     0.46546   0.19237   0.89929   0.00000  Uiso   1.00
C910   C     0.52959   0.13798   0.60176   0.00000  Uiso   1.00
C911   C     0.41219   0.20787   0.96164   0.00000  Uiso   1.00
C912   C     0.61069   0.08440   0.51891   0.00000  Uiso   1.00
C913   C     0.49092   0.17821   0.91879   0.00000  Uiso   1.00
C914   C     0.65259   0.10268   0.51880   0.00000  Uiso   1.00
C915   C     0.35494   0.08116   0.99903   0.00000  Uiso   1.00
C916   C     0.34896   0.04130   0.97941   0.00000  Uiso   1.00
C917   C     0.64064   0.02291   0.97952   0.00000  Uiso   1.00
C918   C     0.60486   0.04429   0.99933   0.00000  Uiso   1.00
C919   C     0.48927   0.19774   0.60277   0.00000  Uiso   1.00
C920   C     0.50723   0.23604   0.58770   0.00000  Uiso   1.00
C921   C     0.49153   0.27339   0.60716   0.00000  Uiso   1.00
C922   C     0.45775   0.27289   0.64188   0.00000  Uiso   1.00
C923   C     0.43928   0.23499   0.65691   0.00000  Uiso   1.00
C924   C     0.47683   0.17582   0.95955   0.00000  Uiso   1.00
C925   C     0.45465   0.19749   0.63737   0.00000  Uiso   1.00
C926   C     0.37189   0.22664   0.98307   0.00000  Uiso   1.00
C927   C     0.37355   0.26357   0.50857   0.00000  Uiso   1.00
C928   C     0.33576   0.28184   0.52836   0.00000  Uiso   1.00
C929   C     0.62949   0.26349   0.52274   0.00000  Uiso   1.00
C930   C     0.62754   0.22670   0.99743   0.00000  Uiso   1.00
C931   C     0.66531   0.20830   0.97752   0.00000  Uiso   1.00
C932   C     0.43676   0.19087   0.98118   0.00000  Uiso   1.00
C933   C     0.50139   0.15864   0.97929   0.00000  Uiso   1.00
C934   C     0.48750   0.16028   0.52087   0.00000  Uiso   1.00
C935   C     0.44582   0.17146   0.54072   0.00000  Uiso   1.00
C936   C     0.42126   0.18696   0.52148   0.00000  Uiso   1.00
F937   F     0.64641   0.13965   0.79392   0.00000  Uiso   1.00
F938   F     0.44930   0.33003   0.79000   0.00000  Uiso   1.00
H939   H     0.38960   0.19522   0.53850   0.00000  Uiso   1.00
H940   H     0.65757   0.13363   0.53376   0.00000  Uiso   1.00
H941   H     0.38721   0.09538   0.99888   0.00000  Uiso   1.00
H942   H     0.37659   0.02463   0.96417   0.00000  Uiso   1.00
H943   H     0.63609   0.32539   0.96431   0.00000  Uiso   1.00
H944   H     0.57272   0.02974   0.99932   0.00000  Uiso   1.00
H945   H     0.53355   0.23687   0.56096   0.00000  Uiso   1.00
H946   H     0.50572   0.30274   0.59541   0.00000  Uiso   1.00
H947   H     0.44580   0.30186   0.65709   0.00000  Uiso   1.00
H948   H     0.41308   0.23475   0.68376   0.00000  Uiso   1.00
H949   H     0.43943   0.16837   0.64907   0.00000  Uiso   1.00
H950   H     0.35003   0.19024   0.71324   0.00000  Uiso   1.00
H951   H     0.40413   0.27824   0.51294   0.00000  Uiso   1.00
H952   H     0.33721   0.31043   0.54782   0.00000  Uiso   1.00
H953   H     0.60045   0.27810   0.53774   0.00000  Uiso   1.00
H954   H     0.59681   0.21259   0.99311   0.00000  Uiso   1.00
H955   H     0.66347   0.17981   0.95797   0.00000  Uiso   1.00
H956   H     0.54099   0.00266   0.71638   0.00000  Uiso   1.00
H957   H     0.57882   0.09846   0.59609   0.00000  Uiso   1.00
H958   H     0.58836   0.10497   0.96113   0.00000  Uiso   1.00
H959   H     0.40693   0.21943   0.90572   0.00000  Uiso   1.00
H960   H     0.52182   0.16922   0.90112   0.00000  Uiso   1.00
H961   H     0.43083   0.16680   0.57119   0.00000  Uiso   1.00
H962   H     0.54977   0.13356   0.92733   0.00000  Uiso   1.00
O963   O     0.50000   0.16667   0.75000   0.00000  Uiso   1.00
O964   O     0.49027   0.12393   0.66625   0.00000  Uiso   1.00
O965   O     0.46020   0.20646   0.83749   0.00000  Uiso   1.00
O966   O     0.54421   0.17493   0.65877   0.00000  Uiso   1.00
O967   O     0.50532   0.16135   0.83749   0.00000  Uiso   1.00
O968   O     0.51182   0.08101   0.77821   0.00000  Uiso   1.00
O969   O     0.47914   0.26136   0.76767   0.00000  Uiso   1.00
O970   O     0.40785   0.13251   0.73607   0.00000  Uiso   1.00
O971   O     0.60119   0.19179   0.71806   0.00000  Uiso   1.00
O972   O     0.40323   0.18960   0.77820   0.00000  Uiso   1.00
O973   O     0.58773   0.15277   0.76768   0.00000  Uiso   1.00
O974   O     0.47133   0.06903   0.73607   0.00000  Uiso   1.00
O975   O     0.53771   0.25527   0.71806   0.00000  Uiso   1.00
Zn976  Zn    0.52577   0.14090   0.78278   0.00000  Uiso   1.00
Zn977  Zn    0.46792   0.12378   0.72257   0.00000  Uiso   1.00
Zn978  Zn    0.54500   0.19664   0.71188   0.00000  Uiso   1.00
Zn979  Zn    0.46131   0.20535   0.78277   0.00000  Uiso   1.00
C980   C     0.71934   0.16030   0.75843   0.00000  Uiso   1.00
C981   C     0.87170   0.13841   0.95887   0.00000  Uiso   1.00
C982   C     0.89431   0.12092   0.97863   0.00000  Uiso   1.00
C983   C     0.94767   0.17343   0.74118   0.00000  Uiso   1.00
C984   C     0.88273   0.12480   0.51972   0.00000  Uiso   1.00
C985   C     0.84759   0.14770   0.54131   0.00000  Uiso   1.00
C986   C     0.90641   0.10743   0.53971   0.00000  Uiso   1.00
C987   C     0.89478   0.11264   0.58062   0.00000  Uiso   1.00
C988   C     0.84154   0.15856   0.58235   0.00000  Uiso   1.00
C989   C     0.99362   0.17506   0.73726   0.00000  Uiso   1.00
C990   C     0.67395   0.15792   0.76265   0.00000  Uiso   1.00
C991   C     0.75983   0.20778   0.92077   0.00000  Uiso   1.00
C992   C     0.84705   0.32213   0.73840   0.00000  Uiso   1.00
C993   C     0.81768   0.01242   0.76231   0.00000  Uiso   1.00
C994   C     0.82272   0.05623   0.75873   0.00000  Uiso   1.00
C995   C     0.84336   0.27765   0.74137   0.00000  Uiso   1.00
C996   C     0.85496   0.14530   0.64414   0.00000  Uiso   1.00
C997   C     0.81178   0.18755   0.85613   0.00000  Uiso   1.00
C998   C     0.79879   0.19237   0.89929   0.00000  Uiso   1.00
C999   C     0.86292   0.13798   0.60176   0.00000  Uiso   1.00
C1000  C     0.74552   0.20787   0.96164   0.00000  Uiso   1.00
C1001  C     0.94402   0.08440   0.51891   0.00000  Uiso   1.00
C1002  C     0.82426   0.17821   0.91879   0.00000  Uiso   1.00
C1003  C     0.98592   0.10268   0.51880   0.00000  Uiso   1.00
C1004  C     0.68827   0.08116   0.99903   0.00000  Uiso   1.00
C1005  C     0.68230   0.04130   0.97941   0.00000  Uiso   1.00
C1006  C     0.97398   0.02291   0.97952   0.00000  Uiso   1.00
C1007  C     0.93819   0.04429   0.99933   0.00000  Uiso   1.00
C1008  C     0.82261   0.19774   0.60277   0.00000  Uiso   1.00
C1009  C     0.84056   0.23604   0.58770   0.00000  Uiso   1.00
C1010  C     0.82486   0.27339   0.60716   0.00000  Uiso   1.00
C1011  C     0.79108   0.27289   0.64188   0.00000  Uiso   1.00
C1012  C     0.77261   0.23499   0.65691   0.00000  Uiso   1.00
C1013  C     0.81016   0.17582   0.95955   0.00000  Uiso   1.00
C1014  C     0.78798   0.19749   0.63737   0.00000  Uiso   1.00
C1015  C     0.70522   0.22664   0.98307   0.00000  Uiso   1.00
C1016  C     0.70688   0.26357   0.50857   0.00000  Uiso   1.00
C1017  C     0.66909   0.28184   0.52836   0.00000  Uiso   1.00
C1018  C     0.96282   0.26349   0.52274   0.00000  Uiso   1.00
C1019  C     0.96087   0.22670   0.99743   0.00000  Uiso   1.00
C1020  C     0.99864   0.20830   0.97752   0.00000  Uiso   1.00
C1021  C     0.77009   0.19087   0.98118   0.00000  Uiso   1.00
C1022  C     0.83472   0.15864   0.97929   0.00000  Uiso   1.00
C1023  C     0.82083   0.16028   0.52087   0.00000  Uiso   1.00
C1024  C     0.77915   0.17146   0.54072   0.00000  Uiso   1.00
C1025  C     0.75460   0.18696   0.52148   0.00000  Uiso   1.00
F1026  F     0.97974   0.13965   0.79392   0.00000  Uiso   1.00
F1027  F     0.78264   0.33003   0.79000   0.00000  Uiso   1.00
H1028  H     0.72294   0.19522   0.53850   0.00000  Uiso   1.00
H1029  H     0.99090   0.13363   0.53376   0.00000  Uiso   1.00
H1030  H     0.72054   0.09538   0.99888   0.00000  Uiso   1.00
H1031  H     0.70992   0.02463   0.96417   0.00000  Uiso   1.00
H1032  H     0.96942   0.32539   0.96431   0.00000  Uiso   1.00
H1033  H     0.90605   0.02974   0.99932   0.00000  Uiso   1.00
H1034  H     0.86689   0.23687   0.56096   0.00000  Uiso   1.00
H1035  H     0.83906   0.30274   0.59541   0.00000  Uiso   1.00
H1036  H     0.77913   0.30186   0.65709   0.00000  Uiso   1.00
H1037  H     0.74641   0.23475   0.68376   0.00000  Uiso   1.00
H1038  H     0.77277   0.16837   0.64907   0.00000  Uiso   1.00
H1039  H     0.68337   0.19024   0.71324   0.00000  Uiso   1.00
H1040  H     0.73746   0.27824   0.51294   0.00000  Uiso   1.00
H1041  H     0.67054   0.31043   0.54782   0.00000  Uiso   1.00
H1042  H     0.93378   0.27810   0.53774   0.00000  Uiso   1.00
H1043  H     0.93015   0.21259   0.99311   0.00000  Uiso   1.00
H1044  H     0.99680   0.17981   0.95797   0.00000  Uiso   1.00
H1045  H     0.87432   0.00266   0.71638   0.00000  Uiso   1.00
H1046  H     0.91215   0.09846   0.59609   0.00000  Uiso   1.00
H1047  H     0.92169   0.10497   0.96113   0.00000  Uiso   1.00
H1048  H     0.74027   0.21943   0.90572   0.00000  Uiso   1.00
H1049  H     0.85515   0.16922   0.90112   0.00000  Uiso   1.00
H1050  H     0.76416   0.16680   0.57119   0.00000  Uiso   1.00
H1051  H     0.88310   0.13356   0.92733   0.00000  Uiso   1.00
O1052  O     0.83333   0.16667   0.75000   0.00000  Uiso   1.00
O1053  O     0.82360   0.12393   0.66625   0.00000  Uiso   1.00
O1054  O     0.79354   0.20646   0.83749   0.00000  Uiso   1.00
O1055  O     0.87755   0.17493   0.65877   0.00000  Uiso   1.00
O1056  O     0.83865   0.16135   0.83749   0.00000  Uiso   1.00
O1057  O     0.84515   0.08101   0.77821   0.00000  Uiso   1.00
O1058  O     0.81247   0.26136   0.76767   0.00000  Uiso   1.00
O1059  O     0.74119   0.13251   0.73607   0.00000  Uiso   1.00
O1060  O     0.93452   0.19179   0.71806   0.00000  Uiso   1.00
O1061  O     0.73656   0.18960   0.77820   0.00000  Uiso   1.00
O1062  O     0.92106   0.15277   0.76768   0.00000  Uiso   1.00
O1063  O     0.80467   0.06903   0.73607   0.00000  Uiso   1.00
O1064  O     0.87104   0.25527   0.71806   0.00000  Uiso   1.00
Zn1065 Zn    0.85910   0.14090   0.78278   0.00000  Uiso   1.00
Zn1066 Zn    0.80125   0.12378   0.72257   0.00000  Uiso   1.00
Zn1067 Zn    0.87833   0.19664   0.71188   0.00000  Uiso   1.00
Zn1068 Zn    0.79465   0.20535   0.78277   0.00000  Uiso   1.00
C1069  C     0.05267   0.49363   0.75843   0.00000  Uiso   1.00
C1070  C     0.20503   0.47174   0.95887   0.00000  Uiso   1.00
C1071  C     0.22765   0.45425   0.97863   0.00000  Uiso   1.00
C1072  C     0.28101   0.50676   0.74118   0.00000  Uiso   1.00
C1073  C     0.21607   0.45814   0.51972   0.00000  Uiso   1.00
C1074  C     0.18092   0.48103   0.54131   0.00000  Uiso   1.00
C1075  C     0.23974   0.44076   0.53971   0.00000  Uiso   1.00
C1076  C     0.22812   0.44597   0.58062   0.00000  Uiso   1.00
C1077  C     0.17487   0.49190   0.58235   0.00000  Uiso   1.00
C1078  C     0.32695   0.50839   0.73726   0.00000  Uiso   1.00
C1079  C     0.00728   0.49125   0.76265   0.00000  Uiso   1.00
C1080  C     0.09317   0.54111   0.92077   0.00000  Uiso   1.00
C1081  C     0.18039   0.65546   0.73840   0.00000  Uiso   1.00
C1082  C     0.15102   0.34576   0.76231   0.00000  Uiso   1.00
C1083  C     0.15605   0.38956   0.75873   0.00000  Uiso   1.00
C1084  C     0.17669   0.61099   0.74137   0.00000  Uiso   1.00
C1085  C     0.18829   0.47863   0.64414   0.00000  Uiso   1.00
C1086  C     0.14511   0.52088   0.85613   0.00000  Uiso   1.00
C1087  C     0.13212   0.52570   0.89929   0.00000  Uiso   1.00
C1088  C     0.19626   0.47131   0.60176   0.00000  Uiso   1.00
C1089  C     0.07885   0.54121   0.96164   0.00000  Uiso   1.00
C1090  C     0.27735   0.41774   0.51891   0.00000  Uiso   1.00
C1091  C     0.15759   0.51154   0.91879   0.00000  Uiso   1.00
C1092  C     0.31926   0.43601   0.51880   0.00000  Uiso   1.00
C1093  C     0.02160   0.41449   0.99903   0.00000  Uiso   1.00
C1094  C     0.01563   0.37463   0.97941   0.00000  Uiso   1.00
C1095  C     0.30731   0.35625   0.97952   0.00000  Uiso   1.00
C1096  C     0.27153   0.37762   0.99933   0.00000  Uiso   1.00
C1097  C     0.15594   0.53108   0.60277   0.00000  Uiso   1.00
C1098  C     0.17389   0.56937   0.58770   0.00000  Uiso   1.00
C1099  C     0.15820   0.60672   0.60716   0.00000  Uiso   1.00
C1100  C     0.12441   0.60623   0.64188   0.00000  Uiso   1.00
C1101  C     0.10594   0.56832   0.65691   0.00000  Uiso   1.00
C1102  C     0.14350   0.50915   0.95955   0.00000  Uiso   1.00
C1103  C     0.12131   0.53082   0.63737   0.00000  Uiso   1.00
C1104  C     0.03856   0.55997   0.98307   0.00000  Uiso   1.00
C1105  C     0.04022   0.59690   0.50857   0.00000  Uiso   1.00
C1106  C     0.00242   0.61518   0.52836   0.00000  Uiso   1.00
C1107  C     0.29615   0.59682   0.52274   0.00000  Uiso   1.00
C1108  C     0.29421   0.56003   0.99743   0.00000  Uiso   1.00
C1109  C     0.33198   0.54164   0.97752   0.00000  Uiso   1.00
C1110  C     0.10343   0.52421   0.98118   0.00000  Uiso   1.00
C1111  C     0.16805   0.49197   0.97929   0.00000  Uiso   1.00
C1112  C     0.15417   0.49361   0.52087   0.00000  Uiso   1.00
C1113  C     0.11249   0.50479   0.54072   0.00000  Uiso   1.00
C1114  C     0.08793   0.52029   0.52148   0.00000  Uiso   1.00
F1115  F     0.31307   0.47298   0.79392   0.00000  Uiso   1.00
F1116  F     0.11597   0.66336   0.79000   0.00000  Uiso   1.00
H1117  H     0.05627   0.52855   0.53850   0.00000  Uiso   1.00
H1118  H     0.32424   0.46696   0.53376   0.00000  Uiso   1.00
H1119  H     0.05387   0.42871   0.99888   0.00000  Uiso   1.00
H1120  H     0.04326   0.35796   0.96417   0.00000  Uiso   1.00
H1121  H     0.30275   0.65872   0.96431   0.00000  Uiso   1.00
H1122  H     0.23938   0.36307   0.99932   0.00000  Uiso   1.00
H1123  H     0.20022   0.57020   0.56096   0.00000  Uiso   1.00
H1124  H     0.17239   0.63607   0.59541   0.00000  Uiso   1.00
H1125  H     0.11247   0.63520   0.65709   0.00000  Uiso   1.00
H1126  H     0.07975   0.56809   0.68376   0.00000  Uiso   1.00
H1127  H     0.10610   0.50170   0.64907   0.00000  Uiso   1.00
H1128  H     0.01670   0.52358   0.71324   0.00000  Uiso   1.00
H1129  H     0.07079   0.61157   0.51294   0.00000  Uiso   1.00
H1130  H     0.00387   0.64376   0.54782   0.00000  Uiso   1.00
H1131  H     0.26712   0.61144   0.53774   0.00000  Uiso   1.00
H1132  H     0.26348   0.54592   0.99311   0.00000  Uiso   1.00
H1133  H     0.33014   0.51315   0.95797   0.00000  Uiso   1.00
H1134  H     0.20765   0.33599   0.71638   0.00000  Uiso   1.00
H1135  H     0.24549   0.43179   0.59609   0.00000  Uiso   1.00
H1136  H     0.25503   0.43830   0.96113   0.00000  Uiso   1.00
H1137  H     0.07360   0.55276   0.90572   0.00000  Uiso   1.00
H1138  H     0.18849   0.50255   0.90112   0.00000  Uiso   1.00
H1139  H     0.09750   0.50013   0.57119   0.00000  Uiso   1.00
H1140  H     0.21644   0.46689   0.92733   0.00000  Uiso   1.00
O1141  O     0.16667   0.50000   0.75000   0.00000  Uiso   1.00
O1142  O     0.15693   0.45726   0.66625   0.00000  Uiso   1.00
O1143  O     0.12687   0.53979   0.83749   0.00000  Uiso   1.00
O1144  O     0.21088   0.50826   0.65877   0.00000  Uiso   1.00
O1145  O     0.17198   0.49468   0.83749   0.00000  Uiso   1.00
O1146  O     0.17849   0.41434   0.77821   0.00000  Uiso   1.00
O1147  O     0.14581   0.59469   0.76767   0.00000  Uiso   1.00
O1148  O     0.07452   0.46584   0.73607   0.00000  Uiso   1.00
O1149  O     0.26785   0.52512   0.71806   0.00000  Uiso   1.00
O1150  O     0.06990   0.52293   0.77820   0.00000  Uiso   1.00
O1151  O     0.25440   0.48610   0.76768   0.00000  Uiso   1.00
O1152  O     0.13800   0.40236   0.73607   0.00000  Uiso   1.00
O1153  O     0.20437   0.58860   0.71806   0.00000  Uiso   1.00
Zn1154 Zn    0.19244   0.47423   0.78278   0.00000  Uiso   1.00
Zn1155 Zn    0.13459   0.45711   0.72257   0.00000  Uiso   1.00
Zn1156 Zn    0.21166   0.52997   0.71188   0.00000  Uiso   1.00
Zn1157 Zn    0.12798   0.53868   0.78277   0.00000  Uiso   1.00
C1158  C     0.38601   0.49363   0.75843   0.00000  Uiso   1.00
C1159  C     0.53837   0.47174   0.95887   0.00000  Uiso   1.00
C1160  C     0.56098   0.45425   0.97863   0.00000  Uiso   1.00
C1161  C     0.61434   0.50676   0.74118   0.00000  Uiso   1.00
C1162  C     0.54940   0.45814   0.51972   0.00000  Uiso   1.00
C1163  C     0.51425   0.48103   0.54131   0.00000  Uiso   1.00
C1164  C     0.57308   0.44076   0.53971   0.00000  Uiso   1.00
C1165  C     0.56145   0.44597   0.58062   0.00000  Uiso   1.00
C1166  C     0.50820   0.49190   0.58235   0.00000  Uiso   1.00
C1167  C     0.66029   0.50839   0.73726   0.00000  Uiso   1.00
C1168  C     0.34062   0.49125   0.76265   0.00000  Uiso   1.00
C1169  C     0.42650   0.54111   0.92077   0.00000  Uiso   1.00
C1170  C     0.51372   0.65546   0.73840   0.00000  Uiso   1.00
C1171  C     0.48435   0.34576   0.76231   0.00000  Uiso   1.00
C1172  C     0.48939   0.38956   0.75873   0.00000  Uiso   1.00
C1173  C     0.51002   0.61099   0.74137   0.00000  Uiso   1.00
C1174  C     0.52163   0.47863   0.64414   0.00000  Uiso   1.00
C1175  C     0.47845   0.52088   0.85613   0.00000  Uiso   1.00
C1176  C     0.46546   0.52570   0.89929   0.00000  Uiso   1.00
C1177  C     0.52959   0.47131   0.60176   0.00000  Uiso   1.00
C1178  C     0.41219   0.54121   0.96164   0.00000  Uiso   1.00
C1179  C     0.61069   0.41774   0.51891   0.00000  Uiso   1.00
C1180  C     0.49092   0.51154   0.91879   0.00000  Uiso   1.00
C1181  C     0.65259   0.43601   0.51880   0.00000  Uiso   1.00
C1182  C     0.35494   0.41449   0.99903   0.00000  Uiso   1.00
C1183  C     0.34896   0.37463   0.97941   0.00000  Uiso   1.00
C1184  C     0.64064   0.35625   0.97952   0.00000  Uiso   1.00
C1185  C     0.60486   0.37762   0.99933   0.00000  Uiso   1.00
C1186  C     0.48927   0.53108   0.60277   0.00000  Uiso   1.00
C1187  C     0.50723   0.56937   0.58770   0.00000  Uiso   1.00
C1188  C     0.49153   0.60672   0.60716   0.00000  Uiso   1.00
C1189  C     0.45775   0.60623   0.64188   0.00000  Uiso   1.00
C1190  C     0.43928   0.56832   0.65691   0.00000  Uiso   1.00
C1191  C     0.47683   0.50915   0.95955   0.00000  Uiso   1.00
C1192  C     0.45465   0.53082   0.63737   0.00000  Uiso   1.00
C1193  C     0.37189   0.55997   0.98307   0.00000  Uiso   1.00
C1194  C     0.37355   0.59690   0.50857   0.00000  Uiso   1.00
C1195  C     0.33576   0.61518   0.52836   0.00000  Uiso   1.00
C1196  C     0.62949   0.59682   0.52274   0.00000  Uiso   1.00
C1197  C     0.62754   0.56003   0.99743   0.00000  Uiso   1.00
C1198  C     0.66531   0.54164   0.97752   0.00000  Uiso   1.00
C1199  C     0.43676   0.52421   0.98118   0.00000  Uiso   1.00
C1200  C     0.50139   0.49197   0.97929   0.00000  Uiso   1.00
C1201  C     0.48750   0.49361   0.52087   0.00000  Uiso   1.00
C1202  C     0.44582   0.50479   0.54072   0.00000  Uiso   1.00
C1203  C     0.42126   0.52029   0.52148   0.00000  Uiso   1.00
F1204  F     0.64641   0.47298   0.79392   0.00000  Uiso   1.00
F1205  F     0.44930   0.66336   0.79000   0.00000  Uiso   1.00
H1206  H     0.38960   0.52855   0.53850   0.00000  Uiso   1.00
H1207  H     0.65757   0.46696   0.53376   0.00000  Uiso   1.00
H1208  H     0.38721   0.42871   0.99888   0.00000  Uiso   1.00
H1209  H     0.37659   0.35796   0.96417   0.00000  Uiso   1.00
H1210  H     0.63609   0.65872   0.96431   0.00000  Uiso   1.00
H1211  H     0.57272   0.36307   0.99932   0.00000  Uiso   1.00
H1212  H     0.53355   0.57020   0.56096   0.00000  Uiso   1.00
H1213  H     0.50572   0.63607   0.59541   0.00000  Uiso   1.00
H1214  H     0.44580   0.63520   0.65709   0.00000  Uiso   1.00
H1215  H     0.41308   0.56809   0.68376   0.00000  Uiso   1.00
H1216  H     0.43943   0.50170   0.64907   0.00000  Uiso   1.00
H1217  H     0.35003   0.52358   0.71324   0.00000  Uiso   1.00
H1218  H     0.40413   0.61157   0.51294   0.00000  Uiso   1.00
H1219  H     0.33721   0.64376   0.54782   0.00000  Uiso   1.00
H1220  H     0.60045   0.61144   0.53774   0.00000  Uiso   1.00
H1221  H     0.59681   0.54592   0.99311   0.00000  Uiso   1.00
H1222  H     0.66347   0.51315   0.95797   0.00000  Uiso   1.00
H1223  H     0.54099   0.33599   0.71638   0.00000  Uiso   1.00
H1224  H     0.57882   0.43179   0.59609   0.00000  Uiso   1.00
H1225  H     0.58836   0.43830   0.96113   0.00000  Uiso   1.00
H1226  H     0.40693   0.55276   0.90572   0.00000  Uiso   1.00
H1227  H     0.52182   0.50255   0.90112   0.00000  Uiso   1.00
H1228  H     0.43083   0.50013   0.57119   0.00000  Uiso   1.00
H1229  H     0.54977   0.46689   0.92733   0.00000  Uiso   1.00
O1230  O     0.50000   0.50000   0.75000   0.00000  Uiso   1.00
O1231  O     0.49027   0.45726   0.66625   0.00000  Uiso   1.00
O1232  O     0.46020   0.53979   0.83749   0.00000  Uiso   1.00
O1233  O     0.54421   0.50826   0.65877   0.00000  Uiso   1.00
O1234  O     0.50532   0.49468   0.83749   0.00000  Uiso   1.00
O1235  O     0.51182   0.41434   0.77821   0.00000  Uiso   1.00
O1236  O     0.47914   0.59469   0.76767   0.00000  Uiso   1.00
O1237  O     0.40785   0.46584   0.73607   0.00000  Uiso   1.00
O1238  O     0.60119   0.52512   0.71806   0.00000  Uiso   1.00
O1239  O     0.40323   0.52293   0.77820   0.00000  Uiso   1.00
O1240  O     0.58773   0.48610   0.76768   0.00000  Uiso   1.00
O1241  O     0.47133   0.40236   0.73607   0.00000  Uiso   1.00
O1242  O     0.53771   0.58860   0.71806   0.00000  Uiso   1.00
Zn1243 Zn    0.52577   0.47423   0.78278   0.00000  Uiso   1.00
Zn1244 Zn    0.46792   0.45711   0.72257   0.00000  Uiso   1.00
Zn1245 Zn    0.54500   0.52997   0.71188   0.00000  Uiso   1.00
Zn1246 Zn    0.46131   0.53868   0.78277   0.00000  Uiso   1.00
C1247  C     0.71934   0.49363   0.75843   0.00000  Uiso   1.00
C1248  C     0.87170   0.47174   0.95887   0.00000  Uiso   1.00
C1249  C     0.89431   0.45425   0.97863   0.00000  Uiso   1.00
C1250  C     0.94767   0.50676   0.74118   0.00000  Uiso   1.00
C1251  C     0.88273   0.45814   0.51972   0.00000  Uiso   1.00
C1252  C     0.84759   0.48103   0.54131   0.00000  Uiso   1.00
C1253  C     0.90641   0.44076   0.53971   0.00000  Uiso   1.00
C1254  C     0.89478   0.44597   0.58062   0.00000  Uiso   1.00
C1255  C     0.84154   0.49190   0.58235   0.00000  Uiso   1.00
C1256  C     0.99362   0.50839   0.73726   0.00000  Uiso   1.00
C1257  C     0.67395   0.49125   0.76265   0.00000  Uiso   1.00
C1258  C     0.75983   0.54111   0.92077   0.00000  Uiso   1.00
C1259  C     0.84705   0.65546   0.73840   0.00000  Uiso   1.00
C1260  C     0.81768   0.34576   0.76231   0.00000  Uiso   1.00
C1261  C     0.82272   0.38956   0.75873   0.00000  Uiso   1.00
C1262  C     0.84336   0.61099   0.74137   0.00000  Uiso   1.00
C1263  C     0.85496   0.47863   0.64414   0.00000  Uiso   1.00
C1264  C     0.81178   0.52088   0.85613   0.00000  Uiso   1.00
C1265  C     0.79879   0.52570   0.89929   0.00000  Uiso   1.00
C1266  C     0.86292   0.47131   0.60176   0.00000  Uiso   1.00
C1267  C     0.74552   0.54121   0.96164   0.00000  Uiso   1.00
C1268  C     0.94402   0.41774   0.51891   0.00000  Uiso   1.00
C1269  C     0.82426   0.51154   0.91879   0.00000  Uiso   1.00
C1270  C     0.98592   0.43601   0.51880   0.00000  Uiso   1.00
C1271  C     0.68827   0.41449   0.99903   0.00000  Uiso   1.00
C1272  C     0.68230   0.37463   0.97941   0.00000  Uiso   1.00
C1273  C     0.97398   0.35625   0.97952   0.00000  Uiso   1.00
C1274  C     0.93819   0.37762   0.99933   0.00000  Uiso   1.00
C1275  C     0.82261   0.53108   0.60277   0.00000  Uiso   1.00
C1276  C     0.84056   0.56937   0.58770   0.00000  Uiso   1.00
C1277  C     0.82486   0.60672   0.60716   0.00000  Uiso   1.00
C1278  C     0.79108   0.60623   0.64188   0.00000  Uiso   1.00
C1279  C     0.77261   0.56832   0.65691   0.00000  Uiso   1.00
C1280  C     0.81016   0.50915   0.95955   0.00000  Uiso   1.00
C1281  C     0.78798   0.53082   0.63737   0.00000  Uiso   1.00
C1282  C     0.70522   0.55997   0.98307   0.00000  Uiso   1.00
C1283  C     0.70688   0.59690   0.50857   0.00000  Uiso   1.00
C1284  C     0.66909   0.61518   0.52836   0.00000  Uiso   1.00
C1285  C     0.96282   0.59682   0.52274   0.00000  Uiso   1.00
C1286  C     0.96087   0.56003   0.99743   0.00000  Uiso   1.00
C1287  C     0.99864   0.54164   0.97752   0.00000  Uiso   1.00
C1288  C     0.77009   0.52421   0.98118   0.00000  Uiso   1.00
C1289  C     0.83472   0.49197   0.97929   0.00000  Uiso   1.00
C1290  C     0.82083   0.49361   0.52087   0.00000  Uiso   1.00
C1291  C     0.77915   0.50479   0.54072   0.00000  Uiso   1.00
C1292  C     0.75460   0.52029   0.52148   0.00000  Uiso   1.00
F1293  F     0.97974   0.47298   0.79392   0.00000  Uiso   1.00
F1294  F     0.78264   0.66336   0.79000   0.00000  Uiso   1.00
H1295  H     0.72294   0.52855   0.53850   0.00000  Uiso   1.00
H1296  H     0.99090   0.46696   0.53376   0.00000  Uiso   1.00
H1297  H     0.72054   0.42871   0.99888   0.00000  Uiso   1.00
H1298  H     0.70992   0.35796   0.96417   0.00000  Uiso   1.00
H1299  H     0.96942   0.65872   0.96431   0.00000  Uiso   1.00
H1300  H     0.90605   0.36307   0.99932   0.00000  Uiso   1.00
H1301  H     0.86689   0.57020   0.56096   0.00000  Uiso   1.00
H1302  H     0.83906   0.63607   0.59541   0.00000  Uiso   1.00
H1303  H     0.77913   0.63520   0.65709   0.00000  Uiso   1.00
H1304  H     0.74641   0.56809   0.68376   0.00000  Uiso   1.00
H1305  H     0.77277   0.50170   0.64907   0.00000  Uiso   1.00
H1306  H     0.68337   0.52358   0.71324   0.00000  Uiso   1.00
H1307  H     0.73746   0.61157   0.51294   0.00000  Uiso   1.00
H1308  H     0.67054   0.64376   0.54782   0.00000  Uiso   1.00
H1309  H     0.93378   0.61144   0.53774   0.00000  Uiso   1.00
H1310  H     0.93015   0.54592   0.99311   0.00000  Uiso   1.00
H1311  H     0.99680   0.51315   0.95797   0.00000  Uiso   1.00
H1312  H     0.87432   0.33599   0.71638   0.00000  Uiso   1.00
H1313  H     0.91215   0.43179   0.59609   0.00000  Uiso   1.00
H1314  H     0.92169   0.43830   0.96113   0.00000  Uiso   1.00
H1315  H     0.74027   0.55276   0.90572   0.00000  Uiso   1.00
H1316  H     0.85515   0.50255   0.90112   0.00000  Uiso   1.00
H1317  H     0.76416   0.50013   0.57119   0.00000  Uiso   1.00
H1318  H     0.88310   0.46689   0.92733   0.00000  Uiso   1.00
O1319  O     0.83333   0.50000   0.75000   0.00000  Uiso   1.00
O1320  O     0.82360   0.45726   0.66625   0.00000  Uiso   1.00
O1321  O     0.79354   0.53979   0.83749   0.00000  Uiso   1.00
O1322  O     0.87755   0.50826   0.65877   0.00000  Uiso   1.00
O1323  O     0.83865   0.49468   0.83749   0.00000  Uiso   1.00
O1324  O     0.84515   0.41434   0.77821   0.00000  Uiso   1.00
O1325  O     0.81247   0.59469   0.76767   0.00000  Uiso   1.00
O1326  O     0.74119   0.46584   0.73607   0.00000  Uiso   1.00
O1327  O     0.93452   0.52512   0.71806   0.00000  Uiso   1.00
O1328  O     0.73656   0.52293   0.77820   0.00000  Uiso   1.00
O1329  O     0.92106   0.48610   0.76768   0.00000  Uiso   1.00
O1330  O     0.80467   0.40236   0.73607   0.00000  Uiso   1.00
O1331  O     0.87104   0.58860   0.71806   0.00000  Uiso   1.00
Zn1332 Zn    0.85910   0.47423   0.78278   0.00000  Uiso   1.00
Zn1333 Zn    0.80125   0.45711   0.72257   0.00000  Uiso   1.00
Zn1334 Zn    0.87833   0.52997   0.71188   0.00000  Uiso   1.00
Zn1335 Zn    0.79465   0.53868   0.78277   0.00000  Uiso   1.00
C1336  C     0.05267   0.82697   0.75843   0.00000  Uiso   1.00
C1337  C     0.20503   0.80508   0.95887   0.00000  Uiso   1.00
C1338  C     0.22765   0.78758   0.97863   0.00000  Uiso   1.00
C1339  C     0.28101   0.84009   0.74118   0.00000  Uiso   1.00
C1340  C     0.21607   0.79147   0.51972   0.00000  Uiso   1.00
C1341  C     0.18092   0.81437   0.54131   0.00000  Uiso   1.00
C1342  C     0.23974   0.77409   0.53971   0.00000  Uiso   1.00
C1343  C     0.22812   0.77930   0.58062   0.00000  Uiso   1.00
C1344  C     0.17487   0.82523   0.58235   0.00000  Uiso   1.00
C1345  C     0.32695   0.84172   0.73726   0.00000  Uiso   1.00
C1346  C     0.00728   0.82459   0.76265   0.00000  Uiso   1.00
C1347  C     0.09317   0.87444   0.92077   0.00000  Uiso   1.00
C1348  C     0.18039   0.98879   0.73840   0.00000  Uiso   1.00
C1349  C     0.15102   0.67909   0.76231   0.00000  Uiso   1.00
C1350  C     0.15605   0.72290   0.75873   0.00000  Uiso   1.00
C1351  C     0.17669   0.94432   0.74137   0.00000  Uiso   1.00
C1352  C     0.18829   0.81196   0.64414   0.00000  Uiso   1.00
C1353  C     0.14511   0.85422   0.85613   0.00000  Uiso   1.00
C1354  C     0.13212   0.85904   0.89929   0.00000  Uiso   1.00
C1355  C     0.19626   0.80464   0.60176   0.00000  Uiso   1.00
C1356  C     0.07885   0.87454   0.96164   0.00000  Uiso   1.00
C1357  C     0.27735   0.75107   0.51891   0.00000  Uiso   1.00
C1358  C     0.15759   0.84487   0.91879   0.00000  Uiso   1.00
C1359  C     0.31926   0.76934   0.51880   0.00000  Uiso   1.00
C1360  C     0.02160   0.74783   0.99903   0.00000  Uiso   1.00
C1361  C     0.01563   0.70797   0.97941   0.00000  Uiso   1.00
C1362  C     0.30731   0.68958   0.97952   0.00000  Uiso   1.00
C1363  C     0.27153   0.71095   0.99933   0.00000  Uiso   1.00
C1364  C     0.15594   0.86441   0.60277   0.00000  Uiso   1.00
C1365  C     0.17389   0.90270   0.58770   0.00000  Uiso   1.00
C1366  C     0.15820   0.94005   0.60716   0.00000  Uiso   1.00
C1367  C     0.12441   0.93956   0.64188   0.00000  Uiso   1.00
C1368  C     0.10594   0.90166   0.65691   0.00000  Uiso   1.00
C1369  C     0.14350   0.84249   0.95955   0.00000  Uiso   1.00
C1370  C     0.12131   0.86415   0.63737   0.00000  Uiso   1.00
C1371  C     0.03856   0.89330   0.98307   0.00000  Uiso   1.00
C1372  C     0.04022   0.93023   0.50857   0.00000  Uiso   1.00
C1373  C     0.00242   0.94851   0.52836   0.00000  Uiso   1.00
C1374  C     0.29615   0.93016   0.52274   0.00000  Uiso   1.00
C1375  C     0.29421   0.89336   0.99743   0.00000  Uiso   1.00
C1376  C     0.33198   0.87497   0.97752   0.00000  Uiso   1.00
C1377  C     0.10343   0.85754   0.98118   0.00000  Uiso   1.00
C1378  C     0.16805   0.82530   0.97929   0.00000  Uiso   1.00
C1379  C     0.15417   0.82694   0.52087   0.00000  Uiso   1.00
C1380  C     0.11249   0.83812   0.54072   0.00000  Uiso   1.00
C1381  C     0.08793   0.85362   0.52148   0.00000  Uiso   1.00
F1382  F     0.31307   0.80631   0.79392   0.00000  Uiso   1.00
F1383  F     0.11597   0.99669   0.79000   0.00000  Uiso   1.00
H1384  H     0.05627   0.86188   0.53850   0.00000  Uiso   1.00
H1385  H     0.32424   0.80029   0.53376   0.00000  Uiso   1.00
H1386  H     0.05387   0.76205   0.99888   0.00000  Uiso   1.00
H1387  H     0.04326   0.69129   0.96417   0.00000  Uiso   1.00
H1388  H     0.30275   0.99205   0.96431   0.00000  Uiso   1.00
H1389  H     0.23938   0.69641   0.99932   0.00000  Uiso   1.00
H1390  H     0.20022   0.90353   0.56096   0.00000  Uiso   1.00
H1391  H     0.17239   0.96940   0.59541   0.00000  Uiso   1.00
H1392  H     0.11247   0.96853   0.65709   0.00000  Uiso   1.00
H1393  H     0.07975   0.90142   0.68376   0.00000  Uiso   1.00
H1394  H     0.10610   0.83504   0.64907   0.00000  Uiso   1.00
H1395  H     0.01670   0.85691   0.71324   0.00000  Uiso   1.00
H1396  H     0.07079   0.94490   0.51294   0.00000  Uiso   1.00
H1397  H     0.00387   0.97710   0.54782   0.00000  Uiso   1.00
H1398  H     0.26712   0.94477   0.53774   0.00000  Uiso   1.00
H1399  H     0.26348   0.87926   0.99311   0.00000  Uiso   1.00
H1400  H     0.33014   0.84648   0.95797   0.00000  Uiso   1.00
H1401  H     0.20765   0.66932   0.71638   0.00000  Uiso   1.00
H1402  H     0.24549   0.76513   0.59609   0.00000  Uiso   1.00
H1403  H     0.25503   0.77164   0.96113   0.00000  Uiso   1.00
H1404  H     0.07360   0.88610   0.90572   0.00000  Uiso   1.00
H1405  H     0.18849   0.83589   0.90112   0.00000  Uiso   1.00
H1406  H     0.09750   0.83347   0.57119   0.00000  Uiso   1.00
H1407  H     0.21644   0.80022   0.92733   0.00000  Uiso   1.00
O1408  O     0.16667   0.83333   0.75000   0.00000  Uiso   1.00
O1409  O     0.15693   0.79060   0.66625   0.00000  Uiso   1.00
O1410  O     0.12687   0.87313   0.83749   0.00000  Uiso   1.00
O1411  O     0.21088   0.84159   0.65877   0.00000  Uiso   1.00
O1412  O     0.17198   0.82802   0.83749   0.00000  Uiso   1.00
O1413  O     0.17849   0.74768   0.77821   0.00000  Uiso   1.00
O1414  O     0.14581   0.92803   0.76767   0.00000  Uiso   1.00
O1415  O     0.07452   0.79917   0.73607   0.00000  Uiso   1.00
O1416  O     0.26785   0.85845   0.71806   0.00000  Uiso   1.00
O1417  O     0.06990   0.85627   0.77820   0.00000  Uiso   1.00
O1418  O     0.25440   0.81944   0.76768   0.00000  Uiso   1.00
O1419  O     0.13800   0.73570   0.73607   0.00000  Uiso   1.00
O1420  O     0.20437   0.92193   0.71806   0.00000  Uiso   1.00
Zn1421 Zn    0.19244   0.80756   0.78278   0.00000  Uiso   1.00
Zn1422 Zn    0.13459   0.79044   0.72257   0.00000  Uiso   1.00
Zn1423 Zn    0.21166   0.86331   0.71188   0.00000  Uiso   1.00
Zn1424 Zn    0.12798   0.87202   0.78277   0.00000  Uiso   1.00
C1425  C     0.38601   0.82697   0.75843   0.00000  Uiso   1.00
C1426  C     0.53837   0.80508   0.95887   0.00000  Uiso   1.00
C1427  C     0.56098   0.78758   0.97863   0.00000  Uiso   1.00
C1428  C     0.61434   0.84009   0.74118   0.00000  Uiso   1.00
C1429  C     0.54940   0.79147   0.51972   0.00000  Uiso   1.00
C1430  C     0.51425   0.81437   0.54131   0.00000  Uiso   1.00
C1431  C     0.57308   0.77409   0.53971   0.00000  Uiso   1.00
C1432  C     0.56145   0.77930   0.58062   0.00000  Uiso   1.00
C1433  C     0.50820   0.82523   0.58235   0.00000  Uiso   1.00
C1434  C     0.66029   0.84172   0.73726   0.00000  Uiso   1.00
C1435  C     0.34062   0.82459   0.76265   0.00000  Uiso   1.00
C1436  C     0.42650   0.87444   0.92077   0.00000  Uiso   1.00
C1437  C     0.51372   0.98879   0.73840   0.00000  Uiso   1.00
C1438  C     0.48435   0.67909   0.76231   0.00000  Uiso   1.00
C1439  C     0.48939   0.72290   0.75873   0.00000  Uiso   1.00
C1440  C     0.51002   0.94432   0.74137   0.00000  Uiso   1.00
C1441  C     0.52163   0.81196   0.64414   0.00000  Uiso   1.00
C1442  C     0.47845   0.85422   0.85613   0.00000  Uiso   1.00
C1443  C     0.46546   0.85904   0.89929   0.00000  Uiso   1.00
C1444  C     0.52959   0.80464   0.60176   0.00000  Uiso   1.00
C1445  C     0.41219   0.87454   0.96164   0.00000  Uiso   1.00
C1446  C     0.61069   0.75107   0.51891   0.00000  Uiso   1.00
C1447  C     0.49092   0.84487   0.91879   0.00000  Uiso   1.00
C1448  C     0.65259   0.76934   0.51880   0.00000  Uiso   1.00
C1449  C     0.35494   0.74783   0.99903   0.00000  Uiso   1.00
C1450  C     0.34896   0.70797   0.97941   0.00000  Uiso   1.00
C1451  C     0.64064   0.68958   0.97952   0.00000  Uiso   1.00
C1452  C     0.60486   0.71095   0.99933   0.00000  Uiso   1.00
C1453  C     0.48927   0.86441   0.60277   0.00000  Uiso   1.00
C1454  C     0.50723   0.90270   0.58770   0.00000  Uiso   1.00
C1455  C     0.49153   0.94005   0.60716   0.00000  Uiso   1.00
C1456  C     0.45775   0.93956   0.64188   0.00000  Uiso   1.00
C1457  C     0.43928   0.90166   0.65691   0.00000  Uiso   1.00
C1458  C     0.47683   0.84249   0.95955   0.00000  Uiso   1.00
C1459  C     0.45465   0.86415   0.63737   0.00000  Uiso   1.00
C1460  C     0.37189   0.89330   0.98307   0.00000  Uiso   1.00
C1461  C     0.37355   0.93023   0.50857   0.00000  Uiso   1.00
C1462  C     0.33576   0.94851   0.52836   0.00000  Uiso   1.00
C1463  C     0.62949   0.93016   0.52274   0.00000  Uiso   1.00
C1464  C     0.62754   0.89336   0.99743   0.00000  Uiso   1.00
C1465  C     0.66531   0.87497   0.97752   0.00000  Uiso   1.00
C1466  C     0.43676   0.85754   0.98118   0.00000  Uiso   1.00
C1467  C     0.50139   0.82530   0.97929   0.00000  Uiso   1.00
C1468  C     0.48750   0.82694   0.52087   0.00000  Uiso   1.00
C1469  C     0.44582   0.83812   0.54072   0.00000  Uiso   1.00
C1470  C     0.42126   0.85362   0.52148   0.00000  Uiso   1.00
F1471  F     0.64641   0.80631   0.79392   0.00000  Uiso   1.00
F1472  F     0.44930   0.99669   0.79000   0.00000  Uiso   1.00
H1473  H     0.38960   0.86188   0.53850   0.00000  Uiso   1.00
H1474  H     0.65757   0.80029   0.53376   0.00000  Uiso   1.00
H1475  H     0.38721   0.76205   0.99888   0.00000  Uiso   1.00
H1476  H     0.37659   0.69129   0.96417   0.00000  Uiso   1.00
H1477  H     0.63609   0.99205   0.96431   0.00000  Uiso   1.00
H1478  H     0.57272   0.69641   0.99932   0.00000  Uiso   1.00
H1479  H     0.53355   0.90353   0.56096   0.00000  Uiso   1.00
H1480  H     0.50572   0.96940   0.59541   0.00000  Uiso   1.00
H1481  H     0.44580   0.96853   0.65709   0.00000  Uiso   1.00
H1482  H     0.41308   0.90142   0.68376   0.00000  Uiso   1.00
H1483  H     0.43943   0.83504   0.64907   0.00000  Uiso   1.00
H1484  H     0.35003   0.85691   0.71324   0.00000  Uiso   1.00
H1485  H     0.40413   0.94490   0.51294   0.00000  Uiso   1.00
H1486  H     0.33721   0.97710   0.54782   0.00000  Uiso   1.00
H1487  H     0.60045   0.94477   0.53774   0.00000  Uiso   1.00
H1488  H     0.59681   0.87926   0.99311   0.00000  Uiso   1.00
H1489  H     0.66347   0.84648   0.95797   0.00000  Uiso   1.00
H1490  H     0.54099   0.66932   0.71638   0.00000  Uiso   1.00
H1491  H     0.57882   0.76513   0.59609   0.00000  Uiso   1.00
H1492  H     0.58836   0.77164   0.96113   0.00000  Uiso   1.00
H1493  H     0.40693   0.88610   0.90572   0.00000  Uiso   1.00
H1494  H     0.52182   0.83589   0.90112   0.00000  Uiso   1.00
H1495  H     0.43083   0.83347   0.57119   0.00000  Uiso   1.00
H1496  H     0.54977   0.80022   0.92733   0.00000  Uiso   1.00
O1497  O     0.50000   0.83333   0.75000   0.00000  Uiso   1.00
O1498  O     0.49027   0.79060   0.66625   0.00000  Uiso   1.00
O1499  O     0.46020   0.87313   0.83749   0.00000  Uiso   1.00
O1500  O     0.54421   0.84159   0.65877   0.00000  Uiso   1.00
O1501  O     0.50532   0.82802   0.83749   0.00000  Uiso   1.00
O1502  O     0.51182   0.74768   0.77821   0.00000  Uiso   1.00
O1503  O     0.47914   0.92803   0.76767   0.00000  Uiso   1.00
O1504  O     0.40785   0.79917   0.73607   0.00000  Uiso   1.00
O1505  O     0.60119   0.85845   0.71806   0.00000  Uiso   1.00
O1506  O     0.40323   0.85627   0.77820   0.00000  Uiso   1.00
O1507  O     0.58773   0.81944   0.76768   0.00000  Uiso   1.00
O1508  O     0.47133   0.73570   0.73607   0.00000  Uiso   1.00
O1509  O     0.53771   0.92193   0.71806   0.00000  Uiso   1.00
Zn1510 Zn    0.52577   0.80756   0.78278   0.00000  Uiso   1.00
Zn1511 Zn    0.46792   0.79044   0.72257   0.00000  Uiso   1.00
Zn1512 Zn    0.54500   0.86331   0.71188   0.00000  Uiso   1.00
Zn1513 Zn    0.46131   0.87202   0.78277   0.00000  Uiso   1.00
C1514  C     0.71934   0.82697   0.75843   0.00000  Uiso   1.00
C1515  C     0.87170   0.80508   0.95887   0.00000  Uiso   1.00
C1516  C     0.89431   0.78758   0.97863   0.00000  Uiso   1.00
C1517  C     0.94767   0.84009   0.74118   0.00000  Uiso   1.00
C1518  C     0.88273   0.79147   0.51972   0.00000  Uiso   1.00
C1519  C     0.84759   0.81437   0.54131   0.00000  Uiso   1.00
C1520  C     0.90641   0.77409   0.53971   0.00000  Uiso   1.00
C1521  C     0.89478   0.77930   0.58062   0.00000  Uiso   1.00
C1522  C     0.84154   0.82523   0.58235   0.00000  Uiso   1.00
C1523  C     0.99362   0.84172   0.73726   0.00000  Uiso   1.00
C1524  C     0.67395   0.82459   0.76265   0.00000  Uiso   1.00
C1525  C     0.75983   0.87444   0.92077   0.00000  Uiso   1.00
C1526  C     0.84705   0.98879   0.73840   0.00000  Uiso   1.00
C1527  C     0.81768   0.67909   0.76231   0.00000  Uiso   1.00
C1528  C     0.82272   0.72290   0.75873   0.00000  Uiso   1.00
C1529  C     0.84336   0.94432   0.74137   0.00000  Uiso   1.00
C1530  C     0.85496   0.81196   0.64414   0.00000  Uiso   1.00
C1531  C     0.81178   0.85422   0.85613   0.00000  Uiso   1.00
C1532  C     0.79879   0.85904   0.89929   0.00000  Uiso   1.00
C1533  C     0.86292   0.80464   0.60176   0.00000  Uiso   1.00
C1534  C     0.74552   0.87454   0.96164   0.00000  Uiso   1.00
C1535  C     0.94402   0.75107   0.51891   0.00000  Uiso   1.00
C1536  C     0.82426   0.84487   0.91879   0.00000  Uiso   1.00
C1537  C     0.98592   0.76934   0.51880   0.00000  Uiso   1.00
C1538  C     0.68827   0.74783   0.99903   0.00000  Uiso   1.00
C1539  C     0.68230   0.70797   0.97941   0.00000  Uiso   1.00
C1540  C     0.97398   0.68958   0.97952   0.00000  Uiso   1.00
C1541  C     0.93819   0.71095   0.99933   0.00000  Uiso   1.00
C1542  C     0.82261   0.86441   0.60277   0.00000  Uiso   1.00
C1543  C     0.84056   0.90270   0.58770   0.00000  Uiso   1.00
C1544  C     0.82486   0.94005   0.60716   0.00000  Uiso   1.00
C1545  C     0.79108   0.93956   0.64188   0.00000  Uiso   1.00
C1546  C     0.77261   0.90166   0.65691   0.00000  Uiso   1.00
C1547  C     0.81016   0.84249   0.95955   0.00000  Uiso   1.00
C1548  C     0.78798   0.86415   0.63737   0.00000  Uiso   1.00
C1549  C     0.70522   0.89330   0.98307   0.00000  Uiso   1.00
C1550  C     0.70688   0.93023   0.50857   0.00000  Uiso   1.00
C1551  C     0.66909   0.94851   0.52836   0.00000  Uiso   1.00
C1552  C     0.96282   0.93016   0.52274   0.00000  Uiso   1.00
C1553  C     0.96087   0.89336   0.99743   0.00000  Uiso   1.00
C1554  C     0.99864   0.87497   0.97752   0.00000  Uiso   1.00
C1555  C     0.77009   0.85754   0.98118   0.00000  Uiso   1.00
C1556  C     0.83472   0.82530   0.97929   0.00000  Uiso   1.00
C1557  C     0.82083   0.82694   0.52087   0.00000  Uiso   1.00
C1558  C     0.77915   0.83812   0.54072   0.00000  Uiso   1.00
C1559  C     0.75460   0.85362   0.52148   0.00000  Uiso   1.00
F1560  F     0.97974   0.80631   0.79392   0.00000  Uiso   1.00
F1561  F     0.78264   0.99669   0.79000   0.00000  Uiso   1.00
H1562  H     0.72294   0.86188   0.53850   0.00000  Uiso   1.00
H1563  H     0.99090   0.80029   0.53376   0.00000  Uiso   1.00
H1564  H     0.72054   0.76205   0.99888   0.00000  Uiso   1.00
H1565  H     0.70992   0.69129   0.96417   0.00000  Uiso   1.00
H1566  H     0.96942   0.99205   0.96431   0.00000  Uiso   1.00
H1567  H     0.90605   0.69641   0.99932   0.00000  Uiso   1.00
H1568  H     0.86689   0.90353   0.56096   0.00000  Uiso   1.00
H1569  H     0.83906   0.96940   0.59541   0.00000  Uiso   1.00
H1570  H     0.77913   0.96853   0.65709   0.00000  Uiso   1.00
H1571  H     0.74641   0.90142   0.68376   0.00000  Uiso   1.00
H1572  H     0.77277   0.83504   0.64907   0.00000  Uiso   1.00
H1573  H     0.68337   0.85691   0.71324   0.00000  Uiso   1.00
H1574  H     0.73746   0.94490   0.51294   0.00000  Uiso   1.00
H1575  H     0.67054   0.97710   0.54782   0.00000  Uiso   1.00
H1576  H     0.93378   0.94477   0.53774   0.00000  Uiso   1.00
H1577  H     0.93015   0.87926   0.99311   0.00000  Uiso   1.00
H1578  H     0.99680   0.84648   0.95797   0.00000  Uiso   1.00
H1579  H     0.87432   0.66932   0.71638   0.00000  Uiso   1.00
H1580  H     0.91215   0.76513   0.59609   0.00000  Uiso   1.00
H1581  H     0.92169   0.77164   0.96113   0.00000  Uiso   1.00
H1582  H     0.74027   0.88610   0.90572   0.00000  Uiso   1.00
H1583  H     0.85515   0.83589   0.90112   0.00000  Uiso   1.00
H1584  H     0.76416   0.83347   0.57119   0.00000  Uiso   1.00
H1585  H     0.88310   0.80022   0.92733   0.00000  Uiso   1.00
O1586  O     0.83333   0.83333   0.75000   0.00000  Uiso   1.00
O1587  O     0.82360   0.79060   0.66625   0.00000  Uiso   1.00
O1588  O     0.79354   0.87313   0.83749   0.00000  Uiso   1.00
O1589  O     0.87755   0.84159   0.65877   0.00000  Uiso   1.00
O1590  O     0.83865   0.82802   0.83749   0.00000  Uiso   1.00
O1591  O     0.84515   0.74768   0.77821   0.00000  Uiso   1.00
O1592  O     0.81247   0.92803   0.76767   0.00000  Uiso   1.00
O1593  O     0.74119   0.79917   0.73607   0.00000  Uiso   1.00
O1594  O     0.93452   0.85845   0.71806   0.00000  Uiso   1.00
O1595  O     0.73656   0.85627   0.77820   0.00000  Uiso   1.00
O1596  O     0.92106   0.81944   0.76768   0.00000  Uiso   1.00
O1597  O     0.80467   0.73570   0.73607   0.00000  Uiso   1.00
O1598  O     0.87104   0.92193   0.71806   0.00000  Uiso   1.00
Zn1599 Zn    0.85910   0.80756   0.78278   0.00000  Uiso   1.00
Zn1600 Zn    0.80125   0.79044   0.72257   0.00000  Uiso   1.00
Zn1601 Zn    0.87833   0.86331   0.71188   0.00000  Uiso   1.00
Zn1602 Zn    0.79465   0.87202   0.78277   0.00000  Uiso   1.00
loop_
_geom_bond_atom_site_label_1
_geom_bond_atom_site_label_2
_geom_bond_distance
_geom_bond_site_symmetry_2
_ccdc_geom_bond_type
C1     C11     1.433   .     S
C1     O82     1.267   .     A
C1     O80     1.269   .     A
C2     H72     1.076   .     S
C2     C43     1.413   .     A
C2     C3      1.385   .     A
C3     H68     1.082   .     S
C3     C806    1.399   .     S
C4     O81     1.287   .     A
C4     C10     1.455   .     S
C4     O83     1.276   .     A
C5     C6      1.424   .     A
C5     C7      1.415   .     A
C5     C804    1.399   1_554 S
C6     C9      1.423   .     A
C6     C44     1.426   .     A
C7     C8      1.392   .     A
C7     C22     1.480   .     S
C8     C20     1.393   .     A
C8     H67     1.085   .     S
C9     C29     1.496   .     S
C9     C20     1.407   .     A
C10    C100    1.341   .     S
C10    H149    1.086   .     S
C11    C188    1.341   1_455 S
C11    F225    1.361   1_455 S
C12    H69     1.084   .     S
C12    C21     1.399   .     A
C12    C19     1.398   .     A
C13    C16     1.450   .     S
C13    C281    1.336   .     S
C13    H333    1.088   .     S
C14    C15     1.430   .     S
C14    C547    1.336   1_545 S
C14    F582    1.361   1_545 S
C15    O78     1.278   .     A
C15    O84     1.277   .     A
C16    O85     1.271   .     A
C16    O79     1.267   .     A
C17    C20     1.453   .     S
C17    O76     1.271   .     A
C17    O74     1.274   .     A
C18    O75     1.281   .     A
C18    C19     1.469   .     S
C18    O77     1.285   .     A
C19    C23     1.393   .     A
C21    C36     1.481   .     S
C21    C42     1.419   .     A
C22    C24     1.405   .     A
C22    C829    1.404   1_554 S
C23    H70     1.076   .     S
C23    C34     1.406   .     A
C24    H50     1.083   .     S
C24    C915    1.398   1_554 S
C25    C26     1.398   .     A
C25    H51     1.082   .     S
C25    C1003   1.398   1_455 S
C26    H52     1.082   .     S
C26    C205    1.398   1_455 S
C27    C28     1.399   .     A
C27    C115    1.398   .     S
C27    H587    1.082   1_545 S
C28    H54     1.083   .     S
C28    C823    1.404   .     S
C29    C30     1.406   .     A
C29    C35     1.408   .     A
C30    H55     1.081   .     S
C30    C31     1.397   .     A
C31    H56     1.082   .     S
C31    C32     1.396   .     A
C32    H57     1.082   .     S
C32    C33     1.397   .     A
C33    H58     1.081   .     S
C33    C35     1.399   .     A
C34    C42     1.424   .     A
C34    C43     1.427   .     A
C35    H59     1.082   .     S
C36    C838    1.405   .     S
C36    C219    1.405   1_455 S
C37    C38     1.397   .     A
C37    H61     1.083   .     S
C37    C837    1.405   1_554 S
C38    H62     1.082   .     S
C38    C217    1.397   1_455 S
C39    H63     1.081   .     S
C39    C127    1.397   .     S
C39    C841    1.398   1_554 S
C40    C41     1.399   .     A
C40    H64     1.082   .     S
C40    C840    1.398   .     S
C41    H65     1.083   .     S
C41    C125    1.405   .     S
C42    C847    1.400   .     S
C43    C845    1.419   .     S
C44    C45     1.408   .     A
C44    C844    1.419   1_554 S
C45    H71     1.079   .     S
C45    C46     1.385   .     A
C46    H49     1.082   .     S
C46    C843    1.400   1_554 S
F47    C100    1.361   .     S
F48    C281    1.361   .     S
H53    C294    1.082   .     S
H60    C188    1.086   1_455 S
H66    C547    1.088   1_545 S
O73    Zn87    1.944   .     S
O73    Zn88    1.934   .     S
O73    Zn89    1.929   .     S
O73    Zn86    1.966   .     S
O74    Zn87    1.933   .     S
O75    Zn89    1.945   .     S
O76    Zn88    1.938   .     S
O77    Zn86    1.927   .     S
O78    Zn86    1.927   .     S
O79    Zn89    1.932   .     S
O80    Zn87    1.926   .     S
O81    Zn88    1.940   .     S
O82    Zn89    1.934   .     S
O83    Zn86    1.923   .     S
O84    Zn87    1.938   .     S
O85    Zn88    1.930   .     S
C90    C100    1.433   .     S
C90    O171    1.267   .     A
C90    O169    1.269   .     A
C91    H161    1.076   .     S
C91    C132    1.413   .     A
C91    C92     1.385   .     A
C92    H157    1.082   .     S
C92    C895    1.399   .     S
C93    O170    1.287   .     A
C93    C99     1.455   .     S
C93    O172    1.276   .     A
C94    C95     1.424   .     A
C94    C96     1.415   .     A
C94    C893    1.399   1_554 S
C95    C98     1.423   .     A
C95    C133    1.426   .     A
C96    C97     1.392   .     A
C96    C111    1.480   .     S
C97    C109    1.393   .     A
C97    H156    1.085   .     S
C98    C118    1.496   .     S
C98    C109    1.407   .     A
C99    C189    1.341   .     S
C99    H238    1.086   .     S
C101   H158    1.084   .     S
C101   C110    1.399   .     A
C101   C108    1.398   .     A
C102   C105    1.450   .     S
C102   C370    1.336   .     S
C102   H422    1.088   .     S
C103   C104    1.430   .     S
C103   C636    1.336   1_545 S
C103   F671    1.361   1_545 S
C104   O167    1.278   .     A
C104   O173    1.277   .     A
C105   O174    1.271   .     A
C105   O168    1.267   .     A
C106   C109    1.453   .     S
C106   O165    1.271   .     A
C106   O163    1.274   .     A
C107   O164    1.281   .     A
C107   C108    1.469   .     S
C107   O166    1.285   .     A
C108   C112    1.393   .     A
C110   C125    1.481   .     S
C110   C131    1.419   .     A
C111   C113    1.405   .     A
C111   C918    1.404   1_554 S
C112   H159    1.076   .     S
C112   C123    1.406   .     A
C113   H139    1.083   .     S
C113   C1004   1.398   1_554 S
C114   C115    1.398   .     A
C114   H140    1.082   .     S
C114   C825    1.398   .     S
C115   H141    1.082   .     S
C116   C117    1.399   .     A
C116   C204    1.398   .     S
C116   H676    1.082   1_545 S
C117   H143    1.083   .     S
C117   C912    1.404   .     S
C118   C119    1.406   .     A
C118   C124    1.408   .     A
C119   H144    1.081   .     S
C119   C120    1.397   .     A
C120   H145    1.082   .     S
C120   C121    1.396   .     A
C121   H146    1.082   .     S
C121   C122    1.397   .     A
C122   H147    1.081   .     S
C122   C124    1.399   .     A
C123   C131    1.424   .     A
C123   C132    1.427   .     A
C124   H148    1.082   .     S
C125   C927    1.405   .     S
C126   C127    1.397   .     A
C126   H150    1.083   .     S
C126   C926    1.405   1_554 S
C127   H151    1.082   .     S
C128   H152    1.081   .     S
C128   C216    1.397   .     S
C128   C930    1.398   1_554 S
C129   C130    1.399   .     A
C129   H153    1.082   .     S
C129   C929    1.398   .     S
C130   H154    1.083   .     S
C130   C214    1.405   .     S
C131   C936    1.400   .     S
C132   C934    1.419   .     S
C133   C134    1.408   .     A
C133   C933    1.419   1_554 S
C134   H160    1.079   .     S
C134   C135    1.385   .     A
C135   H138    1.082   .     S
C135   C932    1.400   1_554 S
F136   C189    1.361   .     S
F137   C370    1.361   .     S
H142   C383    1.082   .     S
H155   C636    1.088   1_545 S
O162   Zn176   1.944   .     S
O162   Zn177   1.934   .     S
O162   Zn178   1.929   .     S
O162   Zn175   1.966   .     S
O163   Zn176   1.933   .     S
O164   Zn178   1.945   .     S
O165   Zn177   1.938   .     S
O166   Zn175   1.927   .     S
O167   Zn175   1.927   .     S
O168   Zn178   1.932   .     S
O169   Zn176   1.926   .     S
O170   Zn177   1.940   .     S
O171   Zn178   1.934   .     S
O172   Zn175   1.923   .     S
O173   Zn176   1.938   .     S
O174   Zn177   1.930   .     S
C179   C189    1.433   .     S
C179   O260    1.267   .     A
C179   O258    1.269   .     A
C180   H250    1.076   .     S
C180   C221    1.413   .     A
C180   C181    1.385   .     A
C181   H246    1.082   .     S
C181   C984    1.399   .     S
C182   O259    1.287   .     A
C182   C188    1.455   .     S
C182   O261    1.276   .     A
C183   C184    1.424   .     A
C183   C185    1.415   .     A
C183   C982    1.399   1_554 S
C184   C187    1.423   .     A
C184   C222    1.426   .     A
C185   C186    1.392   .     A
C185   C200    1.480   .     S
C186   C198    1.393   .     A
C186   H245    1.085   .     S
C187   C207    1.496   .     S
C187   C198    1.407   .     A
C188   C11     1.341   1_655 S
C188   H60     1.086   1_655 S
C190   H247    1.084   .     S
C190   C199    1.399   .     A
C190   C197    1.398   .     A
C191   C194    1.450   .     S
C191   C459    1.336   .     S
C191   H511    1.088   .     S
C192   C193    1.430   .     S
C192   C725    1.336   1_545 S
C192   F760    1.361   1_545 S
C193   O256    1.278   .     A
C193   O262    1.277   .     A
C194   O263    1.271   .     A
C194   O257    1.267   .     A
C195   C198    1.453   .     S
C195   O254    1.271   .     A
C195   O252    1.274   .     A
C196   O253    1.281   .     A
C196   C197    1.469   .     S
C196   O255    1.285   .     A
C197   C201    1.393   .     A
C199   C214    1.481   .     S
C199   C220    1.419   .     A
C200   C202    1.405   .     A
C200   C1007   1.404   1_554 S
C201   H248    1.076   .     S
C201   C212    1.406   .     A
C202   H228    1.083   .     S
C202   C826    1.398   1_654 S
C203   C204    1.398   .     A
C203   H229    1.082   .     S
C203   C914    1.398   .     S
C204   H230    1.082   .     S
C205   C206    1.399   .     A
C205   C26     1.398   1_655 S
C205   H765    1.082   1_545 S
C206   H232    1.083   .     S
C206   C1001   1.404   .     S
C207   C208    1.406   .     A
C207   C213    1.408   .     A
C208   H233    1.081   .     S
C208   C209    1.397   .     A
C209   H234    1.082   .     S
C209   C210    1.396   .     A
C210   H235    1.082   .     S
C210   C211    1.397   .     A
C211   H236    1.081   .     S
C211   C213    1.399   .     A
C212   C220    1.424   .     A
C212   C221    1.427   .     A
C213   H237    1.082   .     S
C214   C1016   1.405   .     S
C215   C216    1.397   .     A
C215   H239    1.083   .     S
C215   C1015   1.405   1_554 S
C216   H240    1.082   .     S
C217   H241    1.081   .     S
C217   C38     1.397   1_655 S
C217   C1019   1.398   1_554 S
C218   C219    1.399   .     A
C218   H242    1.082   .     S
C218   C1018   1.398   .     S
C219   H243    1.083   .     S
C219   C36     1.405   1_655 S
C220   C1025   1.400   .     S
C221   C1023   1.419   .     S
C222   C223    1.408   .     A
C222   C1022   1.419   1_554 S
C223   H249    1.079   .     S
C223   C224    1.385   .     A
C224   H227    1.082   .     S
C224   C1021   1.400   1_554 S
F225   C11     1.361   1_655 S
F226   C459    1.361   .     S
H231   C472    1.082   .     S
H244   C725    1.088   1_545 S
O251   Zn265   1.944   .     S
O251   Zn266   1.934   .     S
O251   Zn267   1.929   .     S
O251   Zn264   1.966   .     S
O252   Zn265   1.933   .     S
O253   Zn267   1.945   .     S
O254   Zn266   1.938   .     S
O255   Zn264   1.927   .     S
O256   Zn264   1.927   .     S
O257   Zn267   1.932   .     S
O258   Zn265   1.926   .     S
O259   Zn266   1.940   .     S
O260   Zn267   1.934   .     S
O261   Zn264   1.923   .     S
O262   Zn265   1.938   .     S
O263   Zn266   1.930   .     S
C268   C278    1.433   .     S
C268   O349    1.267   .     A
C268   O347    1.269   .     A
C269   H339    1.076   .     S
C269   C310    1.413   .     A
C269   C270    1.385   .     A
C270   H335    1.082   .     S
C270   C1073   1.399   .     S
C271   O348    1.287   .     A
C271   C277    1.455   .     S
C271   O350    1.276   .     A
C272   C273    1.424   .     A
C272   C274    1.415   .     A
C272   C1071   1.399   1_554 S
C273   C276    1.423   .     A
C273   C311    1.426   .     A
C274   C275    1.392   .     A
C274   C289    1.480   .     S
C275   C287    1.393   .     A
C275   H334    1.085   .     S
C276   C296    1.496   .     S
C276   C287    1.407   .     A
C277   C367    1.341   .     S
C277   H416    1.086   .     S
C278   C455    1.341   1_455 S
C278   F492    1.361   1_455 S
C279   H336    1.084   .     S
C279   C288    1.399   .     A
C279   C286    1.398   .     A
C280   C283    1.450   .     S
C280   C548    1.336   .     S
C280   H600    1.088   .     S
C281   C282    1.430   .     S
C282   O345    1.278   .     A
C282   O351    1.277   .     A
C283   O352    1.271   .     A
C283   O346    1.267   .     A
C284   C287    1.453   .     S
C284   O343    1.271   .     A
C284   O341    1.274   .     A
C285   O342    1.281   .     A
C285   C286    1.469   .     S
C285   O344    1.285   .     A
C286   C290    1.393   .     A
C288   C303    1.481   .     S
C288   C309    1.419   .     A
C289   C291    1.405   .     A
C289   C1096   1.404   1_554 S
C290   H337    1.076   .     S
C290   C301    1.406   .     A
C291   H317    1.083   .     S
C291   C1182   1.398   1_554 S
C292   C293    1.398   .     A
C292   H318    1.082   .     S
C292   C1270   1.398   1_455 S
C293   H319    1.082   .     S
C293   C472    1.398   1_455 S
C294   C295    1.399   .     A
C294   C382    1.398   .     S
C295   H321    1.083   .     S
C295   C1090   1.404   .     S
C296   C297    1.406   .     A
C296   C302    1.408   .     A
C297   H322    1.081   .     S
C297   C298    1.397   .     A
C298   H323    1.082   .     S
C298   C299    1.396   .     A
C299   H324    1.082   .     S
C299   C300    1.397   .     A
C300   H325    1.081   .     S
C300   C302    1.399   .     A
C301   C309    1.424   .     A
C301   C310    1.427   .     A
C302   H326    1.082   .     S
C303   C1105   1.405   .     S
C303   C486    1.405   1_455 S
C304   C305    1.397   .     A
C304   H328    1.083   .     S
C304   C1104   1.405   1_554 S
C305   H329    1.082   .     S
C305   C484    1.397   1_455 S
C306   H330    1.081   .     S
C306   C394    1.397   .     S
C306   C1108   1.398   1_554 S
C307   C308    1.399   .     A
C307   H331    1.082   .     S
C307   C1107   1.398   .     S
C308   H332    1.083   .     S
C308   C392    1.405   .     S
C309   C1114   1.400   .     S
C310   C1112   1.419   .     S
C311   C312    1.408   .     A
C311   C1111   1.419   1_554 S
C312   H338    1.079   .     S
C312   C313    1.385   .     A
C313   H316    1.082   .     S
C313   C1110   1.400   1_554 S
F314   C367    1.361   .     S
F315   C548    1.361   .     S
H320   C561    1.082   .     S
H327   C455    1.086   1_455 S
O340   Zn354   1.944   .     S
O340   Zn355   1.934   .     S
O340   Zn356   1.929   .     S
O340   Zn353   1.966   .     S
O341   Zn354   1.933   .     S
O342   Zn356   1.945   .     S
O343   Zn355   1.938   .     S
O344   Zn353   1.927   .     S
O345   Zn353   1.927   .     S
O346   Zn356   1.932   .     S
O347   Zn354   1.926   .     S
O348   Zn355   1.940   .     S
O349   Zn356   1.934   .     S
O350   Zn353   1.923   .     S
O351   Zn354   1.938   .     S
O352   Zn355   1.930   .     S
C357   C367    1.433   .     S
C357   O438    1.267   .     A
C357   O436    1.269   .     A
C358   H428    1.076   .     S
C358   C399    1.413   .     A
C358   C359    1.385   .     A
C359   H424    1.082   .     S
C359   C1162   1.399   .     S
C360   O437    1.287   .     A
C360   C366    1.455   .     S
C360   O439    1.276   .     A
C361   C362    1.424   .     A
C361   C363    1.415   .     A
C361   C1160   1.399   1_554 S
C362   C365    1.423   .     A
C362   C400    1.426   .     A
C363   C364    1.392   .     A
C363   C378    1.480   .     S
C364   C376    1.393   .     A
C364   H423    1.085   .     S
C365   C385    1.496   .     S
C365   C376    1.407   .     A
C366   C456    1.341   .     S
C366   H505    1.086   .     S
C368   H425    1.084   .     S
C368   C377    1.399   .     A
C368   C375    1.398   .     A
C369   C372    1.450   .     S
C369   C637    1.336   .     S
C369   H689    1.088   .     S
C370   C371    1.430   .     S
C371   O434    1.278   .     A
C371   O440    1.277   .     A
C372   O441    1.271   .     A
C372   O435    1.267   .     A
C373   C376    1.453   .     S
C373   O432    1.271   .     A
C373   O430    1.274   .     A
C374   O431    1.281   .     A
C374   C375    1.469   .     S
C374   O433    1.285   .     A
C375   C379    1.393   .     A
C377   C392    1.481   .     S
C377   C398    1.419   .     A
C378   C380    1.405   .     A
C378   C1185   1.404   1_554 S
C379   H426    1.076   .     S
C379   C390    1.406   .     A
C380   H406    1.083   .     S
C380   C1271   1.398   1_554 S
C381   C382    1.398   .     A
C381   H407    1.082   .     S
C381   C1092   1.398   .     S
C382   H408    1.082   .     S
C383   C384    1.399   .     A
C383   C471    1.398   .     S
C384   H410    1.083   .     S
C384   C1179   1.404   .     S
C385   C386    1.406   .     A
C385   C391    1.408   .     A
C386   H411    1.081   .     S
C386   C387    1.397   .     A
C387   H412    1.082   .     S
C387   C388    1.396   .     A
C388   H413    1.082   .     S
C388   C389    1.397   .     A
C389   H414    1.081   .     S
C389   C391    1.399   .     A
C390   C398    1.424   .     A
C390   C399    1.427   .     A
C391   H415    1.082   .     S
C392   C1194   1.405   .     S
C393   C394    1.397   .     A
C393   H417    1.083   .     S
C393   C1193   1.405   1_554 S
C394   H418    1.082   .     S
C395   H419    1.081   .     S
C395   C483    1.397   .     S
C395   C1197   1.398   1_554 S
C396   C397    1.399   .     A
C396   H420    1.082   .     S
C396   C1196   1.398   .     S
C397   H421    1.083   .     S
C397   C481    1.405   .     S
C398   C1203   1.400   .     S
C399   C1201   1.419   .     S
C400   C401    1.408   .     A
C400   C1200   1.419   1_554 S
C401   H427    1.079   .     S
C401   C402    1.385   .     A
C402   H405    1.082   .     S
C402   C1199   1.400   1_554 S
F403   C456    1.361   .     S
F404   C637    1.361   .     S
H409   C650    1.082   .     S
O429   Zn443   1.944   .     S
O429   Zn444   1.934   .     S
O429   Zn445   1.929   .     S
O429   Zn442   1.966   .     S
O430   Zn443   1.933   .     S
O431   Zn445   1.945   .     S
O432   Zn444   1.938   .     S
O433   Zn442   1.927   .     S
O434   Zn442   1.927   .     S
O435   Zn445   1.932   .     S
O436   Zn443   1.926   .     S
O437   Zn444   1.940   .     S
O438   Zn445   1.934   .     S
O439   Zn442   1.923   .     S
O440   Zn443   1.938   .     S
O441   Zn444   1.930   .     S
C446   C456    1.433   .     S
C446   O527    1.267   .     A
C446   O525    1.269   .     A
C447   H517    1.076   .     S
C447   C488    1.413   .     A
C447   C448    1.385   .     A
C448   H513    1.082   .     S
C448   C1251   1.399   .     S
C449   O526    1.287   .     A
C449   C455    1.455   .     S
C449   O528    1.276   .     A
C450   C451    1.424   .     A
C450   C452    1.415   .     A
C450   C1249   1.399   1_554 S
C451   C454    1.423   .     A
C451   C489    1.426   .     A
C452   C453    1.392   .     A
C452   C467    1.480   .     S
C453   C465    1.393   .     A
C453   H512    1.085   .     S
C454   C474    1.496   .     S
C454   C465    1.407   .     A
C455   C278    1.341   1_655 S
C455   H327    1.086   1_655 S
C457   H514    1.084   .     S
C457   C466    1.399   .     A
C457   C464    1.398   .     A
C458   C461    1.450   .     S
C458   C726    1.336   .     S
C458   H778    1.088   .     S
C459   C460    1.430   .     S
C460   O523    1.278   .     A
C460   O529    1.277   .     A
C461   O530    1.271   .     A
C461   O524    1.267   .     A
C462   C465    1.453   .     S
C462   O521    1.271   .     A
C462   O519    1.274   .     A
C463   O520    1.281   .     A
C463   C464    1.469   .     S
C463   O522    1.285   .     A
C464   C468    1.393   .     A
C466   C481    1.481   .     S
C466   C487    1.419   .     A
C467   C469    1.405   .     A
C467   C1274   1.404   1_554 S
C468   H515    1.076   .     S
C468   C479    1.406   .     A
C469   H495    1.083   .     S
C469   C1093   1.398   1_654 S
C470   C471    1.398   .     A
C470   H496    1.082   .     S
C470   C1181   1.398   .     S
C471   H497    1.082   .     S
C472   C473    1.399   .     A
C472   C293    1.398   1_655 S
C473   H499    1.083   .     S
C473   C1268   1.404   .     S
C474   C475    1.406   .     A
C474   C480    1.408   .     A
C475   H500    1.081   .     S
C475   C476    1.397   .     A
C476   H501    1.082   .     S
C476   C477    1.396   .     A
C477   H502    1.082   .     S
C477   C478    1.397   .     A
C478   H503    1.081   .     S
C478   C480    1.399   .     A
C479   C487    1.424   .     A
C479   C488    1.427   .     A
C480   H504    1.082   .     S
C481   C1283   1.405   .     S
C482   C483    1.397   .     A
C482   H506    1.083   .     S
C482   C1282   1.405   1_554 S
C483   H507    1.082   .     S
C484   H508    1.081   .     S
C484   C305    1.397   1_655 S
C484   C1286   1.398   1_554 S
C485   C486    1.399   .     A
C485   H509    1.082   .     S
C485   C1285   1.398   .     S
C486   H510    1.083   .     S
C486   C303    1.405   1_655 S
C487   C1292   1.400   .     S
C488   C1290   1.419   .     S
C489   C490    1.408   .     A
C489   C1289   1.419   1_554 S
C490   H516    1.079   .     S
C490   C491    1.385   .     A
C491   H494    1.082   .     S
C491   C1288   1.400   1_554 S
F492   C278    1.361   1_655 S
F493   C726    1.361   .     S
H498   C739    1.082   .     S
O518   Zn532   1.944   .     S
O518   Zn533   1.934   .     S
O518   Zn534   1.929   .     S
O518   Zn531   1.966   .     S
O519   Zn532   1.933   .     S
O520   Zn534   1.945   .     S
O521   Zn533   1.938   .     S
O522   Zn531   1.927   .     S
O523   Zn531   1.927   .     S
O524   Zn534   1.932   .     S
O525   Zn532   1.926   .     S
O526   Zn533   1.940   .     S
O527   Zn534   1.934   .     S
O528   Zn531   1.923   .     S
O529   Zn532   1.938   .     S
O530   Zn533   1.930   .     S
C535   C545    1.433   .     S
C535   O616    1.267   .     A
C535   O614    1.269   .     A
C536   H606    1.076   .     S
C536   C577    1.413   .     A
C536   C537    1.385   .     A
C537   H602    1.082   .     S
C537   C1340   1.399   .     S
C538   O615    1.287   .     A
C538   C544    1.455   .     S
C538   O617    1.276   .     A
C539   C540    1.424   .     A
C539   C541    1.415   .     A
C539   C1338   1.399   1_554 S
C540   C543    1.423   .     A
C540   C578    1.426   .     A
C541   C542    1.392   .     A
C541   C556    1.480   .     S
C542   C554    1.393   .     A
C542   H601    1.085   .     S
C543   C563    1.496   .     S
C543   C554    1.407   .     A
C544   C634    1.341   .     S
C544   H683    1.086   .     S
C545   C722    1.341   1_455 S
C545   F759    1.361   1_455 S
C546   H603    1.084   .     S
C546   C555    1.399   .     A
C546   C553    1.398   .     A
C547   C550    1.450   .     S
C547   C14     1.336   1_565 S
C547   H66     1.088   1_565 S
C548   C549    1.430   .     S
C549   O612    1.278   .     A
C549   O618    1.277   .     A
C550   O619    1.271   .     A
C550   O613    1.267   .     A
C551   C554    1.453   .     S
C551   O610    1.271   .     A
C551   O608    1.274   .     A
C552   O609    1.281   .     A
C552   C553    1.469   .     S
C552   O611    1.285   .     A
C553   C557    1.393   .     A
C555   C570    1.481   .     S
C555   C576    1.419   .     A
C556   C558    1.405   .     A
C556   C1363   1.404   1_554 S
C557   H604    1.076   .     S
C557   C568    1.406   .     A
C558   H584    1.083   .     S
C558   C1449   1.398   1_554 S
C559   C560    1.398   .     A
C559   H585    1.082   .     S
C559   C1537   1.398   1_455 S
C560   H586    1.082   .     S
C560   C739    1.398   1_455 S
C561   C562    1.399   .     A
C561   C649    1.398   .     S
C562   H588    1.083   .     S
C562   C1357   1.404   .     S
C563   C564    1.406   .     A
C563   C569    1.408   .     A
C564   H589    1.081   .     S
C564   C565    1.397   .     A
C565   H590    1.082   .     S
C565   C566    1.396   .     A
C566   H591    1.082   .     S
C566   C567    1.397   .     A
C567   H592    1.081   .     S
C567   C569    1.399   .     A
C568   C576    1.424   .     A
C568   C577    1.427   .     A
C569   H593    1.082   .     S
C570   C1372   1.405   .     S
C570   C753    1.405   1_455 S
C571   C572    1.397   .     A
C571   H595    1.083   .     S
C571   C1371   1.405   1_554 S
C572   H596    1.082   .     S
C572   C751    1.397   1_455 S
C573   H597    1.081   .     S
C573   C661    1.397   .     S
C573   C1375   1.398   1_554 S
C574   C575    1.399   .     A
C574   H598    1.082   .     S
C574   C1374   1.398   .     S
C575   H599    1.083   .     S
C575   C659    1.405   .     S
C576   C1381   1.400   .     S
C577   C1379   1.419   .     S
C578   C579    1.408   .     A
C578   C1378   1.419   1_554 S
C579   H605    1.079   .     S
C579   C580    1.385   .     A
C580   H583    1.082   .     S
C580   C1377   1.400   1_554 S
F581   C634    1.361   .     S
F582   C14     1.361   1_565 S
H587   C27     1.082   1_565 S
H594   C722    1.086   1_455 S
O607   Zn621   1.944   .     S
O607   Zn622   1.934   .     S
O607   Zn623   1.929   .     S
O607   Zn620   1.966   .     S
O608   Zn621   1.933   .     S
O609   Zn623   1.945   .     S
O610   Zn622   1.938   .     S
O611   Zn620   1.927   .     S
O612   Zn620   1.927   .     S
O613   Zn623   1.932   .     S
O614   Zn621   1.926   .     S
O615   Zn622   1.940   .     S
O616   Zn623   1.934   .     S
O617   Zn620   1.923   .     S
O618   Zn621   1.938   .     S
O619   Zn622   1.930   .     S
C624   C634    1.433   .     S
C624   O705    1.267   .     A
C624   O703    1.269   .     A
C625   H695    1.076   .     S
C625   C666    1.413   .     A
C625   C626    1.385   .     A
C626   H691    1.082   .     S
C626   C1429   1.399   .     S
C627   O704    1.287   .     A
C627   C633    1.455   .     S
C627   O706    1.276   .     A
C628   C629    1.424   .     A
C628   C630    1.415   .     A
C628   C1427   1.399   1_554 S
C629   C632    1.423   .     A
C629   C667    1.426   .     A
C630   C631    1.392   .     A
C630   C645    1.480   .     S
C631   C643    1.393   .     A
C631   H690    1.085   .     S
C632   C652    1.496   .     S
C632   C643    1.407   .     A
C633   C723    1.341   .     S
C633   H772    1.086   .     S
C635   H692    1.084   .     S
C635   C644    1.399   .     A
C635   C642    1.398   .     A
C636   C639    1.450   .     S
C636   C103    1.336   1_565 S
C636   H155    1.088   1_565 S
C637   C638    1.430   .     S
C638   O701    1.278   .     A
C638   O707    1.277   .     A
C639   O708    1.271   .     A
C639   O702    1.267   .     A
C640   C643    1.453   .     S
C640   O699    1.271   .     A
C640   O697    1.274   .     A
C641   O698    1.281   .     A
C641   C642    1.469   .     S
C641   O700    1.285   .     A
C642   C646    1.393   .     A
C644   C659    1.481   .     S
C644   C665    1.419   .     A
C645   C647    1.405   .     A
C645   C1452   1.404   1_554 S
C646   H693    1.076   .     S
C646   C657    1.406   .     A
C647   H673    1.083   .     S
C647   C1538   1.398   1_554 S
C648   C649    1.398   .     A
C648   H674    1.082   .     S
C648   C1359   1.398   .     S
C649   H675    1.082   .     S
C650   C651    1.399   .     A
C650   C738    1.398   .     S
C651   H677    1.083   .     S
C651   C1446   1.404   .     S
C652   C653    1.406   .     A
C652   C658    1.408   .     A
C653   H678    1.081   .     S
C653   C654    1.397   .     A
C654   H679    1.082   .     S
C654   C655    1.396   .     A
C655   H680    1.082   .     S
C655   C656    1.397   .     A
C656   H681    1.081   .     S
C656   C658    1.399   .     A
C657   C665    1.424   .     A
C657   C666    1.427   .     A
C658   H682    1.082   .     S
C659   C1461   1.405   .     S
C660   C661    1.397   .     A
C660   H684    1.083   .     S
C660   C1460   1.405   1_554 S
C661   H685    1.082   .     S
C662   H686    1.081   .     S
C662   C750    1.397   .     S
C662   C1464   1.398   1_554 S
C663   C664    1.399   .     A
C663   H687    1.082   .     S
C663   C1463   1.398   .     S
C664   H688    1.083   .     S
C664   C748    1.405   .     S
C665   C1470   1.400   .     S
C666   C1468   1.419   .     S
C667   C668    1.408   .     A
C667   C1467   1.419   1_554 S
C668   H694    1.079   .     S
C668   C669    1.385   .     A
C669   H672    1.082   .     S
C669   C1466   1.400   1_554 S
F670   C723    1.361   .     S
F671   C103    1.361   1_565 S
H676   C116    1.082   1_565 S
O696   Zn710   1.944   .     S
O696   Zn711   1.934   .     S
O696   Zn712   1.929   .     S
O696   Zn709   1.966   .     S
O697   Zn710   1.933   .     S
O698   Zn712   1.945   .     S
O699   Zn711   1.938   .     S
O700   Zn709   1.927   .     S
O701   Zn709   1.927   .     S
O702   Zn712   1.932   .     S
O703   Zn710   1.926   .     S
O704   Zn711   1.940   .     S
O705   Zn712   1.934   .     S
O706   Zn709   1.923   .     S
O707   Zn710   1.938   .     S
O708   Zn711   1.930   .     S
C713   C723    1.433   .     S
C713   O794    1.267   .     A
C713   O792    1.269   .     A
C714   H784    1.076   .     S
C714   C755    1.413   .     A
C714   C715    1.385   .     A
C715   H780    1.082   .     S
C715   C1518   1.399   .     S
C716   O793    1.287   .     A
C716   C722    1.455   .     S
C716   O795    1.276   .     A
C717   C718    1.424   .     A
C717   C719    1.415   .     A
C717   C1516   1.399   1_554 S
C718   C721    1.423   .     A
C718   C756    1.426   .     A
C719   C720    1.392   .     A
C719   C734    1.480   .     S
C720   C732    1.393   .     A
C720   H779    1.085   .     S
C721   C741    1.496   .     S
C721   C732    1.407   .     A
C722   C545    1.341   1_655 S
C722   H594    1.086   1_655 S
C724   H781    1.084   .     S
C724   C733    1.399   .     A
C724   C731    1.398   .     A
C725   C728    1.450   .     S
C725   C192    1.336   1_565 S
C725   H244    1.088   1_565 S
C726   C727    1.430   .     S
C727   O790    1.278   .     A
C727   O796    1.277   .     A
C728   O797    1.271   .     A
C728   O791    1.267   .     A
C729   C732    1.453   .     S
C729   O788    1.271   .     A
C729   O786    1.274   .     A
C730   O787    1.281   .     A
C730   C731    1.469   .     S
C730   O789    1.285   .     A
C731   C735    1.393   .     A
C733   C748    1.481   .     S
C733   C754    1.419   .     A
C734   C736    1.405   .     A
C734   C1541   1.404   1_554 S
C735   H782    1.076   .     S
C735   C746    1.406   .     A
C736   H762    1.083   .     S
C736   C1360   1.398   1_654 S
C737   C738    1.398   .     A
C737   H763    1.082   .     S
C737   C1448   1.398   .     S
C738   H764    1.082   .     S
C739   C740    1.399   .     A
C739   C560    1.398   1_655 S
C740   H766    1.083   .     S
C740   C1535   1.404   .     S
C741   C742    1.406   .     A
C741   C747    1.408   .     A
C742   H767    1.081   .     S
C742   C743    1.397   .     A
C743   H768    1.082   .     S
C743   C744    1.396   .     A
C744   H769    1.082   .     S
C744   C745    1.397   .     A
C745   H770    1.081   .     S
C745   C747    1.399   .     A
C746   C754    1.424   .     A
C746   C755    1.427   .     A
C747   H771    1.082   .     S
C748   C1550   1.405   .     S
C749   C750    1.397   .     A
C749   H773    1.083   .     S
C749   C1549   1.405   1_554 S
C750   H774    1.082   .     S
C751   H775    1.081   .     S
C751   C572    1.397   1_655 S
C751   C1553   1.398   1_554 S
C752   C753    1.399   .     A
C752   H776    1.082   .     S
C752   C1552   1.398   .     S
C753   H777    1.083   .     S
C753   C570    1.405   1_655 S
C754   C1559   1.400   .     S
C755   C1557   1.419   .     S
C756   C757    1.408   .     A
C756   C1556   1.419   1_554 S
C757   H783    1.079   .     S
C757   C758    1.385   .     A
C758   H761    1.082   .     S
C758   C1555   1.400   1_554 S
F759   C545    1.361   1_655 S
F760   C192    1.361   1_565 S
H765   C205    1.082   1_565 S
O785   Zn799   1.944   .     S
O785   Zn800   1.934   .     S
O785   Zn801   1.929   .     S
O785   Zn798   1.966   .     S
O786   Zn799   1.933   .     S
O787   Zn801   1.945   .     S
O788   Zn800   1.938   .     S
O789   Zn798   1.927   .     S
O790   Zn798   1.927   .     S
O791   Zn801   1.932   .     S
O792   Zn799   1.926   .     S
O793   Zn800   1.940   .     S
O794   Zn801   1.934   .     S
O795   Zn798   1.923   .     S
O796   Zn799   1.938   .     S
O797   Zn800   1.930   .     S
C802   C812    1.433   .     S
C802   O883    1.267   .     A
C802   O881    1.269   .     A
C803   H873    1.076   .     S
C803   C844    1.413   .     A
C803   C804    1.385   .     A
C804   H869    1.082   .     S
C804   C5      1.399   1_556 S
C805   O882    1.287   .     A
C805   C811    1.455   .     S
C805   O884    1.276   .     A
C806   C807    1.424   .     A
C806   C808    1.415   .     A
C807   C810    1.423   .     A
C807   C845    1.426   .     A
C808   C809    1.392   .     A
C808   C823    1.480   .     S
C809   C821    1.393   .     A
C809   H868    1.085   .     S
C810   C830    1.496   .     S
C810   C821    1.407   .     A
C811   C901    1.341   .     S
C811   H950    1.086   .     S
C812   C989    1.341   1_455 S
C812   F1026   1.361   1_455 S
C813   H870    1.084   .     S
C813   C822    1.399   .     A
C813   C820    1.398   .     A
C814   C817    1.450   .     S
C814   C1082   1.336   .     S
C814   H1134   1.088   .     S
C815   C816    1.430   .     S
C815   C1348   1.336   1_545 S
C815   F1383   1.361   1_545 S
C816   O879    1.278   .     A
C816   O885    1.277   .     A
C817   O886    1.271   .     A
C817   O880    1.267   .     A
C818   C821    1.453   .     S
C818   O877    1.271   .     A
C818   O875    1.274   .     A
C819   O876    1.281   .     A
C819   C820    1.469   .     S
C819   O878    1.285   .     A
C820   C824    1.393   .     A
C822   C837    1.481   .     S
C822   C843    1.419   .     A
C823   C825    1.405   .     A
C824   H871    1.076   .     S
C824   C835    1.406   .     A
C825   H851    1.083   .     S
C826   C827    1.398   .     A
C826   H852    1.082   .     S
C826   C202    1.398   1_456 S
C827   H853    1.082   .     S
C827   C1006   1.398   1_455 S
C828   C829    1.399   .     A
C828   C916    1.398   .     S
C828   H1388   1.082   1_545 S
C829   H855    1.083   .     S
C829   C22     1.404   1_556 S
C830   C831    1.406   .     A
C830   C836    1.408   .     A
C831   H856    1.081   .     S
C831   C832    1.397   .     A
C832   H857    1.082   .     S
C832   C833    1.396   .     A
C833   H858    1.082   .     S
C833   C834    1.397   .     A
C834   H859    1.081   .     S
C834   C836    1.399   .     A
C835   C843    1.424   .     A
C835   C844    1.427   .     A
C836   H860    1.082   .     S
C837   C37     1.405   1_556 S
C837   C1020   1.405   1_455 S
C838   C839    1.397   .     A
C838   H862    1.083   .     S
C839   H863    1.082   .     S
C839   C1018   1.397   1_455 S
C840   H864    1.081   .     S
C840   C928    1.397   .     S
C841   C842    1.399   .     A
C841   H865    1.082   .     S
C841   C39     1.398   1_556 S
C842   H866    1.083   .     S
C842   C926    1.405   .     S
C843   C46     1.400   1_556 S
C844   C44     1.419   1_556 S
C845   C846    1.408   .     A
C846   H872    1.079   .     S
C846   C847    1.385   .     A
C847   H850    1.082   .     S
F848   C901    1.361   .     S
F849   C1082   1.361   .     S
H854   C1095   1.082   .     S
H861   C989    1.086   1_455 S
H867   C1348   1.088   1_545 S
O874   Zn888   1.944   .     S
O874   Zn889   1.934   .     S
O874   Zn890   1.929   .     S
O874   Zn887   1.966   .     S
O875   Zn888   1.933   .     S
O876   Zn890   1.945   .     S
O877   Zn889   1.938   .     S
O878   Zn887   1.927   .     S
O879   Zn887   1.927   .     S
O880   Zn890   1.932   .     S
O881   Zn888   1.926   .     S
O882   Zn889   1.940   .     S
O883   Zn890   1.934   .     S
O884   Zn887   1.923   .     S
O885   Zn888   1.938   .     S
O886   Zn889   1.930   .     S
C891   C901    1.433   .     S
C891   O972    1.267   .     A
C891   O970    1.269   .     A
C892   H962    1.076   .     S
C892   C933    1.413   .     A
C892   C893    1.385   .     A
C893   H958    1.082   .     S
C893   C94     1.399   1_556 S
C894   O971    1.287   .     A
C894   C900    1.455   .     S
C894   O973    1.276   .     A
C895   C896    1.424   .     A
C895   C897    1.415   .     A
C896   C899    1.423   .     A
C896   C934    1.426   .     A
C897   C898    1.392   .     A
C897   C912    1.480   .     S
C898   C910    1.393   .     A
C898   H957    1.085   .     S
C899   C919    1.496   .     S
C899   C910    1.407   .     A
C900   C990    1.341   .     S
C900   H1039   1.086   .     S
C902   H959    1.084   .     S
C902   C911    1.399   .     A
C902   C909    1.398   .     A
C903   C906    1.450   .     S
C903   C1171   1.336   .     S
C903   H1223   1.088   .     S
C904   C905    1.430   .     S
C904   C1437   1.336   1_545 S
C904   F1472   1.361   1_545 S
C905   O968    1.278   .     A
C905   O974    1.277   .     A
C906   O975    1.271   .     A
C906   O969    1.267   .     A
C907   C910    1.453   .     S
C907   O966    1.271   .     A
C907   O964    1.274   .     A
C908   O965    1.281   .     A
C908   C909    1.469   .     S
C908   O967    1.285   .     A
C909   C913    1.393   .     A
C911   C926    1.481   .     S
C911   C932    1.419   .     A
C912   C914    1.405   .     A
C913   H960    1.076   .     S
C913   C924    1.406   .     A
C914   H940    1.083   .     S
C915   C916    1.398   .     A
C915   H941    1.082   .     S
C915   C24     1.398   1_556 S
C916   H942    1.082   .     S
C917   C918    1.399   .     A
C917   C1005   1.398   .     S
C917   H1477   1.082   1_545 S
C918   H944    1.083   .     S
C918   C111    1.404   1_556 S
C919   C920    1.406   .     A
C919   C925    1.408   .     A
C920   H945    1.081   .     S
C920   C921    1.397   .     A
C921   H946    1.082   .     S
C921   C922    1.396   .     A
C922   H947    1.082   .     S
C922   C923    1.397   .     A
C923   H948    1.081   .     S
C923   C925    1.399   .     A
C924   C932    1.424   .     A
C924   C933    1.427   .     A
C925   H949    1.082   .     S
C926   C126    1.405   1_556 S
C927   C928    1.397   .     A
C927   H951    1.083   .     S
C928   H952    1.082   .     S
C929   H953    1.081   .     S
C929   C1017   1.397   .     S
C930   C931    1.399   .     A
C930   H954    1.082   .     S
C930   C128    1.398   1_556 S
C931   H955    1.083   .     S
C931   C1015   1.405   .     S
C932   C135    1.400   1_556 S
C933   C133    1.419   1_556 S
C934   C935    1.408   .     A
C935   H961    1.079   .     S
C935   C936    1.385   .     A
C936   H939    1.082   .     S
F937   C990    1.361   .     S
F938   C1171   1.361   .     S
H943   C1184   1.082   .     S
H956   C1437   1.088   1_545 S
O963   Zn977   1.944   .     S
O963   Zn978   1.934   .     S
O963   Zn979   1.929   .     S
O963   Zn976   1.966   .     S
O964   Zn977   1.933   .     S
O965   Zn979   1.945   .     S
O966   Zn978   1.938   .     S
O967   Zn976   1.927   .     S
O968   Zn976   1.927   .     S
O969   Zn979   1.932   .     S
O970   Zn977   1.926   .     S
O971   Zn978   1.940   .     S
O972   Zn979   1.934   .     S
O973   Zn976   1.923   .     S
O974   Zn977   1.938   .     S
O975   Zn978   1.930   .     S
C980   C990    1.433   .     S
C980   O1061   1.267   .     A
C980   O1059   1.269   .     A
C981   H1051   1.076   .     S
C981   C1022   1.413   .     A
C981   C982    1.385   .     A
C982   H1047   1.082   .     S
C982   C183    1.399   1_556 S
C983   O1060   1.287   .     A
C983   C989    1.455   .     S
C983   O1062   1.276   .     A
C984   C985    1.424   .     A
C984   C986    1.415   .     A
C985   C988    1.423   .     A
C985   C1023   1.426   .     A
C986   C987    1.392   .     A
C986   C1001   1.480   .     S
C987   C999    1.393   .     A
C987   H1046   1.085   .     S
C988   C1008   1.496   .     S
C988   C999    1.407   .     A
C989   C812    1.341   1_655 S
C989   H861    1.086   1_655 S
C991   H1048   1.084   .     S
C991   C1000   1.399   .     A
C991   C998    1.398   .     A
C992   C995    1.450   .     S
C992   C1260   1.336   .     S
C992   H1312   1.088   .     S
C993   C994    1.430   .     S
C993   C1526   1.336   1_545 S
C993   F1561   1.361   1_545 S
C994   O1057   1.278   .     A
C994   O1063   1.277   .     A
C995   O1064   1.271   .     A
C995   O1058   1.267   .     A
C996   C999    1.453   .     S
C996   O1055   1.271   .     A
C996   O1053   1.274   .     A
C997   O1054   1.281   .     A
C997   C998    1.469   .     S
C997   O1056   1.285   .     A
C998   C1002   1.393   .     A
C1000  C1015   1.481   .     S
C1000  C1021   1.419   .     A
C1001  C1003   1.405   .     A
C1002  H1049   1.076   .     S
C1002  C1013   1.406   .     A
C1003  H1029   1.083   .     S
C1003  C25     1.398   1_655 S
C1004  C1005   1.398   .     A
C1004  H1030   1.082   .     S
C1004  C113    1.398   1_556 S
C1005  H1031   1.082   .     S
C1006  C1007   1.399   .     A
C1006  C827    1.398   1_655 S
C1006  H1566   1.082   1_545 S
C1007  H1033   1.083   .     S
C1007  C200    1.404   1_556 S
C1008  C1009   1.406   .     A
C1008  C1014   1.408   .     A
C1009  H1034   1.081   .     S
C1009  C1010   1.397   .     A
C1010  H1035   1.082   .     S
C1010  C1011   1.396   .     A
C1011  H1036   1.082   .     S
C1011  C1012   1.397   .     A
C1012  H1037   1.081   .     S
C1012  C1014   1.399   .     A
C1013  C1021   1.424   .     A
C1013  C1022   1.427   .     A
C1014  H1038   1.082   .     S
C1015  C215    1.405   1_556 S
C1016  C1017   1.397   .     A
C1016  H1040   1.083   .     S
C1017  H1041   1.082   .     S
C1018  H1042   1.081   .     S
C1018  C839    1.397   1_655 S
C1019  C1020   1.399   .     A
C1019  H1043   1.082   .     S
C1019  C217    1.398   1_556 S
C1020  H1044   1.083   .     S
C1020  C837    1.405   1_655 S
C1021  C224    1.400   1_556 S
C1022  C222    1.419   1_556 S
C1023  C1024   1.408   .     A
C1024  H1050   1.079   .     S
C1024  C1025   1.385   .     A
C1025  H1028   1.082   .     S
F1026  C812    1.361   1_655 S
F1027  C1260   1.361   .     S
H1032  C1273   1.082   .     S
H1045  C1526   1.088   1_545 S
O1052  Zn1066  1.944   .     S
O1052  Zn1067  1.934   .     S
O1052  Zn1068  1.929   .     S
O1052  Zn1065  1.966   .     S
O1053  Zn1066  1.933   .     S
O1054  Zn1068  1.945   .     S
O1055  Zn1067  1.938   .     S
O1056  Zn1065  1.927   .     S
O1057  Zn1065  1.927   .     S
O1058  Zn1068  1.932   .     S
O1059  Zn1066  1.926   .     S
O1060  Zn1067  1.940   .     S
O1061  Zn1068  1.934   .     S
O1062  Zn1065  1.923   .     S
O1063  Zn1066  1.938   .     S
O1064  Zn1067  1.930   .     S
C1069  C1079   1.433   .     S
C1069  O1150   1.267   .     A
C1069  O1148   1.269   .     A
C1070  H1140   1.076   .     S
C1070  C1111   1.413   .     A
C1070  C1071   1.385   .     A
C1071  H1136   1.082   .     S
C1071  C272    1.399   1_556 S
C1072  O1149   1.287   .     A
C1072  C1078   1.455   .     S
C1072  O1151   1.276   .     A
C1073  C1074   1.424   .     A
C1073  C1075   1.415   .     A
C1074  C1077   1.423   .     A
C1074  C1112   1.426   .     A
C1075  C1076   1.392   .     A
C1075  C1090   1.480   .     S
C1076  C1088   1.393   .     A
C1076  H1135   1.085   .     S
C1077  C1097   1.496   .     S
C1077  C1088   1.407   .     A
C1078  C1168   1.341   .     S
C1078  H1217   1.086   .     S
C1079  C1256   1.341   1_455 S
C1079  F1293   1.361   1_455 S
C1080  H1137   1.084   .     S
C1080  C1089   1.399   .     A
C1080  C1087   1.398   .     A
C1081  C1084   1.450   .     S
C1081  C1349   1.336   .     S
C1081  H1401   1.088   .     S
C1082  C1083   1.430   .     S
C1083  O1146   1.278   .     A
C1083  O1152   1.277   .     A
C1084  O1153   1.271   .     A
C1084  O1147   1.267   .     A
C1085  C1088   1.453   .     S
C1085  O1144   1.271   .     A
C1085  O1142   1.274   .     A
C1086  O1143   1.281   .     A
C1086  C1087   1.469   .     S
C1086  O1145   1.285   .     A
C1087  C1091   1.393   .     A
C1089  C1104   1.481   .     S
C1089  C1110   1.419   .     A
C1090  C1092   1.405   .     A
C1091  H1138   1.076   .     S
C1091  C1102   1.406   .     A
C1092  H1118   1.083   .     S
C1093  C1094   1.398   .     A
C1093  H1119   1.082   .     S
C1093  C469    1.398   1_456 S
C1094  H1120   1.082   .     S
C1094  C1273   1.398   1_455 S
C1095  C1096   1.399   .     A
C1095  C1183   1.398   .     S
C1096  H1122   1.083   .     S
C1096  C289    1.404   1_556 S
C1097  C1098   1.406   .     A
C1097  C1103   1.408   .     A
C1098  H1123   1.081   .     S
C1098  C1099   1.397   .     A
C1099  H1124   1.082   .     S
C1099  C1100   1.396   .     A
C1100  H1125   1.082   .     S
C1100  C1101   1.397   .     A
C1101  H1126   1.081   .     S
C1101  C1103   1.399   .     A
C1102  C1110   1.424   .     A
C1102  C1111   1.427   .     A
C1103  H1127   1.082   .     S
C1104  C304    1.405   1_556 S
C1104  C1287   1.405   1_455 S
C1105  C1106   1.397   .     A
C1105  H1129   1.083   .     S
C1106  H1130   1.082   .     S
C1106  C1285   1.397   1_455 S
C1107  H1131   1.081   .     S
C1107  C1195   1.397   .     S
C1108  C1109   1.399   .     A
C1108  H1132   1.082   .     S
C1108  C306    1.398   1_556 S
C1109  H1133   1.083   .     S
C1109  C1193   1.405   .     S
C1110  C313    1.400   1_556 S
C1111  C311    1.419   1_556 S
C1112  C1113   1.408   .     A
C1113  H1139   1.079   .     S
C1113  C1114   1.385   .     A
C1114  H1117   1.082   .     S
F1115  C1168   1.361   .     S
F1116  C1349   1.361   .     S
H1121  C1362   1.082   .     S
H1128  C1256   1.086   1_455 S
O1141  Zn1155  1.944   .     S
O1141  Zn1156  1.934   .     S
O1141  Zn1157  1.929   .     S
O1141  Zn1154  1.966   .     S
O1142  Zn1155  1.933   .     S
O1143  Zn1157  1.945   .     S
O1144  Zn1156  1.938   .     S
O1145  Zn1154  1.927   .     S
O1146  Zn1154  1.927   .     S
O1147  Zn1157  1.932   .     S
O1148  Zn1155  1.926   .     S
O1149  Zn1156  1.940   .     S
O1150  Zn1157  1.934   .     S
O1151  Zn1154  1.923   .     S
O1152  Zn1155  1.938   .     S
O1153  Zn1156  1.930   .     S
C1158  C1168   1.433   .     S
C1158  O1239   1.267   .     A
C1158  O1237   1.269   .     A
C1159  H1229   1.076   .     S
C1159  C1200   1.413   .     A
C1159  C1160   1.385   .     A
C1160  H1225   1.082   .     S
C1160  C361    1.399   1_556 S
C1161  O1238   1.287   .     A
C1161  C1167   1.455   .     S
C1161  O1240   1.276   .     A
C1162  C1163   1.424   .     A
C1162  C1164   1.415   .     A
C1163  C1166   1.423   .     A
C1163  C1201   1.426   .     A
C1164  C1165   1.392   .     A
C1164  C1179   1.480   .     S
C1165  C1177   1.393   .     A
C1165  H1224   1.085   .     S
C1166  C1186   1.496   .     S
C1166  C1177   1.407   .     A
C1167  C1257   1.341   .     S
C1167  H1306   1.086   .     S
C1169  H1226   1.084   .     S
C1169  C1178   1.399   .     A
C1169  C1176   1.398   .     A
C1170  C1173   1.450   .     S
C1170  C1438   1.336   .     S
C1170  H1490   1.088   .     S
C1171  C1172   1.430   .     S
C1172  O1235   1.278   .     A
C1172  O1241   1.277   .     A
C1173  O1242   1.271   .     A
C1173  O1236   1.267   .     A
C1174  C1177   1.453   .     S
C1174  O1233   1.271   .     A
C1174  O1231   1.274   .     A
C1175  O1232   1.281   .     A
C1175  C1176   1.469   .     S
C1175  O1234   1.285   .     A
C1176  C1180   1.393   .     A
C1178  C1193   1.481   .     S
C1178  C1199   1.419   .     A
C1179  C1181   1.405   .     A
C1180  H1227   1.076   .     S
C1180  C1191   1.406   .     A
C1181  H1207   1.083   .     S
C1182  C1183   1.398   .     A
C1182  H1208   1.082   .     S
C1182  C291    1.398   1_556 S
C1183  H1209   1.082   .     S
C1184  C1185   1.399   .     A
C1184  C1272   1.398   .     S
C1185  H1211   1.083   .     S
C1185  C378    1.404   1_556 S
C1186  C1187   1.406   .     A
C1186  C1192   1.408   .     A
C1187  H1212   1.081   .     S
C1187  C1188   1.397   .     A
C1188  H1213   1.082   .     S
C1188  C1189   1.396   .     A
C1189  H1214   1.082   .     S
C1189  C1190   1.397   .     A
C1190  H1215   1.081   .     S
C1190  C1192   1.399   .     A
C1191  C1199   1.424   .     A
C1191  C1200   1.427   .     A
C1192  H1216   1.082   .     S
C1193  C393    1.405   1_556 S
C1194  C1195   1.397   .     A
C1194  H1218   1.083   .     S
C1195  H1219   1.082   .     S
C1196  H1220   1.081   .     S
C1196  C1284   1.397   .     S
C1197  C1198   1.399   .     A
C1197  H1221   1.082   .     S
C1197  C395    1.398   1_556 S
C1198  H1222   1.083   .     S
C1198  C1282   1.405   .     S
C1199  C402    1.400   1_556 S
C1200  C400    1.419   1_556 S
C1201  C1202   1.408   .     A
C1202  H1228   1.079   .     S
C1202  C1203   1.385   .     A
C1203  H1206   1.082   .     S
F1204  C1257   1.361   .     S
F1205  C1438   1.361   .     S
H1210  C1451   1.082   .     S
O1230  Zn1244  1.944   .     S
O1230  Zn1245  1.934   .     S
O1230  Zn1246  1.929   .     S
O1230  Zn1243  1.966   .     S
O1231  Zn1244  1.933   .     S
O1232  Zn1246  1.945   .     S
O1233  Zn1245  1.938   .     S
O1234  Zn1243  1.927   .     S
O1235  Zn1243  1.927   .     S
O1236  Zn1246  1.932   .     S
O1237  Zn1244  1.926   .     S
O1238  Zn1245  1.940   .     S
O1239  Zn1246  1.934   .     S
O1240  Zn1243  1.923   .     S
O1241  Zn1244  1.938   .     S
O1242  Zn1245  1.930   .     S
C1247  C1257   1.433   .     S
C1247  O1328   1.267   .     A
C1247  O1326   1.269   .     A
C1248  H1318   1.076   .     S
C1248  C1289   1.413   .     A
C1248  C1249   1.385   .     A
C1249  H1314   1.082   .     S
C1249  C450    1.399   1_556 S
C1250  O1327   1.287   .     A
C1250  C1256   1.455   .     S
C1250  O1329   1.276   .     A
C1251  C1252   1.424   .     A
C1251  C1253   1.415   .     A
C1252  C1255   1.423   .     A
C1252  C1290   1.426   .     A
C1253  C1254   1.392   .     A
C1253  C1268   1.480   .     S
C1254  C1266   1.393   .     A
C1254  H1313   1.085   .     S
C1255  C1275   1.496   .     S
C1255  C1266   1.407   .     A
C1256  C1079   1.341   1_655 S
C1256  H1128   1.086   1_655 S
C1258  H1315   1.084   .     S
C1258  C1267   1.399   .     A
C1258  C1265   1.398   .     A
C1259  C1262   1.450   .     S
C1259  C1527   1.336   .     S
C1259  H1579   1.088   .     S
C1260  C1261   1.430   .     S
C1261  O1324   1.278   .     A
C1261  O1330   1.277   .     A
C1262  O1331   1.271   .     A
C1262  O1325   1.267   .     A
C1263  C1266   1.453   .     S
C1263  O1322   1.271   .     A
C1263  O1320   1.274   .     A
C1264  O1321   1.281   .     A
C1264  C1265   1.469   .     S
C1264  O1323   1.285   .     A
C1265  C1269   1.393   .     A
C1267  C1282   1.481   .     S
C1267  C1288   1.419   .     A
C1268  C1270   1.405   .     A
C1269  H1316   1.076   .     S
C1269  C1280   1.406   .     A
C1270  H1296   1.083   .     S
C1270  C292    1.398   1_655 S
C1271  C1272   1.398   .     A
C1271  H1297   1.082   .     S
C1271  C380    1.398   1_556 S
C1272  H1298   1.082   .     S
C1273  C1274   1.399   .     A
C1273  C1094   1.398   1_655 S
C1274  H1300   1.083   .     S
C1274  C467    1.404   1_556 S
C1275  C1276   1.406   .     A
C1275  C1281   1.408   .     A
C1276  H1301   1.081   .     S
C1276  C1277   1.397   .     A
C1277  H1302   1.082   .     S
C1277  C1278   1.396   .     A
C1278  H1303   1.082   .     S
C1278  C1279   1.397   .     A
C1279  H1304   1.081   .     S
C1279  C1281   1.399   .     A
C1280  C1288   1.424   .     A
C1280  C1289   1.427   .     A
C1281  H1305   1.082   .     S
C1282  C482    1.405   1_556 S
C1283  C1284   1.397   .     A
C1283  H1307   1.083   .     S
C1284  H1308   1.082   .     S
C1285  H1309   1.081   .     S
C1285  C1106   1.397   1_655 S
C1286  C1287   1.399   .     A
C1286  H1310   1.082   .     S
C1286  C484    1.398   1_556 S
C1287  H1311   1.083   .     S
C1287  C1104   1.405   1_655 S
C1288  C491    1.400   1_556 S
C1289  C489    1.419   1_556 S
C1290  C1291   1.408   .     A
C1291  H1317   1.079   .     S
C1291  C1292   1.385   .     A
C1292  H1295   1.082   .     S
F1293  C1079   1.361   1_655 S
F1294  C1527   1.361   .     S
H1299  C1540   1.082   .     S
O1319  Zn1333  1.944   .     S
O1319  Zn1334  1.934   .     S
O1319  Zn1335  1.929   .     S
O1319  Zn1332  1.966   .     S
O1320  Zn1333  1.933   .     S
O1321  Zn1335  1.945   .     S
O1322  Zn1334  1.938   .     S
O1323  Zn1332  1.927   .     S
O1324  Zn1332  1.927   .     S
O1325  Zn1335  1.932   .     S
O1326  Zn1333  1.926   .     S
O1327  Zn1334  1.940   .     S
O1328  Zn1335  1.934   .     S
O1329  Zn1332  1.923   .     S
O1330  Zn1333  1.938   .     S
O1331  Zn1334  1.930   .     S
C1336  C1346   1.433   .     S
C1336  O1417   1.267   .     A
C1336  O1415   1.269   .     A
C1337  H1407   1.076   .     S
C1337  C1378   1.413   .     A
C1337  C1338   1.385   .     A
C1338  H1403   1.082   .     S
C1338  C539    1.399   1_556 S
C1339  O1416   1.287   .     A
C1339  C1345   1.455   .     S
C1339  O1418   1.276   .     A
C1340  C1341   1.424   .     A
C1340  C1342   1.415   .     A
C1341  C1344   1.423   .     A
C1341  C1379   1.426   .     A
C1342  C1343   1.392   .     A
C1342  C1357   1.480   .     S
C1343  C1355   1.393   .     A
C1343  H1402   1.085   .     S
C1344  C1364   1.496   .     S
C1344  C1355   1.407   .     A
C1345  C1435   1.341   .     S
C1345  H1484   1.086   .     S
C1346  C1523   1.341   1_455 S
C1346  F1560   1.361   1_455 S
C1347  H1404   1.084   .     S
C1347  C1356   1.399   .     A
C1347  C1354   1.398   .     A
C1348  C1351   1.450   .     S
C1348  C815    1.336   1_565 S
C1348  H867    1.088   1_565 S
C1349  C1350   1.430   .     S
C1350  O1413   1.278   .     A
C1350  O1419   1.277   .     A
C1351  O1420   1.271   .     A
C1351  O1414   1.267   .     A
C1352  C1355   1.453   .     S
C1352  O1411   1.271   .     A
C1352  O1409   1.274   .     A
C1353  O1410   1.281   .     A
C1353  C1354   1.469   .     S
C1353  O1412   1.285   .     A
C1354  C1358   1.393   .     A
C1356  C1371   1.481   .     S
C1356  C1377   1.419   .     A
C1357  C1359   1.405   .     A
C1358  H1405   1.076   .     S
C1358  C1369   1.406   .     A
C1359  H1385   1.083   .     S
C1360  C1361   1.398   .     A
C1360  H1386   1.082   .     S
C1360  C736    1.398   1_456 S
C1361  H1387   1.082   .     S
C1361  C1540   1.398   1_455 S
C1362  C1363   1.399   .     A
C1362  C1450   1.398   .     S
C1363  H1389   1.083   .     S
C1363  C556    1.404   1_556 S
C1364  C1365   1.406   .     A
C1364  C1370   1.408   .     A
C1365  H1390   1.081   .     S
C1365  C1366   1.397   .     A
C1366  H1391   1.082   .     S
C1366  C1367   1.396   .     A
C1367  H1392   1.082   .     S
C1367  C1368   1.397   .     A
C1368  H1393   1.081   .     S
C1368  C1370   1.399   .     A
C1369  C1377   1.424   .     A
C1369  C1378   1.427   .     A
C1370  H1394   1.082   .     S
C1371  C571    1.405   1_556 S
C1371  C1554   1.405   1_455 S
C1372  C1373   1.397   .     A
C1372  H1396   1.083   .     S
C1373  H1397   1.082   .     S
C1373  C1552   1.397   1_455 S
C1374  H1398   1.081   .     S
C1374  C1462   1.397   .     S
C1375  C1376   1.399   .     A
C1375  H1399   1.082   .     S
C1375  C573    1.398   1_556 S
C1376  H1400   1.083   .     S
C1376  C1460   1.405   .     S
C1377  C580    1.400   1_556 S
C1378  C578    1.419   1_556 S
C1379  C1380   1.408   .     A
C1380  H1406   1.079   .     S
C1380  C1381   1.385   .     A
C1381  H1384   1.082   .     S
F1382  C1435   1.361   .     S
F1383  C815    1.361   1_565 S
H1388  C828    1.082   1_565 S
H1395  C1523   1.086   1_455 S
O1408  Zn1422  1.944   .     S
O1408  Zn1423  1.934   .     S
O1408  Zn1424  1.929   .     S
O1408  Zn1421  1.966   .     S
O1409  Zn1422  1.933   .     S
O1410  Zn1424  1.945   .     S
O1411  Zn1423  1.938   .     S
O1412  Zn1421  1.927   .     S
O1413  Zn1421  1.927   .     S
O1414  Zn1424  1.932   .     S
O1415  Zn1422  1.926   .     S
O1416  Zn1423  1.940   .     S
O1417  Zn1424  1.934   .     S
O1418  Zn1421  1.923   .     S
O1419  Zn1422  1.938   .     S
O1420  Zn1423  1.930   .     S
C1425  C1435   1.433   .     S
C1425  O1506   1.267   .     A
C1425  O1504   1.269   .     A
C1426  H1496   1.076   .     S
C1426  C1467   1.413   .     A
C1426  C1427   1.385   .     A
C1427  H1492   1.082   .     S
C1427  C628    1.399   1_556 S
C1428  O1505   1.287   .     A
C1428  C1434   1.455   .     S
C1428  O1507   1.276   .     A
C1429  C1430   1.424   .     A
C1429  C1431   1.415   .     A
C1430  C1433   1.423   .     A
C1430  C1468   1.426   .     A
C1431  C1432   1.392   .     A
C1431  C1446   1.480   .     S
C1432  C1444   1.393   .     A
C1432  H1491   1.085   .     S
C1433  C1453   1.496   .     S
C1433  C1444   1.407   .     A
C1434  C1524   1.341   .     S
C1434  H1573   1.086   .     S
C1436  H1493   1.084   .     S
C1436  C1445   1.399   .     A
C1436  C1443   1.398   .     A
C1437  C1440   1.450   .     S
C1437  C904    1.336   1_565 S
C1437  H956    1.088   1_565 S
C1438  C1439   1.430   .     S
C1439  O1502   1.278   .     A
C1439  O1508   1.277   .     A
C1440  O1509   1.271   .     A
C1440  O1503   1.267   .     A
C1441  C1444   1.453   .     S
C1441  O1500   1.271   .     A
C1441  O1498   1.274   .     A
C1442  O1499   1.281   .     A
C1442  C1443   1.469   .     S
C1442  O1501   1.285   .     A
C1443  C1447   1.393   .     A
C1445  C1460   1.481   .     S
C1445  C1466   1.419   .     A
C1446  C1448   1.405   .     A
C1447  H1494   1.076   .     S
C1447  C1458   1.406   .     A
C1448  H1474   1.083   .     S
C1449  C1450   1.398   .     A
C1449  H1475   1.082   .     S
C1449  C558    1.398   1_556 S
C1450  H1476   1.082   .     S
C1451  C1452   1.399   .     A
C1451  C1539   1.398   .     S
C1452  H1478   1.083   .     S
C1452  C645    1.404   1_556 S
C1453  C1454   1.406   .     A
C1453  C1459   1.408   .     A
C1454  H1479   1.081   .     S
C1454  C1455   1.397   .     A
C1455  H1480   1.082   .     S
C1455  C1456   1.396   .     A
C1456  H1481   1.082   .     S
C1456  C1457   1.397   .     A
C1457  H1482   1.081   .     S
C1457  C1459   1.399   .     A
C1458  C1466   1.424   .     A
C1458  C1467   1.427   .     A
C1459  H1483   1.082   .     S
C1460  C660    1.405   1_556 S
C1461  C1462   1.397   .     A
C1461  H1485   1.083   .     S
C1462  H1486   1.082   .     S
C1463  H1487   1.081   .     S
C1463  C1551   1.397   .     S
C1464  C1465   1.399   .     A
C1464  H1488   1.082   .     S
C1464  C662    1.398   1_556 S
C1465  H1489   1.083   .     S
C1465  C1549   1.405   .     S
C1466  C669    1.400   1_556 S
C1467  C667    1.419   1_556 S
C1468  C1469   1.408   .     A
C1469  H1495   1.079   .     S
C1469  C1470   1.385   .     A
C1470  H1473   1.082   .     S
F1471  C1524   1.361   .     S
F1472  C904    1.361   1_565 S
H1477  C917    1.082   1_565 S
O1497  Zn1511  1.944   .     S
O1497  Zn1512  1.934   .     S
O1497  Zn1513  1.929   .     S
O1497  Zn1510  1.966   .     S
O1498  Zn1511  1.933   .     S
O1499  Zn1513  1.945   .     S
O1500  Zn1512  1.938   .     S
O1501  Zn1510  1.927   .     S
O1502  Zn1510  1.927   .     S
O1503  Zn1513  1.932   .     S
O1504  Zn1511  1.926   .     S
O1505  Zn1512  1.940   .     S
O1506  Zn1513  1.934   .     S
O1507  Zn1510  1.923   .     S
O1508  Zn1511  1.938   .     S
O1509  Zn1512  1.930   .     S
C1514  C1524   1.433   .     S
C1514  O1595   1.267   .     A
C1514  O1593   1.269   .     A
C1515  H1585   1.076   .     S
C1515  C1556   1.413   .     A
C1515  C1516   1.385   .     A
C1516  H1581   1.082   .     S
C1516  C717    1.399   1_556 S
C1517  O1594   1.287   .     A
C1517  C1523   1.455   .     S
C1517  O1596   1.276   .     A
C1518  C1519   1.424   .     A
C1518  C1520   1.415   .     A
C1519  C1522   1.423   .     A
C1519  C1557   1.426   .     A
C1520  C1521   1.392   .     A
C1520  C1535   1.480   .     S
C1521  C1533   1.393   .     A
C1521  H1580   1.085   .     S
C1522  C1542   1.496   .     S
C1522  C1533   1.407   .     A
C1523  C1346   1.341   1_655 S
C1523  H1395   1.086   1_655 S
C1525  H1582   1.084   .     S
C1525  C1534   1.399   .     A
C1525  C1532   1.398   .     A
C1526  C1529   1.450   .     S
C1526  C993    1.336   1_565 S
C1526  H1045   1.088   1_565 S
C1527  C1528   1.430   .     S
C1528  O1591   1.278   .     A
C1528  O1597   1.277   .     A
C1529  O1598   1.271   .     A
C1529  O1592   1.267   .     A
C1530  C1533   1.453   .     S
C1530  O1589   1.271   .     A
C1530  O1587   1.274   .     A
C1531  O1588   1.281   .     A
C1531  C1532   1.469   .     S
C1531  O1590   1.285   .     A
C1532  C1536   1.393   .     A
C1534  C1549   1.481   .     S
C1534  C1555   1.419   .     A
C1535  C1537   1.405   .     A
C1536  H1583   1.076   .     S
C1536  C1547   1.406   .     A
C1537  H1563   1.083   .     S
C1537  C559    1.398   1_655 S
C1538  C1539   1.398   .     A
C1538  H1564   1.082   .     S
C1538  C647    1.398   1_556 S
C1539  H1565   1.082   .     S
C1540  C1541   1.399   .     A
C1540  C1361   1.398   1_655 S
C1541  H1567   1.083   .     S
C1541  C734    1.404   1_556 S
C1542  C1543   1.406   .     A
C1542  C1548   1.408   .     A
C1543  H1568   1.081   .     S
C1543  C1544   1.397   .     A
C1544  H1569   1.082   .     S
C1544  C1545   1.396   .     A
C1545  H1570   1.082   .     S
C1545  C1546   1.397   .     A
C1546  H1571   1.081   .     S
C1546  C1548   1.399   .     A
C1547  C1555   1.424   .     A
C1547  C1556   1.427   .     A
C1548  H1572   1.082   .     S
C1549  C749    1.405   1_556 S
C1550  C1551   1.397   .     A
C1550  H1574   1.083   .     S
C1551  H1575   1.082   .     S
C1552  H1576   1.081   .     S
C1552  C1373   1.397   1_655 S
C1553  C1554   1.399   .     A
C1553  H1577   1.082   .     S
C1553  C751    1.398   1_556 S
C1554  H1578   1.083   .     S
C1554  C1371   1.405   1_655 S
C1555  C758    1.400   1_556 S
C1556  C756    1.419   1_556 S
C1557  C1558   1.408   .     A
C1558  H1584   1.079   .     S
C1558  C1559   1.385   .     A
C1559  H1562   1.082   .     S
F1560  C1346   1.361   1_655 S
F1561  C993    1.361   1_565 S
H1566  C1006   1.082   1_565 S
O1586  Zn1600  1.944   .     S
O1586  Zn1601  1.934   .     S
O1586  Zn1602  1.929   .     S
O1586  Zn1599  1.966   .     S
O1587  Zn1600  1.933   .     S
O1588  Zn1602  1.945   .     S
O1589  Zn1601  1.938   .     S
O1590  Zn1599  1.927   .     S
O1591  Zn1599  1.927   .     S
O1592  Zn1602  1.932   .     S
O1593  Zn1600  1.926   .     S
O1594  Zn1601  1.940   .     S
O1595  Zn1602  1.934   .     S
O1596  Zn1599  1.923   .     S
O1597  Zn1600  1.938   .     S
O1598  Zn1601  1.930   .     S
