data_str_m2_o1_o10_pcu_sym.57
_audit_creation_date              2020-01-03
_audit_creation_method            'Materials Studio'
_symmetry_space_group_name_H-M    'P1'
_symmetry_Int_Tables_number       1
_symmetry_cell_setting            triclinic
loop_
_symmetry_equiv_pos_as_xyz
  x,y,z
_cell_length_a                    26.4000
_cell_length_b                    32.3542
_cell_length_c                    28.6616
_cell_angle_alpha                 89.6675
_cell_angle_beta                  97.2451
_cell_angle_gamma                 92.1468
loop_
_atom_site_label
_atom_site_type_symbol
_atom_site_fract_x
_atom_site_fract_y
_atom_site_fract_z
_atom_site_U_iso_or_equiv
_atom_site_adp_type
_atom_site_occupancy
Br1    Br    0.31838   0.13407   0.09095   0.00000  Uiso   1.00
Br2    Br    0.01496   0.19927   0.24238   0.00000  Uiso   1.00
Br3    Br    0.06948   0.04809   0.10642   0.00000  Uiso   1.00
Br4    Br    0.26385   0.28525   0.22691   0.00000  Uiso   1.00
Br5    Br    0.06943   0.27893   0.10715   0.00000  Uiso   1.00
Br6    Br    0.26390   0.05440   0.22619   0.00000  Uiso   1.00
Br7    Br    0.08807   0.10103   0.27140   0.00000  Uiso   1.00
Br8    Br    0.24527   0.23230   0.06193   0.00000  Uiso   1.00
C9     C     0.16631   0.08748   0.16670   0.00000  Uiso   1.00
C10    C     0.20714   0.02284   0.19274   0.00000  Uiso   1.00
C11    C     0.16695   0.29048   0.16652   0.00000  Uiso   1.00
C12    C     0.16639   0.04286   0.16681   0.00000  Uiso   1.00
C13    C     0.13474   0.14038   0.02165   0.00000  Uiso   1.00
C14    C     0.19859   0.19295   0.31168   0.00000  Uiso   1.00
C15    C     0.13460   0.14016   0.30563   0.00000  Uiso   1.00
C16    C     0.19874   0.19317   0.02770   0.00000  Uiso   1.00
C17    C     0.16702   0.24585   0.16664   0.00000  Uiso   1.00
C18    C     0.06816   0.16631   0.15496   0.00000  Uiso   1.00
C19    C     0.26517   0.16702   0.17838   0.00000  Uiso   1.00
C20    C     0.01349   0.16145   0.14911   0.00000  Uiso   1.00
C21    C     0.31984   0.17189   0.18422   0.00000  Uiso   1.00
C22    C     0.12601   0.02028   0.14064   0.00000  Uiso   1.00
C23    C     0.20733   0.31306   0.19269   0.00000  Uiso   1.00
C24    C     0.12620   0.31050   0.14059   0.00000  Uiso   1.00
Cu25   Cu    0.16667   0.16667   0.21355   0.00000  Uiso   1.00
Cu26   Cu    0.16667   0.16666   0.11978   0.00000  Uiso   1.00
H27    H     0.10925   0.11938   0.03782   0.00000  Uiso   1.00
H28    H     0.22408   0.21395   0.29551   0.00000  Uiso   1.00
N29    N     0.16668   0.16668   0.28403   0.00000  Uiso   1.00
N30    N     0.16665   0.16666   0.04931   0.00000  Uiso   1.00
O31    O     0.16666   0.10655   0.20625   0.00000  Uiso   1.00
O32    O     0.16667   0.22678   0.12709   0.00000  Uiso   1.00
O33    O     0.16666   0.10654   0.12706   0.00000  Uiso   1.00
O34    O     0.16667   0.22679   0.20628   0.00000  Uiso   1.00
O35    O     0.09161   0.16667   0.19712   0.00000  Uiso   1.00
O36    O     0.24172   0.16666   0.13621   0.00000  Uiso   1.00
O37    O     0.09161   0.16666   0.11793   0.00000  Uiso   1.00
O38    O     0.24172   0.16667   0.21540   0.00000  Uiso   1.00
Br39   Br    0.65171   0.13407   0.09095   0.00000  Uiso   1.00
Br40   Br    0.34829   0.19927   0.24238   0.00000  Uiso   1.00
Br41   Br    0.40281   0.04809   0.10642   0.00000  Uiso   1.00
Br42   Br    0.59719   0.28525   0.22691   0.00000  Uiso   1.00
Br43   Br    0.40276   0.27893   0.10715   0.00000  Uiso   1.00
Br44   Br    0.59724   0.05440   0.22619   0.00000  Uiso   1.00
Br45   Br    0.42140   0.10103   0.27140   0.00000  Uiso   1.00
Br46   Br    0.57860   0.23230   0.06193   0.00000  Uiso   1.00
C47    C     0.49965   0.08748   0.16670   0.00000  Uiso   1.00
C48    C     0.54047   0.02284   0.19274   0.00000  Uiso   1.00
C49    C     0.50028   0.29048   0.16652   0.00000  Uiso   1.00
C50    C     0.49972   0.04286   0.16681   0.00000  Uiso   1.00
C51    C     0.46807   0.14038   0.02165   0.00000  Uiso   1.00
C52    C     0.53193   0.19295   0.31168   0.00000  Uiso   1.00
C53    C     0.46793   0.14016   0.30563   0.00000  Uiso   1.00
C54    C     0.53207   0.19317   0.02770   0.00000  Uiso   1.00
C55    C     0.50035   0.24585   0.16664   0.00000  Uiso   1.00
C56    C     0.40149   0.16631   0.15496   0.00000  Uiso   1.00
C57    C     0.59851   0.16702   0.17838   0.00000  Uiso   1.00
C58    C     0.34683   0.16145   0.14911   0.00000  Uiso   1.00
C59    C     0.65317   0.17189   0.18422   0.00000  Uiso   1.00
C60    C     0.45934   0.02028   0.14064   0.00000  Uiso   1.00
C61    C     0.54066   0.31306   0.19269   0.00000  Uiso   1.00
C62    C     0.45953   0.31050   0.14059   0.00000  Uiso   1.00
Cu63   Cu    0.50000   0.16667   0.21355   0.00000  Uiso   1.00
Cu64   Cu    0.50000   0.16666   0.11978   0.00000  Uiso   1.00
H65    H     0.44259   0.11938   0.03782   0.00000  Uiso   1.00
H66    H     0.55741   0.21395   0.29551   0.00000  Uiso   1.00
N67    N     0.50001   0.16668   0.28403   0.00000  Uiso   1.00
N68    N     0.49999   0.16666   0.04931   0.00000  Uiso   1.00
O69    O     0.50000   0.10655   0.20625   0.00000  Uiso   1.00
O70    O     0.50000   0.22678   0.12709   0.00000  Uiso   1.00
O71    O     0.50000   0.10654   0.12706   0.00000  Uiso   1.00
O72    O     0.50000   0.22679   0.20628   0.00000  Uiso   1.00
O73    O     0.42495   0.16667   0.19712   0.00000  Uiso   1.00
O74    O     0.57505   0.16666   0.13621   0.00000  Uiso   1.00
O75    O     0.42494   0.16666   0.11793   0.00000  Uiso   1.00
O76    O     0.57506   0.16667   0.21540   0.00000  Uiso   1.00
Br77   Br    0.98504   0.13407   0.09095   0.00000  Uiso   1.00
Br78   Br    0.68162   0.19927   0.24238   0.00000  Uiso   1.00
Br79   Br    0.73615   0.04809   0.10642   0.00000  Uiso   1.00
Br80   Br    0.93052   0.28525   0.22691   0.00000  Uiso   1.00
Br81   Br    0.73610   0.27893   0.10715   0.00000  Uiso   1.00
Br82   Br    0.93057   0.05440   0.22619   0.00000  Uiso   1.00
Br83   Br    0.75473   0.10103   0.27140   0.00000  Uiso   1.00
Br84   Br    0.91193   0.23230   0.06193   0.00000  Uiso   1.00
C85    C     0.83298   0.08748   0.16670   0.00000  Uiso   1.00
C86    C     0.87380   0.02284   0.19274   0.00000  Uiso   1.00
C87    C     0.83361   0.29048   0.16652   0.00000  Uiso   1.00
C88    C     0.83305   0.04286   0.16681   0.00000  Uiso   1.00
C89    C     0.80141   0.14038   0.02165   0.00000  Uiso   1.00
C90    C     0.86526   0.19295   0.31168   0.00000  Uiso   1.00
C91    C     0.80126   0.14016   0.30563   0.00000  Uiso   1.00
C92    C     0.86540   0.19317   0.02770   0.00000  Uiso   1.00
C93    C     0.83369   0.24585   0.16664   0.00000  Uiso   1.00
C94    C     0.73483   0.16631   0.15496   0.00000  Uiso   1.00
C95    C     0.93184   0.16702   0.17838   0.00000  Uiso   1.00
C96    C     0.68016   0.16145   0.14911   0.00000  Uiso   1.00
C97    C     0.98651   0.17189   0.18422   0.00000  Uiso   1.00
C98    C     0.79267   0.02028   0.14064   0.00000  Uiso   1.00
C99    C     0.87399   0.31306   0.19269   0.00000  Uiso   1.00
C100   C     0.79286   0.31050   0.14059   0.00000  Uiso   1.00
Cu101  Cu    0.83333   0.16667   0.21355   0.00000  Uiso   1.00
Cu102  Cu    0.83333   0.16666   0.11978   0.00000  Uiso   1.00
H103   H     0.77592   0.11938   0.03782   0.00000  Uiso   1.00
H104   H     0.89075   0.21395   0.29551   0.00000  Uiso   1.00
N105   N     0.83335   0.16668   0.28403   0.00000  Uiso   1.00
N106   N     0.83332   0.16666   0.04931   0.00000  Uiso   1.00
O107   O     0.83333   0.10655   0.20625   0.00000  Uiso   1.00
O108   O     0.83334   0.22678   0.12709   0.00000  Uiso   1.00
O109   O     0.83333   0.10654   0.12706   0.00000  Uiso   1.00
O110   O     0.83334   0.22679   0.20628   0.00000  Uiso   1.00
O111   O     0.75828   0.16667   0.19712   0.00000  Uiso   1.00
O112   O     0.90839   0.16666   0.13621   0.00000  Uiso   1.00
O113   O     0.75828   0.16666   0.11793   0.00000  Uiso   1.00
O114   O     0.90839   0.16667   0.21540   0.00000  Uiso   1.00
Br115  Br    0.31838   0.46740   0.09095   0.00000  Uiso   1.00
Br116  Br    0.01496   0.53260   0.24238   0.00000  Uiso   1.00
Br117  Br    0.06948   0.38142   0.10642   0.00000  Uiso   1.00
Br118  Br    0.26385   0.61858   0.22691   0.00000  Uiso   1.00
Br119  Br    0.06943   0.61227   0.10715   0.00000  Uiso   1.00
Br120  Br    0.26390   0.38773   0.22619   0.00000  Uiso   1.00
Br121  Br    0.08807   0.43436   0.27140   0.00000  Uiso   1.00
Br122  Br    0.24527   0.56564   0.06193   0.00000  Uiso   1.00
C123   C     0.16631   0.42082   0.16670   0.00000  Uiso   1.00
C124   C     0.20714   0.35617   0.19274   0.00000  Uiso   1.00
C125   C     0.16695   0.62381   0.16652   0.00000  Uiso   1.00
C126   C     0.16639   0.37619   0.16681   0.00000  Uiso   1.00
C127   C     0.13474   0.47372   0.02165   0.00000  Uiso   1.00
C128   C     0.19859   0.52628   0.31168   0.00000  Uiso   1.00
C129   C     0.13460   0.47349   0.30563   0.00000  Uiso   1.00
C130   C     0.19874   0.52651   0.02770   0.00000  Uiso   1.00
C131   C     0.16702   0.57918   0.16664   0.00000  Uiso   1.00
C132   C     0.06816   0.49964   0.15496   0.00000  Uiso   1.00
C133   C     0.26517   0.50036   0.17838   0.00000  Uiso   1.00
C134   C     0.01349   0.49478   0.14911   0.00000  Uiso   1.00
C135   C     0.31984   0.50522   0.18422   0.00000  Uiso   1.00
C136   C     0.12601   0.35361   0.14064   0.00000  Uiso   1.00
C137   C     0.20733   0.64639   0.19269   0.00000  Uiso   1.00
C138   C     0.12620   0.64383   0.14059   0.00000  Uiso   1.00
Cu139  Cu    0.16667   0.50001   0.21355   0.00000  Uiso   1.00
Cu140  Cu    0.16667   0.49999   0.11978   0.00000  Uiso   1.00
H141   H     0.10925   0.45271   0.03782   0.00000  Uiso   1.00
H142   H     0.22408   0.54729   0.29551   0.00000  Uiso   1.00
N143   N     0.16668   0.50001   0.28403   0.00000  Uiso   1.00
N144   N     0.16665   0.49999   0.04931   0.00000  Uiso   1.00
O145   O     0.16666   0.43989   0.20625   0.00000  Uiso   1.00
O146   O     0.16667   0.56011   0.12709   0.00000  Uiso   1.00
O147   O     0.16666   0.43988   0.12706   0.00000  Uiso   1.00
O148   O     0.16667   0.56012   0.20628   0.00000  Uiso   1.00
O149   O     0.09161   0.50000   0.19712   0.00000  Uiso   1.00
O150   O     0.24172   0.50000   0.13621   0.00000  Uiso   1.00
O151   O     0.09161   0.49999   0.11793   0.00000  Uiso   1.00
O152   O     0.24172   0.50001   0.21540   0.00000  Uiso   1.00
Br153  Br    0.65171   0.46740   0.09095   0.00000  Uiso   1.00
Br154  Br    0.34829   0.53260   0.24238   0.00000  Uiso   1.00
Br155  Br    0.40281   0.38142   0.10642   0.00000  Uiso   1.00
Br156  Br    0.59719   0.61858   0.22691   0.00000  Uiso   1.00
Br157  Br    0.40276   0.61227   0.10715   0.00000  Uiso   1.00
Br158  Br    0.59724   0.38773   0.22619   0.00000  Uiso   1.00
Br159  Br    0.42140   0.43436   0.27140   0.00000  Uiso   1.00
Br160  Br    0.57860   0.56564   0.06193   0.00000  Uiso   1.00
C161   C     0.49965   0.42082   0.16670   0.00000  Uiso   1.00
C162   C     0.54047   0.35617   0.19274   0.00000  Uiso   1.00
C163   C     0.50028   0.62381   0.16652   0.00000  Uiso   1.00
C164   C     0.49972   0.37619   0.16681   0.00000  Uiso   1.00
C165   C     0.46807   0.47372   0.02165   0.00000  Uiso   1.00
C166   C     0.53193   0.52628   0.31168   0.00000  Uiso   1.00
C167   C     0.46793   0.47349   0.30563   0.00000  Uiso   1.00
C168   C     0.53207   0.52651   0.02770   0.00000  Uiso   1.00
C169   C     0.50035   0.57918   0.16664   0.00000  Uiso   1.00
C170   C     0.40149   0.49964   0.15496   0.00000  Uiso   1.00
C171   C     0.59851   0.50036   0.17838   0.00000  Uiso   1.00
C172   C     0.34683   0.49478   0.14911   0.00000  Uiso   1.00
C173   C     0.65317   0.50522   0.18422   0.00000  Uiso   1.00
C174   C     0.45934   0.35361   0.14064   0.00000  Uiso   1.00
C175   C     0.54066   0.64639   0.19269   0.00000  Uiso   1.00
C176   C     0.45953   0.64383   0.14059   0.00000  Uiso   1.00
Cu177  Cu    0.50000   0.50001   0.21355   0.00000  Uiso   1.00
Cu178  Cu    0.50000   0.49999   0.11978   0.00000  Uiso   1.00
H179   H     0.44259   0.45271   0.03782   0.00000  Uiso   1.00
H180   H     0.55741   0.54729   0.29551   0.00000  Uiso   1.00
N181   N     0.50001   0.50001   0.28403   0.00000  Uiso   1.00
N182   N     0.49999   0.49999   0.04931   0.00000  Uiso   1.00
O183   O     0.50000   0.43989   0.20625   0.00000  Uiso   1.00
O184   O     0.50000   0.56011   0.12709   0.00000  Uiso   1.00
O185   O     0.50000   0.43988   0.12706   0.00000  Uiso   1.00
O186   O     0.50000   0.56012   0.20628   0.00000  Uiso   1.00
O187   O     0.42495   0.50000   0.19712   0.00000  Uiso   1.00
O188   O     0.57505   0.50000   0.13621   0.00000  Uiso   1.00
O189   O     0.42494   0.49999   0.11793   0.00000  Uiso   1.00
O190   O     0.57506   0.50001   0.21540   0.00000  Uiso   1.00
Br191  Br    0.98504   0.46740   0.09095   0.00000  Uiso   1.00
Br192  Br    0.68162   0.53260   0.24238   0.00000  Uiso   1.00
Br193  Br    0.73615   0.38142   0.10642   0.00000  Uiso   1.00
Br194  Br    0.93052   0.61858   0.22691   0.00000  Uiso   1.00
Br195  Br    0.73610   0.61227   0.10715   0.00000  Uiso   1.00
Br196  Br    0.93057   0.38773   0.22619   0.00000  Uiso   1.00
Br197  Br    0.75473   0.43436   0.27140   0.00000  Uiso   1.00
Br198  Br    0.91193   0.56564   0.06193   0.00000  Uiso   1.00
C199   C     0.83298   0.42082   0.16670   0.00000  Uiso   1.00
C200   C     0.87380   0.35617   0.19274   0.00000  Uiso   1.00
C201   C     0.83361   0.62381   0.16652   0.00000  Uiso   1.00
C202   C     0.83305   0.37619   0.16681   0.00000  Uiso   1.00
C203   C     0.80141   0.47372   0.02165   0.00000  Uiso   1.00
C204   C     0.86526   0.52628   0.31168   0.00000  Uiso   1.00
C205   C     0.80126   0.47349   0.30563   0.00000  Uiso   1.00
C206   C     0.86540   0.52651   0.02770   0.00000  Uiso   1.00
C207   C     0.83369   0.57918   0.16664   0.00000  Uiso   1.00
C208   C     0.73483   0.49964   0.15496   0.00000  Uiso   1.00
C209   C     0.93184   0.50036   0.17838   0.00000  Uiso   1.00
C210   C     0.68016   0.49478   0.14911   0.00000  Uiso   1.00
C211   C     0.98651   0.50522   0.18422   0.00000  Uiso   1.00
C212   C     0.79267   0.35361   0.14064   0.00000  Uiso   1.00
C213   C     0.87399   0.64639   0.19269   0.00000  Uiso   1.00
C214   C     0.79286   0.64383   0.14059   0.00000  Uiso   1.00
Cu215  Cu    0.83333   0.50001   0.21355   0.00000  Uiso   1.00
Cu216  Cu    0.83333   0.49999   0.11978   0.00000  Uiso   1.00
H217   H     0.77592   0.45271   0.03782   0.00000  Uiso   1.00
H218   H     0.89075   0.54729   0.29551   0.00000  Uiso   1.00
N219   N     0.83335   0.50001   0.28403   0.00000  Uiso   1.00
N220   N     0.83332   0.49999   0.04931   0.00000  Uiso   1.00
O221   O     0.83333   0.43989   0.20625   0.00000  Uiso   1.00
O222   O     0.83334   0.56011   0.12709   0.00000  Uiso   1.00
O223   O     0.83333   0.43988   0.12706   0.00000  Uiso   1.00
O224   O     0.83334   0.56012   0.20628   0.00000  Uiso   1.00
O225   O     0.75828   0.50000   0.19712   0.00000  Uiso   1.00
O226   O     0.90839   0.50000   0.13621   0.00000  Uiso   1.00
O227   O     0.75828   0.49999   0.11793   0.00000  Uiso   1.00
O228   O     0.90839   0.50001   0.21540   0.00000  Uiso   1.00
Br229  Br    0.31838   0.80073   0.09095   0.00000  Uiso   1.00
Br230  Br    0.01496   0.86593   0.24238   0.00000  Uiso   1.00
Br231  Br    0.06948   0.71475   0.10642   0.00000  Uiso   1.00
Br232  Br    0.26385   0.95192   0.22691   0.00000  Uiso   1.00
Br233  Br    0.06943   0.94560   0.10715   0.00000  Uiso   1.00
Br234  Br    0.26390   0.72107   0.22619   0.00000  Uiso   1.00
Br235  Br    0.08807   0.76770   0.27140   0.00000  Uiso   1.00
Br236  Br    0.24527   0.89897   0.06193   0.00000  Uiso   1.00
C237   C     0.16631   0.75415   0.16670   0.00000  Uiso   1.00
C238   C     0.20714   0.68950   0.19274   0.00000  Uiso   1.00
C239   C     0.16695   0.95714   0.16652   0.00000  Uiso   1.00
C240   C     0.16639   0.70952   0.16681   0.00000  Uiso   1.00
C241   C     0.13474   0.80705   0.02165   0.00000  Uiso   1.00
C242   C     0.19859   0.85962   0.31168   0.00000  Uiso   1.00
C243   C     0.13460   0.80683   0.30563   0.00000  Uiso   1.00
C244   C     0.19874   0.85984   0.02770   0.00000  Uiso   1.00
C245   C     0.16702   0.91252   0.16664   0.00000  Uiso   1.00
C246   C     0.06816   0.83298   0.15496   0.00000  Uiso   1.00
C247   C     0.26517   0.83369   0.17838   0.00000  Uiso   1.00
C248   C     0.01349   0.82811   0.14911   0.00000  Uiso   1.00
C249   C     0.31984   0.83855   0.18422   0.00000  Uiso   1.00
C250   C     0.12601   0.68694   0.14064   0.00000  Uiso   1.00
C251   C     0.20733   0.97972   0.19269   0.00000  Uiso   1.00
C252   C     0.12620   0.97716   0.14059   0.00000  Uiso   1.00
Cu253  Cu    0.16667   0.83334   0.21355   0.00000  Uiso   1.00
Cu254  Cu    0.16667   0.83333   0.11978   0.00000  Uiso   1.00
H255   H     0.10925   0.78605   0.03782   0.00000  Uiso   1.00
H256   H     0.22408   0.88062   0.29551   0.00000  Uiso   1.00
N257   N     0.16668   0.83334   0.28403   0.00000  Uiso   1.00
N258   N     0.16665   0.83332   0.04931   0.00000  Uiso   1.00
O259   O     0.16666   0.77322   0.20625   0.00000  Uiso   1.00
O260   O     0.16667   0.89345   0.12709   0.00000  Uiso   1.00
O261   O     0.16666   0.77321   0.12706   0.00000  Uiso   1.00
O262   O     0.16667   0.89346   0.20628   0.00000  Uiso   1.00
O263   O     0.09161   0.83334   0.19712   0.00000  Uiso   1.00
O264   O     0.24172   0.83333   0.13621   0.00000  Uiso   1.00
O265   O     0.09161   0.83333   0.11793   0.00000  Uiso   1.00
O266   O     0.24172   0.83334   0.21540   0.00000  Uiso   1.00
Br267  Br    0.65171   0.80073   0.09095   0.00000  Uiso   1.00
Br268  Br    0.34829   0.86593   0.24238   0.00000  Uiso   1.00
Br269  Br    0.40281   0.71475   0.10642   0.00000  Uiso   1.00
Br270  Br    0.59719   0.95192   0.22691   0.00000  Uiso   1.00
Br271  Br    0.40276   0.94560   0.10715   0.00000  Uiso   1.00
Br272  Br    0.59724   0.72107   0.22619   0.00000  Uiso   1.00
Br273  Br    0.42140   0.76770   0.27140   0.00000  Uiso   1.00
Br274  Br    0.57860   0.89897   0.06193   0.00000  Uiso   1.00
C275   C     0.49965   0.75415   0.16670   0.00000  Uiso   1.00
C276   C     0.54047   0.68950   0.19274   0.00000  Uiso   1.00
C277   C     0.50028   0.95714   0.16652   0.00000  Uiso   1.00
C278   C     0.49972   0.70952   0.16681   0.00000  Uiso   1.00
C279   C     0.46807   0.80705   0.02165   0.00000  Uiso   1.00
C280   C     0.53193   0.85962   0.31168   0.00000  Uiso   1.00
C281   C     0.46793   0.80683   0.30563   0.00000  Uiso   1.00
C282   C     0.53207   0.85984   0.02770   0.00000  Uiso   1.00
C283   C     0.50035   0.91252   0.16664   0.00000  Uiso   1.00
C284   C     0.40149   0.83298   0.15496   0.00000  Uiso   1.00
C285   C     0.59851   0.83369   0.17838   0.00000  Uiso   1.00
C286   C     0.34683   0.82811   0.14911   0.00000  Uiso   1.00
C287   C     0.65317   0.83855   0.18422   0.00000  Uiso   1.00
C288   C     0.45934   0.68694   0.14064   0.00000  Uiso   1.00
C289   C     0.54066   0.97972   0.19269   0.00000  Uiso   1.00
C290   C     0.45953   0.97716   0.14059   0.00000  Uiso   1.00
Cu291  Cu    0.50000   0.83334   0.21355   0.00000  Uiso   1.00
Cu292  Cu    0.50000   0.83333   0.11978   0.00000  Uiso   1.00
H293   H     0.44259   0.78605   0.03782   0.00000  Uiso   1.00
H294   H     0.55741   0.88062   0.29551   0.00000  Uiso   1.00
N295   N     0.50001   0.83334   0.28403   0.00000  Uiso   1.00
N296   N     0.49999   0.83332   0.04931   0.00000  Uiso   1.00
O297   O     0.50000   0.77322   0.20625   0.00000  Uiso   1.00
O298   O     0.50000   0.89345   0.12709   0.00000  Uiso   1.00
O299   O     0.50000   0.77321   0.12706   0.00000  Uiso   1.00
O300   O     0.50000   0.89346   0.20628   0.00000  Uiso   1.00
O301   O     0.42495   0.83334   0.19712   0.00000  Uiso   1.00
O302   O     0.57505   0.83333   0.13621   0.00000  Uiso   1.00
O303   O     0.42494   0.83333   0.11793   0.00000  Uiso   1.00
O304   O     0.57506   0.83334   0.21540   0.00000  Uiso   1.00
Br305  Br    0.98504   0.80073   0.09095   0.00000  Uiso   1.00
Br306  Br    0.68162   0.86593   0.24238   0.00000  Uiso   1.00
Br307  Br    0.73615   0.71475   0.10642   0.00000  Uiso   1.00
Br308  Br    0.93052   0.95192   0.22691   0.00000  Uiso   1.00
Br309  Br    0.73610   0.94560   0.10715   0.00000  Uiso   1.00
Br310  Br    0.93057   0.72107   0.22619   0.00000  Uiso   1.00
Br311  Br    0.75473   0.76770   0.27140   0.00000  Uiso   1.00
Br312  Br    0.91193   0.89897   0.06193   0.00000  Uiso   1.00
C313   C     0.83298   0.75415   0.16670   0.00000  Uiso   1.00
C314   C     0.87380   0.68950   0.19274   0.00000  Uiso   1.00
C315   C     0.83361   0.95714   0.16652   0.00000  Uiso   1.00
C316   C     0.83305   0.70952   0.16681   0.00000  Uiso   1.00
C317   C     0.80141   0.80705   0.02165   0.00000  Uiso   1.00
C318   C     0.86526   0.85962   0.31168   0.00000  Uiso   1.00
C319   C     0.80126   0.80683   0.30563   0.00000  Uiso   1.00
C320   C     0.86540   0.85984   0.02770   0.00000  Uiso   1.00
C321   C     0.83369   0.91252   0.16664   0.00000  Uiso   1.00
C322   C     0.73483   0.83298   0.15496   0.00000  Uiso   1.00
C323   C     0.93184   0.83369   0.17838   0.00000  Uiso   1.00
C324   C     0.68016   0.82811   0.14911   0.00000  Uiso   1.00
C325   C     0.98651   0.83855   0.18422   0.00000  Uiso   1.00
C326   C     0.79267   0.68694   0.14064   0.00000  Uiso   1.00
C327   C     0.87399   0.97972   0.19269   0.00000  Uiso   1.00
C328   C     0.79286   0.97716   0.14059   0.00000  Uiso   1.00
Cu329  Cu    0.83333   0.83334   0.21355   0.00000  Uiso   1.00
Cu330  Cu    0.83333   0.83333   0.11978   0.00000  Uiso   1.00
H331   H     0.77592   0.78605   0.03782   0.00000  Uiso   1.00
H332   H     0.89075   0.88062   0.29551   0.00000  Uiso   1.00
N333   N     0.83335   0.83334   0.28403   0.00000  Uiso   1.00
N334   N     0.83332   0.83332   0.04931   0.00000  Uiso   1.00
O335   O     0.83333   0.77322   0.20625   0.00000  Uiso   1.00
O336   O     0.83334   0.89345   0.12709   0.00000  Uiso   1.00
O337   O     0.83333   0.77321   0.12706   0.00000  Uiso   1.00
O338   O     0.83334   0.89346   0.20628   0.00000  Uiso   1.00
O339   O     0.75828   0.83334   0.19712   0.00000  Uiso   1.00
O340   O     0.90839   0.83333   0.13621   0.00000  Uiso   1.00
O341   O     0.75828   0.83333   0.11793   0.00000  Uiso   1.00
O342   O     0.90839   0.83334   0.21540   0.00000  Uiso   1.00
Br343  Br    0.31838   0.13407   0.42429   0.00000  Uiso   1.00
Br344  Br    0.01496   0.19927   0.57571   0.00000  Uiso   1.00
Br345  Br    0.06948   0.04809   0.43976   0.00000  Uiso   1.00
Br346  Br    0.26385   0.28525   0.56025   0.00000  Uiso   1.00
Br347  Br    0.06943   0.27893   0.44048   0.00000  Uiso   1.00
Br348  Br    0.26390   0.05440   0.55952   0.00000  Uiso   1.00
Br349  Br    0.08807   0.10103   0.60474   0.00000  Uiso   1.00
Br350  Br    0.24527   0.23230   0.39526   0.00000  Uiso   1.00
C351   C     0.16631   0.08748   0.50003   0.00000  Uiso   1.00
C352   C     0.20714   0.02284   0.52607   0.00000  Uiso   1.00
C353   C     0.16695   0.29048   0.49985   0.00000  Uiso   1.00
C354   C     0.16639   0.04286   0.50015   0.00000  Uiso   1.00
C355   C     0.13474   0.14038   0.35499   0.00000  Uiso   1.00
C356   C     0.19859   0.19295   0.64501   0.00000  Uiso   1.00
C357   C     0.13460   0.14016   0.63896   0.00000  Uiso   1.00
C358   C     0.19874   0.19317   0.36104   0.00000  Uiso   1.00
C359   C     0.16702   0.24585   0.49997   0.00000  Uiso   1.00
C360   C     0.06816   0.16631   0.48829   0.00000  Uiso   1.00
C361   C     0.26517   0.16702   0.51171   0.00000  Uiso   1.00
C362   C     0.01349   0.16145   0.48244   0.00000  Uiso   1.00
C363   C     0.31984   0.17189   0.51756   0.00000  Uiso   1.00
C364   C     0.12601   0.02028   0.47398   0.00000  Uiso   1.00
C365   C     0.20733   0.31306   0.52602   0.00000  Uiso   1.00
C366   C     0.12620   0.31050   0.47393   0.00000  Uiso   1.00
Cu367  Cu    0.16667   0.16667   0.54689   0.00000  Uiso   1.00
Cu368  Cu    0.16667   0.16666   0.45311   0.00000  Uiso   1.00
H369   H     0.10925   0.11938   0.37116   0.00000  Uiso   1.00
H370   H     0.22408   0.21395   0.62884   0.00000  Uiso   1.00
N371   N     0.16668   0.16668   0.61736   0.00000  Uiso   1.00
N372   N     0.16665   0.16666   0.38264   0.00000  Uiso   1.00
O373   O     0.16666   0.10655   0.53958   0.00000  Uiso   1.00
O374   O     0.16667   0.22678   0.46042   0.00000  Uiso   1.00
O375   O     0.16666   0.10654   0.46039   0.00000  Uiso   1.00
O376   O     0.16667   0.22679   0.53961   0.00000  Uiso   1.00
O377   O     0.09161   0.16667   0.53046   0.00000  Uiso   1.00
O378   O     0.24172   0.16666   0.46954   0.00000  Uiso   1.00
O379   O     0.09161   0.16666   0.45127   0.00000  Uiso   1.00
O380   O     0.24172   0.16667   0.54873   0.00000  Uiso   1.00
Br381  Br    0.65171   0.13407   0.42429   0.00000  Uiso   1.00
Br382  Br    0.34829   0.19927   0.57571   0.00000  Uiso   1.00
Br383  Br    0.40281   0.04809   0.43976   0.00000  Uiso   1.00
Br384  Br    0.59719   0.28525   0.56025   0.00000  Uiso   1.00
Br385  Br    0.40276   0.27893   0.44048   0.00000  Uiso   1.00
Br386  Br    0.59724   0.05440   0.55952   0.00000  Uiso   1.00
Br387  Br    0.42140   0.10103   0.60474   0.00000  Uiso   1.00
Br388  Br    0.57860   0.23230   0.39526   0.00000  Uiso   1.00
C389   C     0.49965   0.08748   0.50003   0.00000  Uiso   1.00
C390   C     0.54047   0.02284   0.52607   0.00000  Uiso   1.00
C391   C     0.50028   0.29048   0.49985   0.00000  Uiso   1.00
C392   C     0.49972   0.04286   0.50015   0.00000  Uiso   1.00
C393   C     0.46807   0.14038   0.35499   0.00000  Uiso   1.00
C394   C     0.53193   0.19295   0.64501   0.00000  Uiso   1.00
C395   C     0.46793   0.14016   0.63896   0.00000  Uiso   1.00
C396   C     0.53207   0.19317   0.36104   0.00000  Uiso   1.00
C397   C     0.50035   0.24585   0.49997   0.00000  Uiso   1.00
C398   C     0.40149   0.16631   0.48829   0.00000  Uiso   1.00
C399   C     0.59851   0.16702   0.51171   0.00000  Uiso   1.00
C400   C     0.34683   0.16145   0.48244   0.00000  Uiso   1.00
C401   C     0.65317   0.17189   0.51756   0.00000  Uiso   1.00
C402   C     0.45934   0.02028   0.47398   0.00000  Uiso   1.00
C403   C     0.54066   0.31306   0.52602   0.00000  Uiso   1.00
C404   C     0.45953   0.31050   0.47393   0.00000  Uiso   1.00
Cu405  Cu    0.50000   0.16667   0.54689   0.00000  Uiso   1.00
Cu406  Cu    0.50000   0.16666   0.45311   0.00000  Uiso   1.00
H407   H     0.44259   0.11938   0.37116   0.00000  Uiso   1.00
H408   H     0.55741   0.21395   0.62884   0.00000  Uiso   1.00
N409   N     0.50001   0.16668   0.61736   0.00000  Uiso   1.00
N410   N     0.49999   0.16666   0.38264   0.00000  Uiso   1.00
O411   O     0.50000   0.10655   0.53958   0.00000  Uiso   1.00
O412   O     0.50000   0.22678   0.46042   0.00000  Uiso   1.00
O413   O     0.50000   0.10654   0.46039   0.00000  Uiso   1.00
O414   O     0.50000   0.22679   0.53961   0.00000  Uiso   1.00
O415   O     0.42495   0.16667   0.53046   0.00000  Uiso   1.00
O416   O     0.57505   0.16666   0.46954   0.00000  Uiso   1.00
O417   O     0.42494   0.16666   0.45127   0.00000  Uiso   1.00
O418   O     0.57506   0.16667   0.54873   0.00000  Uiso   1.00
Br419  Br    0.98504   0.13407   0.42429   0.00000  Uiso   1.00
Br420  Br    0.68162   0.19927   0.57571   0.00000  Uiso   1.00
Br421  Br    0.73615   0.04809   0.43976   0.00000  Uiso   1.00
Br422  Br    0.93052   0.28525   0.56025   0.00000  Uiso   1.00
Br423  Br    0.73610   0.27893   0.44048   0.00000  Uiso   1.00
Br424  Br    0.93057   0.05440   0.55952   0.00000  Uiso   1.00
Br425  Br    0.75473   0.10103   0.60474   0.00000  Uiso   1.00
Br426  Br    0.91193   0.23230   0.39526   0.00000  Uiso   1.00
C427   C     0.83298   0.08748   0.50003   0.00000  Uiso   1.00
C428   C     0.87380   0.02284   0.52607   0.00000  Uiso   1.00
C429   C     0.83361   0.29048   0.49985   0.00000  Uiso   1.00
C430   C     0.83305   0.04286   0.50015   0.00000  Uiso   1.00
C431   C     0.80141   0.14038   0.35499   0.00000  Uiso   1.00
C432   C     0.86526   0.19295   0.64501   0.00000  Uiso   1.00
C433   C     0.80126   0.14016   0.63896   0.00000  Uiso   1.00
C434   C     0.86540   0.19317   0.36104   0.00000  Uiso   1.00
C435   C     0.83369   0.24585   0.49997   0.00000  Uiso   1.00
C436   C     0.73483   0.16631   0.48829   0.00000  Uiso   1.00
C437   C     0.93184   0.16702   0.51171   0.00000  Uiso   1.00
C438   C     0.68016   0.16145   0.48244   0.00000  Uiso   1.00
C439   C     0.98651   0.17189   0.51756   0.00000  Uiso   1.00
C440   C     0.79267   0.02028   0.47398   0.00000  Uiso   1.00
C441   C     0.87399   0.31306   0.52602   0.00000  Uiso   1.00
C442   C     0.79286   0.31050   0.47393   0.00000  Uiso   1.00
Cu443  Cu    0.83333   0.16667   0.54689   0.00000  Uiso   1.00
Cu444  Cu    0.83333   0.16666   0.45311   0.00000  Uiso   1.00
H445   H     0.77592   0.11938   0.37116   0.00000  Uiso   1.00
H446   H     0.89075   0.21395   0.62884   0.00000  Uiso   1.00
N447   N     0.83335   0.16668   0.61736   0.00000  Uiso   1.00
N448   N     0.83332   0.16666   0.38264   0.00000  Uiso   1.00
O449   O     0.83333   0.10655   0.53958   0.00000  Uiso   1.00
O450   O     0.83334   0.22678   0.46042   0.00000  Uiso   1.00
O451   O     0.83333   0.10654   0.46039   0.00000  Uiso   1.00
O452   O     0.83334   0.22679   0.53961   0.00000  Uiso   1.00
O453   O     0.75828   0.16667   0.53046   0.00000  Uiso   1.00
O454   O     0.90839   0.16666   0.46954   0.00000  Uiso   1.00
O455   O     0.75828   0.16666   0.45127   0.00000  Uiso   1.00
O456   O     0.90839   0.16667   0.54873   0.00000  Uiso   1.00
Br457  Br    0.31838   0.46740   0.42429   0.00000  Uiso   1.00
Br458  Br    0.01496   0.53260   0.57571   0.00000  Uiso   1.00
Br459  Br    0.06948   0.38142   0.43976   0.00000  Uiso   1.00
Br460  Br    0.26385   0.61858   0.56025   0.00000  Uiso   1.00
Br461  Br    0.06943   0.61227   0.44048   0.00000  Uiso   1.00
Br462  Br    0.26390   0.38773   0.55952   0.00000  Uiso   1.00
Br463  Br    0.08807   0.43436   0.60474   0.00000  Uiso   1.00
Br464  Br    0.24527   0.56564   0.39526   0.00000  Uiso   1.00
C465   C     0.16631   0.42082   0.50003   0.00000  Uiso   1.00
C466   C     0.20714   0.35617   0.52607   0.00000  Uiso   1.00
C467   C     0.16695   0.62381   0.49985   0.00000  Uiso   1.00
C468   C     0.16639   0.37619   0.50015   0.00000  Uiso   1.00
C469   C     0.13474   0.47372   0.35499   0.00000  Uiso   1.00
C470   C     0.19859   0.52628   0.64501   0.00000  Uiso   1.00
C471   C     0.13460   0.47349   0.63896   0.00000  Uiso   1.00
C472   C     0.19874   0.52651   0.36104   0.00000  Uiso   1.00
C473   C     0.16702   0.57918   0.49997   0.00000  Uiso   1.00
C474   C     0.06816   0.49964   0.48829   0.00000  Uiso   1.00
C475   C     0.26517   0.50036   0.51171   0.00000  Uiso   1.00
C476   C     0.01349   0.49478   0.48244   0.00000  Uiso   1.00
C477   C     0.31984   0.50522   0.51756   0.00000  Uiso   1.00
C478   C     0.12601   0.35361   0.47398   0.00000  Uiso   1.00
C479   C     0.20733   0.64639   0.52602   0.00000  Uiso   1.00
C480   C     0.12620   0.64383   0.47393   0.00000  Uiso   1.00
Cu481  Cu    0.16667   0.50001   0.54689   0.00000  Uiso   1.00
Cu482  Cu    0.16667   0.49999   0.45311   0.00000  Uiso   1.00
H483   H     0.10925   0.45271   0.37116   0.00000  Uiso   1.00
H484   H     0.22408   0.54729   0.62884   0.00000  Uiso   1.00
N485   N     0.16668   0.50001   0.61736   0.00000  Uiso   1.00
N486   N     0.16665   0.49999   0.38264   0.00000  Uiso   1.00
O487   O     0.16666   0.43989   0.53958   0.00000  Uiso   1.00
O488   O     0.16667   0.56011   0.46042   0.00000  Uiso   1.00
O489   O     0.16666   0.43988   0.46039   0.00000  Uiso   1.00
O490   O     0.16667   0.56012   0.53961   0.00000  Uiso   1.00
O491   O     0.09161   0.50000   0.53046   0.00000  Uiso   1.00
O492   O     0.24172   0.50000   0.46954   0.00000  Uiso   1.00
O493   O     0.09161   0.49999   0.45127   0.00000  Uiso   1.00
O494   O     0.24172   0.50001   0.54873   0.00000  Uiso   1.00
Br495  Br    0.65171   0.46740   0.42429   0.00000  Uiso   1.00
Br496  Br    0.34829   0.53260   0.57571   0.00000  Uiso   1.00
Br497  Br    0.40281   0.38142   0.43976   0.00000  Uiso   1.00
Br498  Br    0.59719   0.61858   0.56025   0.00000  Uiso   1.00
Br499  Br    0.40276   0.61227   0.44048   0.00000  Uiso   1.00
Br500  Br    0.59724   0.38773   0.55952   0.00000  Uiso   1.00
Br501  Br    0.42140   0.43436   0.60474   0.00000  Uiso   1.00
Br502  Br    0.57860   0.56564   0.39526   0.00000  Uiso   1.00
C503   C     0.49965   0.42082   0.50003   0.00000  Uiso   1.00
C504   C     0.54047   0.35617   0.52607   0.00000  Uiso   1.00
C505   C     0.50028   0.62381   0.49985   0.00000  Uiso   1.00
C506   C     0.49972   0.37619   0.50015   0.00000  Uiso   1.00
C507   C     0.46807   0.47372   0.35499   0.00000  Uiso   1.00
C508   C     0.53193   0.52628   0.64501   0.00000  Uiso   1.00
C509   C     0.46793   0.47349   0.63896   0.00000  Uiso   1.00
C510   C     0.53207   0.52651   0.36104   0.00000  Uiso   1.00
C511   C     0.50035   0.57918   0.49997   0.00000  Uiso   1.00
C512   C     0.40149   0.49964   0.48829   0.00000  Uiso   1.00
C513   C     0.59851   0.50036   0.51171   0.00000  Uiso   1.00
C514   C     0.34683   0.49478   0.48244   0.00000  Uiso   1.00
C515   C     0.65317   0.50522   0.51756   0.00000  Uiso   1.00
C516   C     0.45934   0.35361   0.47398   0.00000  Uiso   1.00
C517   C     0.54066   0.64639   0.52602   0.00000  Uiso   1.00
C518   C     0.45953   0.64383   0.47393   0.00000  Uiso   1.00
Cu519  Cu    0.50000   0.50001   0.54689   0.00000  Uiso   1.00
Cu520  Cu    0.50000   0.49999   0.45311   0.00000  Uiso   1.00
H521   H     0.44259   0.45271   0.37116   0.00000  Uiso   1.00
H522   H     0.55741   0.54729   0.62884   0.00000  Uiso   1.00
N523   N     0.50001   0.50001   0.61736   0.00000  Uiso   1.00
N524   N     0.49999   0.49999   0.38264   0.00000  Uiso   1.00
O525   O     0.50000   0.43989   0.53958   0.00000  Uiso   1.00
O526   O     0.50000   0.56011   0.46042   0.00000  Uiso   1.00
O527   O     0.50000   0.43988   0.46039   0.00000  Uiso   1.00
O528   O     0.50000   0.56012   0.53961   0.00000  Uiso   1.00
O529   O     0.42495   0.50000   0.53046   0.00000  Uiso   1.00
O530   O     0.57505   0.50000   0.46954   0.00000  Uiso   1.00
O531   O     0.42494   0.49999   0.45127   0.00000  Uiso   1.00
O532   O     0.57506   0.50001   0.54873   0.00000  Uiso   1.00
Br533  Br    0.98504   0.46740   0.42429   0.00000  Uiso   1.00
Br534  Br    0.68162   0.53260   0.57571   0.00000  Uiso   1.00
Br535  Br    0.73615   0.38142   0.43976   0.00000  Uiso   1.00
Br536  Br    0.93052   0.61858   0.56025   0.00000  Uiso   1.00
Br537  Br    0.73610   0.61227   0.44048   0.00000  Uiso   1.00
Br538  Br    0.93057   0.38773   0.55952   0.00000  Uiso   1.00
Br539  Br    0.75473   0.43436   0.60474   0.00000  Uiso   1.00
Br540  Br    0.91193   0.56564   0.39526   0.00000  Uiso   1.00
C541   C     0.83298   0.42082   0.50003   0.00000  Uiso   1.00
C542   C     0.87380   0.35617   0.52607   0.00000  Uiso   1.00
C543   C     0.83361   0.62381   0.49985   0.00000  Uiso   1.00
C544   C     0.83305   0.37619   0.50015   0.00000  Uiso   1.00
C545   C     0.80141   0.47372   0.35499   0.00000  Uiso   1.00
C546   C     0.86526   0.52628   0.64501   0.00000  Uiso   1.00
C547   C     0.80126   0.47349   0.63896   0.00000  Uiso   1.00
C548   C     0.86540   0.52651   0.36104   0.00000  Uiso   1.00
C549   C     0.83369   0.57918   0.49997   0.00000  Uiso   1.00
C550   C     0.73483   0.49964   0.48829   0.00000  Uiso   1.00
C551   C     0.93184   0.50036   0.51171   0.00000  Uiso   1.00
C552   C     0.68016   0.49478   0.48244   0.00000  Uiso   1.00
C553   C     0.98651   0.50522   0.51756   0.00000  Uiso   1.00
C554   C     0.79267   0.35361   0.47398   0.00000  Uiso   1.00
C555   C     0.87399   0.64639   0.52602   0.00000  Uiso   1.00
C556   C     0.79286   0.64383   0.47393   0.00000  Uiso   1.00
Cu557  Cu    0.83333   0.50001   0.54689   0.00000  Uiso   1.00
Cu558  Cu    0.83333   0.49999   0.45311   0.00000  Uiso   1.00
H559   H     0.77592   0.45271   0.37116   0.00000  Uiso   1.00
H560   H     0.89075   0.54729   0.62884   0.00000  Uiso   1.00
N561   N     0.83335   0.50001   0.61736   0.00000  Uiso   1.00
N562   N     0.83332   0.49999   0.38264   0.00000  Uiso   1.00
O563   O     0.83333   0.43989   0.53958   0.00000  Uiso   1.00
O564   O     0.83334   0.56011   0.46042   0.00000  Uiso   1.00
O565   O     0.83333   0.43988   0.46039   0.00000  Uiso   1.00
O566   O     0.83334   0.56012   0.53961   0.00000  Uiso   1.00
O567   O     0.75828   0.50000   0.53046   0.00000  Uiso   1.00
O568   O     0.90839   0.50000   0.46954   0.00000  Uiso   1.00
O569   O     0.75828   0.49999   0.45127   0.00000  Uiso   1.00
O570   O     0.90839   0.50001   0.54873   0.00000  Uiso   1.00
Br571  Br    0.31838   0.80073   0.42429   0.00000  Uiso   1.00
Br572  Br    0.01496   0.86593   0.57571   0.00000  Uiso   1.00
Br573  Br    0.06948   0.71475   0.43976   0.00000  Uiso   1.00
Br574  Br    0.26385   0.95192   0.56025   0.00000  Uiso   1.00
Br575  Br    0.06943   0.94560   0.44048   0.00000  Uiso   1.00
Br576  Br    0.26390   0.72107   0.55952   0.00000  Uiso   1.00
Br577  Br    0.08807   0.76770   0.60474   0.00000  Uiso   1.00
Br578  Br    0.24527   0.89897   0.39526   0.00000  Uiso   1.00
C579   C     0.16631   0.75415   0.50003   0.00000  Uiso   1.00
C580   C     0.20714   0.68950   0.52607   0.00000  Uiso   1.00
C581   C     0.16695   0.95714   0.49985   0.00000  Uiso   1.00
C582   C     0.16639   0.70952   0.50015   0.00000  Uiso   1.00
C583   C     0.13474   0.80705   0.35499   0.00000  Uiso   1.00
C584   C     0.19859   0.85962   0.64501   0.00000  Uiso   1.00
C585   C     0.13460   0.80683   0.63896   0.00000  Uiso   1.00
C586   C     0.19874   0.85984   0.36104   0.00000  Uiso   1.00
C587   C     0.16702   0.91252   0.49997   0.00000  Uiso   1.00
C588   C     0.06816   0.83298   0.48829   0.00000  Uiso   1.00
C589   C     0.26517   0.83369   0.51171   0.00000  Uiso   1.00
C590   C     0.01349   0.82811   0.48244   0.00000  Uiso   1.00
C591   C     0.31984   0.83855   0.51756   0.00000  Uiso   1.00
C592   C     0.12601   0.68694   0.47398   0.00000  Uiso   1.00
C593   C     0.20733   0.97972   0.52602   0.00000  Uiso   1.00
C594   C     0.12620   0.97716   0.47393   0.00000  Uiso   1.00
Cu595  Cu    0.16667   0.83334   0.54689   0.00000  Uiso   1.00
Cu596  Cu    0.16667   0.83333   0.45311   0.00000  Uiso   1.00
H597   H     0.10925   0.78605   0.37116   0.00000  Uiso   1.00
H598   H     0.22408   0.88062   0.62884   0.00000  Uiso   1.00
N599   N     0.16668   0.83334   0.61736   0.00000  Uiso   1.00
N600   N     0.16665   0.83332   0.38264   0.00000  Uiso   1.00
O601   O     0.16666   0.77322   0.53958   0.00000  Uiso   1.00
O602   O     0.16667   0.89345   0.46042   0.00000  Uiso   1.00
O603   O     0.16666   0.77321   0.46039   0.00000  Uiso   1.00
O604   O     0.16667   0.89346   0.53961   0.00000  Uiso   1.00
O605   O     0.09161   0.83334   0.53046   0.00000  Uiso   1.00
O606   O     0.24172   0.83333   0.46954   0.00000  Uiso   1.00
O607   O     0.09161   0.83333   0.45127   0.00000  Uiso   1.00
O608   O     0.24172   0.83334   0.54873   0.00000  Uiso   1.00
Br609  Br    0.65171   0.80073   0.42429   0.00000  Uiso   1.00
Br610  Br    0.34829   0.86593   0.57571   0.00000  Uiso   1.00
Br611  Br    0.40281   0.71475   0.43976   0.00000  Uiso   1.00
Br612  Br    0.59719   0.95192   0.56025   0.00000  Uiso   1.00
Br613  Br    0.40276   0.94560   0.44048   0.00000  Uiso   1.00
Br614  Br    0.59724   0.72107   0.55952   0.00000  Uiso   1.00
Br615  Br    0.42140   0.76770   0.60474   0.00000  Uiso   1.00
Br616  Br    0.57860   0.89897   0.39526   0.00000  Uiso   1.00
C617   C     0.49965   0.75415   0.50003   0.00000  Uiso   1.00
C618   C     0.54047   0.68950   0.52607   0.00000  Uiso   1.00
C619   C     0.50028   0.95714   0.49985   0.00000  Uiso   1.00
C620   C     0.49972   0.70952   0.50015   0.00000  Uiso   1.00
C621   C     0.46807   0.80705   0.35499   0.00000  Uiso   1.00
C622   C     0.53193   0.85962   0.64501   0.00000  Uiso   1.00
C623   C     0.46793   0.80683   0.63896   0.00000  Uiso   1.00
C624   C     0.53207   0.85984   0.36104   0.00000  Uiso   1.00
C625   C     0.50035   0.91252   0.49997   0.00000  Uiso   1.00
C626   C     0.40149   0.83298   0.48829   0.00000  Uiso   1.00
C627   C     0.59851   0.83369   0.51171   0.00000  Uiso   1.00
C628   C     0.34683   0.82811   0.48244   0.00000  Uiso   1.00
C629   C     0.65317   0.83855   0.51756   0.00000  Uiso   1.00
C630   C     0.45934   0.68694   0.47398   0.00000  Uiso   1.00
C631   C     0.54066   0.97972   0.52602   0.00000  Uiso   1.00
C632   C     0.45953   0.97716   0.47393   0.00000  Uiso   1.00
Cu633  Cu    0.50000   0.83334   0.54689   0.00000  Uiso   1.00
Cu634  Cu    0.50000   0.83333   0.45311   0.00000  Uiso   1.00
H635   H     0.44259   0.78605   0.37116   0.00000  Uiso   1.00
H636   H     0.55741   0.88062   0.62884   0.00000  Uiso   1.00
N637   N     0.50001   0.83334   0.61736   0.00000  Uiso   1.00
N638   N     0.49999   0.83332   0.38264   0.00000  Uiso   1.00
O639   O     0.50000   0.77322   0.53958   0.00000  Uiso   1.00
O640   O     0.50000   0.89345   0.46042   0.00000  Uiso   1.00
O641   O     0.50000   0.77321   0.46039   0.00000  Uiso   1.00
O642   O     0.50000   0.89346   0.53961   0.00000  Uiso   1.00
O643   O     0.42495   0.83334   0.53046   0.00000  Uiso   1.00
O644   O     0.57505   0.83333   0.46954   0.00000  Uiso   1.00
O645   O     0.42494   0.83333   0.45127   0.00000  Uiso   1.00
O646   O     0.57506   0.83334   0.54873   0.00000  Uiso   1.00
Br647  Br    0.98504   0.80073   0.42429   0.00000  Uiso   1.00
Br648  Br    0.68162   0.86593   0.57571   0.00000  Uiso   1.00
Br649  Br    0.73615   0.71475   0.43976   0.00000  Uiso   1.00
Br650  Br    0.93052   0.95192   0.56025   0.00000  Uiso   1.00
Br651  Br    0.73610   0.94560   0.44048   0.00000  Uiso   1.00
Br652  Br    0.93057   0.72107   0.55952   0.00000  Uiso   1.00
Br653  Br    0.75473   0.76770   0.60474   0.00000  Uiso   1.00
Br654  Br    0.91193   0.89897   0.39526   0.00000  Uiso   1.00
C655   C     0.83298   0.75415   0.50003   0.00000  Uiso   1.00
C656   C     0.87380   0.68950   0.52607   0.00000  Uiso   1.00
C657   C     0.83361   0.95714   0.49985   0.00000  Uiso   1.00
C658   C     0.83305   0.70952   0.50015   0.00000  Uiso   1.00
C659   C     0.80141   0.80705   0.35499   0.00000  Uiso   1.00
C660   C     0.86526   0.85962   0.64501   0.00000  Uiso   1.00
C661   C     0.80126   0.80683   0.63896   0.00000  Uiso   1.00
C662   C     0.86540   0.85984   0.36104   0.00000  Uiso   1.00
C663   C     0.83369   0.91252   0.49997   0.00000  Uiso   1.00
C664   C     0.73483   0.83298   0.48829   0.00000  Uiso   1.00
C665   C     0.93184   0.83369   0.51171   0.00000  Uiso   1.00
C666   C     0.68016   0.82811   0.48244   0.00000  Uiso   1.00
C667   C     0.98651   0.83855   0.51756   0.00000  Uiso   1.00
C668   C     0.79267   0.68694   0.47398   0.00000  Uiso   1.00
C669   C     0.87399   0.97972   0.52602   0.00000  Uiso   1.00
C670   C     0.79286   0.97716   0.47393   0.00000  Uiso   1.00
Cu671  Cu    0.83333   0.83334   0.54689   0.00000  Uiso   1.00
Cu672  Cu    0.83333   0.83333   0.45311   0.00000  Uiso   1.00
H673   H     0.77592   0.78605   0.37116   0.00000  Uiso   1.00
H674   H     0.89075   0.88062   0.62884   0.00000  Uiso   1.00
N675   N     0.83335   0.83334   0.61736   0.00000  Uiso   1.00
N676   N     0.83332   0.83332   0.38264   0.00000  Uiso   1.00
O677   O     0.83333   0.77322   0.53958   0.00000  Uiso   1.00
O678   O     0.83334   0.89345   0.46042   0.00000  Uiso   1.00
O679   O     0.83333   0.77321   0.46039   0.00000  Uiso   1.00
O680   O     0.83334   0.89346   0.53961   0.00000  Uiso   1.00
O681   O     0.75828   0.83334   0.53046   0.00000  Uiso   1.00
O682   O     0.90839   0.83333   0.46954   0.00000  Uiso   1.00
O683   O     0.75828   0.83333   0.45127   0.00000  Uiso   1.00
O684   O     0.90839   0.83334   0.54873   0.00000  Uiso   1.00
Br685  Br    0.31838   0.13407   0.75762   0.00000  Uiso   1.00
Br686  Br    0.01496   0.19927   0.90905   0.00000  Uiso   1.00
Br687  Br    0.06948   0.04809   0.77309   0.00000  Uiso   1.00
Br688  Br    0.26385   0.28525   0.89358   0.00000  Uiso   1.00
Br689  Br    0.06943   0.27893   0.77381   0.00000  Uiso   1.00
Br690  Br    0.26390   0.05440   0.89285   0.00000  Uiso   1.00
Br691  Br    0.08807   0.10103   0.93807   0.00000  Uiso   1.00
Br692  Br    0.24527   0.23230   0.72860   0.00000  Uiso   1.00
C693   C     0.16631   0.08748   0.83336   0.00000  Uiso   1.00
C694   C     0.20714   0.02284   0.85941   0.00000  Uiso   1.00
C695   C     0.16695   0.29048   0.83319   0.00000  Uiso   1.00
C696   C     0.16639   0.04286   0.83348   0.00000  Uiso   1.00
C697   C     0.13474   0.14038   0.68832   0.00000  Uiso   1.00
C698   C     0.19859   0.19295   0.97835   0.00000  Uiso   1.00
C699   C     0.13460   0.14016   0.97230   0.00000  Uiso   1.00
C700   C     0.19874   0.19317   0.69437   0.00000  Uiso   1.00
C701   C     0.16702   0.24585   0.83330   0.00000  Uiso   1.00
C702   C     0.06816   0.16631   0.82162   0.00000  Uiso   1.00
C703   C     0.26517   0.16702   0.84504   0.00000  Uiso   1.00
C704   C     0.01349   0.16145   0.81578   0.00000  Uiso   1.00
C705   C     0.31984   0.17189   0.85089   0.00000  Uiso   1.00
C706   C     0.12601   0.02028   0.80731   0.00000  Uiso   1.00
C707   C     0.20733   0.31306   0.85936   0.00000  Uiso   1.00
C708   C     0.12620   0.31050   0.80726   0.00000  Uiso   1.00
Cu709  Cu    0.16667   0.16667   0.88022   0.00000  Uiso   1.00
Cu710  Cu    0.16667   0.16666   0.78645   0.00000  Uiso   1.00
H711   H     0.10925   0.11938   0.70449   0.00000  Uiso   1.00
H712   H     0.22408   0.21395   0.96218   0.00000  Uiso   1.00
N713   N     0.16668   0.16668   0.95069   0.00000  Uiso   1.00
N714   N     0.16665   0.16666   0.71597   0.00000  Uiso   1.00
O715   O     0.16666   0.10655   0.87291   0.00000  Uiso   1.00
O716   O     0.16667   0.22678   0.79375   0.00000  Uiso   1.00
O717   O     0.16666   0.10654   0.79372   0.00000  Uiso   1.00
O718   O     0.16667   0.22679   0.87294   0.00000  Uiso   1.00
O719   O     0.09161   0.16667   0.86379   0.00000  Uiso   1.00
O720   O     0.24172   0.16666   0.80288   0.00000  Uiso   1.00
O721   O     0.09161   0.16666   0.78460   0.00000  Uiso   1.00
O722   O     0.24172   0.16667   0.88207   0.00000  Uiso   1.00
Br723  Br    0.65171   0.13407   0.75762   0.00000  Uiso   1.00
Br724  Br    0.34829   0.19927   0.90905   0.00000  Uiso   1.00
Br725  Br    0.40281   0.04809   0.77309   0.00000  Uiso   1.00
Br726  Br    0.59719   0.28525   0.89358   0.00000  Uiso   1.00
Br727  Br    0.40276   0.27893   0.77381   0.00000  Uiso   1.00
Br728  Br    0.59724   0.05440   0.89285   0.00000  Uiso   1.00
Br729  Br    0.42140   0.10103   0.93807   0.00000  Uiso   1.00
Br730  Br    0.57860   0.23230   0.72860   0.00000  Uiso   1.00
C731   C     0.49965   0.08748   0.83336   0.00000  Uiso   1.00
C732   C     0.54047   0.02284   0.85941   0.00000  Uiso   1.00
C733   C     0.50028   0.29048   0.83319   0.00000  Uiso   1.00
C734   C     0.49972   0.04286   0.83348   0.00000  Uiso   1.00
C735   C     0.46807   0.14038   0.68832   0.00000  Uiso   1.00
C736   C     0.53193   0.19295   0.97835   0.00000  Uiso   1.00
C737   C     0.46793   0.14016   0.97230   0.00000  Uiso   1.00
C738   C     0.53207   0.19317   0.69437   0.00000  Uiso   1.00
C739   C     0.50035   0.24585   0.83330   0.00000  Uiso   1.00
C740   C     0.40149   0.16631   0.82162   0.00000  Uiso   1.00
C741   C     0.59851   0.16702   0.84504   0.00000  Uiso   1.00
C742   C     0.34683   0.16145   0.81578   0.00000  Uiso   1.00
C743   C     0.65317   0.17189   0.85089   0.00000  Uiso   1.00
C744   C     0.45934   0.02028   0.80731   0.00000  Uiso   1.00
C745   C     0.54066   0.31306   0.85936   0.00000  Uiso   1.00
C746   C     0.45953   0.31050   0.80726   0.00000  Uiso   1.00
Cu747  Cu    0.50000   0.16667   0.88022   0.00000  Uiso   1.00
Cu748  Cu    0.50000   0.16666   0.78645   0.00000  Uiso   1.00
H749   H     0.44259   0.11938   0.70449   0.00000  Uiso   1.00
H750   H     0.55741   0.21395   0.96218   0.00000  Uiso   1.00
N751   N     0.50001   0.16668   0.95069   0.00000  Uiso   1.00
N752   N     0.49999   0.16666   0.71597   0.00000  Uiso   1.00
O753   O     0.50000   0.10655   0.87291   0.00000  Uiso   1.00
O754   O     0.50000   0.22678   0.79375   0.00000  Uiso   1.00
O755   O     0.50000   0.10654   0.79372   0.00000  Uiso   1.00
O756   O     0.50000   0.22679   0.87294   0.00000  Uiso   1.00
O757   O     0.42495   0.16667   0.86379   0.00000  Uiso   1.00
O758   O     0.57505   0.16666   0.80288   0.00000  Uiso   1.00
O759   O     0.42494   0.16666   0.78460   0.00000  Uiso   1.00
O760   O     0.57506   0.16667   0.88207   0.00000  Uiso   1.00
Br761  Br    0.98504   0.13407   0.75762   0.00000  Uiso   1.00
Br762  Br    0.68162   0.19927   0.90905   0.00000  Uiso   1.00
Br763  Br    0.73615   0.04809   0.77309   0.00000  Uiso   1.00
Br764  Br    0.93052   0.28525   0.89358   0.00000  Uiso   1.00
Br765  Br    0.73610   0.27893   0.77381   0.00000  Uiso   1.00
Br766  Br    0.93057   0.05440   0.89285   0.00000  Uiso   1.00
Br767  Br    0.75473   0.10103   0.93807   0.00000  Uiso   1.00
Br768  Br    0.91193   0.23230   0.72860   0.00000  Uiso   1.00
C769   C     0.83298   0.08748   0.83336   0.00000  Uiso   1.00
C770   C     0.87380   0.02284   0.85941   0.00000  Uiso   1.00
C771   C     0.83361   0.29048   0.83319   0.00000  Uiso   1.00
C772   C     0.83305   0.04286   0.83348   0.00000  Uiso   1.00
C773   C     0.80141   0.14038   0.68832   0.00000  Uiso   1.00
C774   C     0.86526   0.19295   0.97835   0.00000  Uiso   1.00
C775   C     0.80126   0.14016   0.97230   0.00000  Uiso   1.00
C776   C     0.86540   0.19317   0.69437   0.00000  Uiso   1.00
C777   C     0.83369   0.24585   0.83330   0.00000  Uiso   1.00
C778   C     0.73483   0.16631   0.82162   0.00000  Uiso   1.00
C779   C     0.93184   0.16702   0.84504   0.00000  Uiso   1.00
C780   C     0.68016   0.16145   0.81578   0.00000  Uiso   1.00
C781   C     0.98651   0.17189   0.85089   0.00000  Uiso   1.00
C782   C     0.79267   0.02028   0.80731   0.00000  Uiso   1.00
C783   C     0.87399   0.31306   0.85936   0.00000  Uiso   1.00
C784   C     0.79286   0.31050   0.80726   0.00000  Uiso   1.00
Cu785  Cu    0.83333   0.16667   0.88022   0.00000  Uiso   1.00
Cu786  Cu    0.83333   0.16666   0.78645   0.00000  Uiso   1.00
H787   H     0.77592   0.11938   0.70449   0.00000  Uiso   1.00
H788   H     0.89075   0.21395   0.96218   0.00000  Uiso   1.00
N789   N     0.83335   0.16668   0.95069   0.00000  Uiso   1.00
N790   N     0.83332   0.16666   0.71597   0.00000  Uiso   1.00
O791   O     0.83333   0.10655   0.87291   0.00000  Uiso   1.00
O792   O     0.83334   0.22678   0.79375   0.00000  Uiso   1.00
O793   O     0.83333   0.10654   0.79372   0.00000  Uiso   1.00
O794   O     0.83334   0.22679   0.87294   0.00000  Uiso   1.00
O795   O     0.75828   0.16667   0.86379   0.00000  Uiso   1.00
O796   O     0.90839   0.16666   0.80288   0.00000  Uiso   1.00
O797   O     0.75828   0.16666   0.78460   0.00000  Uiso   1.00
O798   O     0.90839   0.16667   0.88207   0.00000  Uiso   1.00
Br799  Br    0.31838   0.46740   0.75762   0.00000  Uiso   1.00
Br800  Br    0.01496   0.53260   0.90905   0.00000  Uiso   1.00
Br801  Br    0.06948   0.38142   0.77309   0.00000  Uiso   1.00
Br802  Br    0.26385   0.61858   0.89358   0.00000  Uiso   1.00
Br803  Br    0.06943   0.61227   0.77381   0.00000  Uiso   1.00
Br804  Br    0.26390   0.38773   0.89285   0.00000  Uiso   1.00
Br805  Br    0.08807   0.43436   0.93807   0.00000  Uiso   1.00
Br806  Br    0.24527   0.56564   0.72860   0.00000  Uiso   1.00
C807   C     0.16631   0.42082   0.83336   0.00000  Uiso   1.00
C808   C     0.20714   0.35617   0.85941   0.00000  Uiso   1.00
C809   C     0.16695   0.62381   0.83319   0.00000  Uiso   1.00
C810   C     0.16639   0.37619   0.83348   0.00000  Uiso   1.00
C811   C     0.13474   0.47372   0.68832   0.00000  Uiso   1.00
C812   C     0.19859   0.52628   0.97835   0.00000  Uiso   1.00
C813   C     0.13460   0.47349   0.97230   0.00000  Uiso   1.00
C814   C     0.19874   0.52651   0.69437   0.00000  Uiso   1.00
C815   C     0.16702   0.57918   0.83330   0.00000  Uiso   1.00
C816   C     0.06816   0.49964   0.82162   0.00000  Uiso   1.00
C817   C     0.26517   0.50036   0.84504   0.00000  Uiso   1.00
C818   C     0.01349   0.49478   0.81578   0.00000  Uiso   1.00
C819   C     0.31984   0.50522   0.85089   0.00000  Uiso   1.00
C820   C     0.12601   0.35361   0.80731   0.00000  Uiso   1.00
C821   C     0.20733   0.64639   0.85936   0.00000  Uiso   1.00
C822   C     0.12620   0.64383   0.80726   0.00000  Uiso   1.00
Cu823  Cu    0.16667   0.50001   0.88022   0.00000  Uiso   1.00
Cu824  Cu    0.16667   0.49999   0.78645   0.00000  Uiso   1.00
H825   H     0.10925   0.45271   0.70449   0.00000  Uiso   1.00
H826   H     0.22408   0.54729   0.96218   0.00000  Uiso   1.00
N827   N     0.16668   0.50001   0.95069   0.00000  Uiso   1.00
N828   N     0.16665   0.49999   0.71597   0.00000  Uiso   1.00
O829   O     0.16666   0.43989   0.87291   0.00000  Uiso   1.00
O830   O     0.16667   0.56011   0.79375   0.00000  Uiso   1.00
O831   O     0.16666   0.43988   0.79372   0.00000  Uiso   1.00
O832   O     0.16667   0.56012   0.87294   0.00000  Uiso   1.00
O833   O     0.09161   0.50000   0.86379   0.00000  Uiso   1.00
O834   O     0.24172   0.50000   0.80288   0.00000  Uiso   1.00
O835   O     0.09161   0.49999   0.78460   0.00000  Uiso   1.00
O836   O     0.24172   0.50001   0.88207   0.00000  Uiso   1.00
Br837  Br    0.65171   0.46740   0.75762   0.00000  Uiso   1.00
Br838  Br    0.34829   0.53260   0.90905   0.00000  Uiso   1.00
Br839  Br    0.40281   0.38142   0.77309   0.00000  Uiso   1.00
Br840  Br    0.59719   0.61858   0.89358   0.00000  Uiso   1.00
Br841  Br    0.40276   0.61227   0.77381   0.00000  Uiso   1.00
Br842  Br    0.59724   0.38773   0.89285   0.00000  Uiso   1.00
Br843  Br    0.42140   0.43436   0.93807   0.00000  Uiso   1.00
Br844  Br    0.57860   0.56564   0.72860   0.00000  Uiso   1.00
C845   C     0.49965   0.42082   0.83336   0.00000  Uiso   1.00
C846   C     0.54047   0.35617   0.85941   0.00000  Uiso   1.00
C847   C     0.50028   0.62381   0.83319   0.00000  Uiso   1.00
C848   C     0.49972   0.37619   0.83348   0.00000  Uiso   1.00
C849   C     0.46807   0.47372   0.68832   0.00000  Uiso   1.00
C850   C     0.53193   0.52628   0.97835   0.00000  Uiso   1.00
C851   C     0.46793   0.47349   0.97230   0.00000  Uiso   1.00
C852   C     0.53207   0.52651   0.69437   0.00000  Uiso   1.00
C853   C     0.50035   0.57918   0.83330   0.00000  Uiso   1.00
C854   C     0.40149   0.49964   0.82162   0.00000  Uiso   1.00
C855   C     0.59851   0.50036   0.84504   0.00000  Uiso   1.00
C856   C     0.34683   0.49478   0.81578   0.00000  Uiso   1.00
C857   C     0.65317   0.50522   0.85089   0.00000  Uiso   1.00
C858   C     0.45934   0.35361   0.80731   0.00000  Uiso   1.00
C859   C     0.54066   0.64639   0.85936   0.00000  Uiso   1.00
C860   C     0.45953   0.64383   0.80726   0.00000  Uiso   1.00
Cu861  Cu    0.50000   0.50001   0.88022   0.00000  Uiso   1.00
Cu862  Cu    0.50000   0.49999   0.78645   0.00000  Uiso   1.00
H863   H     0.44259   0.45271   0.70449   0.00000  Uiso   1.00
H864   H     0.55741   0.54729   0.96218   0.00000  Uiso   1.00
N865   N     0.50001   0.50001   0.95069   0.00000  Uiso   1.00
N866   N     0.49999   0.49999   0.71597   0.00000  Uiso   1.00
O867   O     0.50000   0.43989   0.87291   0.00000  Uiso   1.00
O868   O     0.50000   0.56011   0.79375   0.00000  Uiso   1.00
O869   O     0.50000   0.43988   0.79372   0.00000  Uiso   1.00
O870   O     0.50000   0.56012   0.87294   0.00000  Uiso   1.00
O871   O     0.42495   0.50000   0.86379   0.00000  Uiso   1.00
O872   O     0.57505   0.50000   0.80288   0.00000  Uiso   1.00
O873   O     0.42494   0.49999   0.78460   0.00000  Uiso   1.00
O874   O     0.57506   0.50001   0.88207   0.00000  Uiso   1.00
Br875  Br    0.98504   0.46740   0.75762   0.00000  Uiso   1.00
Br876  Br    0.68162   0.53260   0.90905   0.00000  Uiso   1.00
Br877  Br    0.73615   0.38142   0.77309   0.00000  Uiso   1.00
Br878  Br    0.93052   0.61858   0.89358   0.00000  Uiso   1.00
Br879  Br    0.73610   0.61227   0.77381   0.00000  Uiso   1.00
Br880  Br    0.93057   0.38773   0.89285   0.00000  Uiso   1.00
Br881  Br    0.75473   0.43436   0.93807   0.00000  Uiso   1.00
Br882  Br    0.91193   0.56564   0.72860   0.00000  Uiso   1.00
C883   C     0.83298   0.42082   0.83336   0.00000  Uiso   1.00
C884   C     0.87380   0.35617   0.85941   0.00000  Uiso   1.00
C885   C     0.83361   0.62381   0.83319   0.00000  Uiso   1.00
C886   C     0.83305   0.37619   0.83348   0.00000  Uiso   1.00
C887   C     0.80141   0.47372   0.68832   0.00000  Uiso   1.00
C888   C     0.86526   0.52628   0.97835   0.00000  Uiso   1.00
C889   C     0.80126   0.47349   0.97230   0.00000  Uiso   1.00
C890   C     0.86540   0.52651   0.69437   0.00000  Uiso   1.00
C891   C     0.83369   0.57918   0.83330   0.00000  Uiso   1.00
C892   C     0.73483   0.49964   0.82162   0.00000  Uiso   1.00
C893   C     0.93184   0.50036   0.84504   0.00000  Uiso   1.00
C894   C     0.68016   0.49478   0.81578   0.00000  Uiso   1.00
C895   C     0.98651   0.50522   0.85089   0.00000  Uiso   1.00
C896   C     0.79267   0.35361   0.80731   0.00000  Uiso   1.00
C897   C     0.87399   0.64639   0.85936   0.00000  Uiso   1.00
C898   C     0.79286   0.64383   0.80726   0.00000  Uiso   1.00
Cu899  Cu    0.83333   0.50001   0.88022   0.00000  Uiso   1.00
Cu900  Cu    0.83333   0.49999   0.78645   0.00000  Uiso   1.00
H901   H     0.77592   0.45271   0.70449   0.00000  Uiso   1.00
H902   H     0.89075   0.54729   0.96218   0.00000  Uiso   1.00
N903   N     0.83335   0.50001   0.95069   0.00000  Uiso   1.00
N904   N     0.83332   0.49999   0.71597   0.00000  Uiso   1.00
O905   O     0.83333   0.43989   0.87291   0.00000  Uiso   1.00
O906   O     0.83334   0.56011   0.79375   0.00000  Uiso   1.00
O907   O     0.83333   0.43988   0.79372   0.00000  Uiso   1.00
O908   O     0.83334   0.56012   0.87294   0.00000  Uiso   1.00
O909   O     0.75828   0.50000   0.86379   0.00000  Uiso   1.00
O910   O     0.90839   0.50000   0.80288   0.00000  Uiso   1.00
O911   O     0.75828   0.49999   0.78460   0.00000  Uiso   1.00
O912   O     0.90839   0.50001   0.88207   0.00000  Uiso   1.00
Br913  Br    0.31838   0.80073   0.75762   0.00000  Uiso   1.00
Br914  Br    0.01496   0.86593   0.90905   0.00000  Uiso   1.00
Br915  Br    0.06948   0.71475   0.77309   0.00000  Uiso   1.00
Br916  Br    0.26385   0.95192   0.89358   0.00000  Uiso   1.00
Br917  Br    0.06943   0.94560   0.77381   0.00000  Uiso   1.00
Br918  Br    0.26390   0.72107   0.89285   0.00000  Uiso   1.00
Br919  Br    0.08807   0.76770   0.93807   0.00000  Uiso   1.00
Br920  Br    0.24527   0.89897   0.72860   0.00000  Uiso   1.00
C921   C     0.16631   0.75415   0.83336   0.00000  Uiso   1.00
C922   C     0.20714   0.68950   0.85941   0.00000  Uiso   1.00
C923   C     0.16695   0.95714   0.83319   0.00000  Uiso   1.00
C924   C     0.16639   0.70952   0.83348   0.00000  Uiso   1.00
C925   C     0.13474   0.80705   0.68832   0.00000  Uiso   1.00
C926   C     0.19859   0.85962   0.97835   0.00000  Uiso   1.00
C927   C     0.13460   0.80683   0.97230   0.00000  Uiso   1.00
C928   C     0.19874   0.85984   0.69437   0.00000  Uiso   1.00
C929   C     0.16702   0.91252   0.83330   0.00000  Uiso   1.00
C930   C     0.06816   0.83298   0.82162   0.00000  Uiso   1.00
C931   C     0.26517   0.83369   0.84504   0.00000  Uiso   1.00
C932   C     0.01349   0.82811   0.81578   0.00000  Uiso   1.00
C933   C     0.31984   0.83855   0.85089   0.00000  Uiso   1.00
C934   C     0.12601   0.68694   0.80731   0.00000  Uiso   1.00
C935   C     0.20733   0.97972   0.85936   0.00000  Uiso   1.00
C936   C     0.12620   0.97716   0.80726   0.00000  Uiso   1.00
Cu937  Cu    0.16667   0.83334   0.88022   0.00000  Uiso   1.00
Cu938  Cu    0.16667   0.83333   0.78645   0.00000  Uiso   1.00
H939   H     0.10925   0.78605   0.70449   0.00000  Uiso   1.00
H940   H     0.22408   0.88062   0.96218   0.00000  Uiso   1.00
N941   N     0.16668   0.83334   0.95069   0.00000  Uiso   1.00
N942   N     0.16665   0.83332   0.71597   0.00000  Uiso   1.00
O943   O     0.16666   0.77322   0.87291   0.00000  Uiso   1.00
O944   O     0.16667   0.89345   0.79375   0.00000  Uiso   1.00
O945   O     0.16666   0.77321   0.79372   0.00000  Uiso   1.00
O946   O     0.16667   0.89346   0.87294   0.00000  Uiso   1.00
O947   O     0.09161   0.83334   0.86379   0.00000  Uiso   1.00
O948   O     0.24172   0.83333   0.80288   0.00000  Uiso   1.00
O949   O     0.09161   0.83333   0.78460   0.00000  Uiso   1.00
O950   O     0.24172   0.83334   0.88207   0.00000  Uiso   1.00
Br951  Br    0.65171   0.80073   0.75762   0.00000  Uiso   1.00
Br952  Br    0.34829   0.86593   0.90905   0.00000  Uiso   1.00
Br953  Br    0.40281   0.71475   0.77309   0.00000  Uiso   1.00
Br954  Br    0.59719   0.95192   0.89358   0.00000  Uiso   1.00
Br955  Br    0.40276   0.94560   0.77381   0.00000  Uiso   1.00
Br956  Br    0.59724   0.72107   0.89285   0.00000  Uiso   1.00
Br957  Br    0.42140   0.76770   0.93807   0.00000  Uiso   1.00
Br958  Br    0.57860   0.89897   0.72860   0.00000  Uiso   1.00
C959   C     0.49965   0.75415   0.83336   0.00000  Uiso   1.00
C960   C     0.54047   0.68950   0.85941   0.00000  Uiso   1.00
C961   C     0.50028   0.95714   0.83319   0.00000  Uiso   1.00
C962   C     0.49972   0.70952   0.83348   0.00000  Uiso   1.00
C963   C     0.46807   0.80705   0.68832   0.00000  Uiso   1.00
C964   C     0.53193   0.85962   0.97835   0.00000  Uiso   1.00
C965   C     0.46793   0.80683   0.97230   0.00000  Uiso   1.00
C966   C     0.53207   0.85984   0.69437   0.00000  Uiso   1.00
C967   C     0.50035   0.91252   0.83330   0.00000  Uiso   1.00
C968   C     0.40149   0.83298   0.82162   0.00000  Uiso   1.00
C969   C     0.59851   0.83369   0.84504   0.00000  Uiso   1.00
C970   C     0.34683   0.82811   0.81578   0.00000  Uiso   1.00
C971   C     0.65317   0.83855   0.85089   0.00000  Uiso   1.00
C972   C     0.45934   0.68694   0.80731   0.00000  Uiso   1.00
C973   C     0.54066   0.97972   0.85936   0.00000  Uiso   1.00
C974   C     0.45953   0.97716   0.80726   0.00000  Uiso   1.00
Cu975  Cu    0.50000   0.83334   0.88022   0.00000  Uiso   1.00
Cu976  Cu    0.50000   0.83333   0.78645   0.00000  Uiso   1.00
H977   H     0.44259   0.78605   0.70449   0.00000  Uiso   1.00
H978   H     0.55741   0.88062   0.96218   0.00000  Uiso   1.00
N979   N     0.50001   0.83334   0.95069   0.00000  Uiso   1.00
N980   N     0.49999   0.83332   0.71597   0.00000  Uiso   1.00
O981   O     0.50000   0.77322   0.87291   0.00000  Uiso   1.00
O982   O     0.50000   0.89345   0.79375   0.00000  Uiso   1.00
O983   O     0.50000   0.77321   0.79372   0.00000  Uiso   1.00
O984   O     0.50000   0.89346   0.87294   0.00000  Uiso   1.00
O985   O     0.42495   0.83334   0.86379   0.00000  Uiso   1.00
O986   O     0.57505   0.83333   0.80288   0.00000  Uiso   1.00
O987   O     0.42494   0.83333   0.78460   0.00000  Uiso   1.00
O988   O     0.57506   0.83334   0.88207   0.00000  Uiso   1.00
Br989  Br    0.98504   0.80073   0.75762   0.00000  Uiso   1.00
Br990  Br    0.68162   0.86593   0.90905   0.00000  Uiso   1.00
Br991  Br    0.73615   0.71475   0.77309   0.00000  Uiso   1.00
Br992  Br    0.93052   0.95192   0.89358   0.00000  Uiso   1.00
Br993  Br    0.73610   0.94560   0.77381   0.00000  Uiso   1.00
Br994  Br    0.93057   0.72107   0.89285   0.00000  Uiso   1.00
Br995  Br    0.75473   0.76770   0.93807   0.00000  Uiso   1.00
Br996  Br    0.91193   0.89897   0.72860   0.00000  Uiso   1.00
C997   C     0.83298   0.75415   0.83336   0.00000  Uiso   1.00
C998   C     0.87380   0.68950   0.85941   0.00000  Uiso   1.00
C999   C     0.83361   0.95714   0.83319   0.00000  Uiso   1.00
C1000  C     0.83305   0.70952   0.83348   0.00000  Uiso   1.00
C1001  C     0.80141   0.80705   0.68832   0.00000  Uiso   1.00
C1002  C     0.86526   0.85962   0.97835   0.00000  Uiso   1.00
C1003  C     0.80126   0.80683   0.97230   0.00000  Uiso   1.00
C1004  C     0.86540   0.85984   0.69437   0.00000  Uiso   1.00
C1005  C     0.83369   0.91252   0.83330   0.00000  Uiso   1.00
C1006  C     0.73483   0.83298   0.82162   0.00000  Uiso   1.00
C1007  C     0.93184   0.83369   0.84504   0.00000  Uiso   1.00
C1008  C     0.68016   0.82811   0.81578   0.00000  Uiso   1.00
C1009  C     0.98651   0.83855   0.85089   0.00000  Uiso   1.00
C1010  C     0.79267   0.68694   0.80731   0.00000  Uiso   1.00
C1011  C     0.87399   0.97972   0.85936   0.00000  Uiso   1.00
C1012  C     0.79286   0.97716   0.80726   0.00000  Uiso   1.00
Cu1013 Cu    0.83333   0.83334   0.88022   0.00000  Uiso   1.00
Cu1014 Cu    0.83333   0.83333   0.78645   0.00000  Uiso   1.00
H1015  H     0.77592   0.78605   0.70449   0.00000  Uiso   1.00
H1016  H     0.89075   0.88062   0.96218   0.00000  Uiso   1.00
N1017  N     0.83335   0.83334   0.95069   0.00000  Uiso   1.00
N1018  N     0.83332   0.83332   0.71597   0.00000  Uiso   1.00
O1019  O     0.83333   0.77322   0.87291   0.00000  Uiso   1.00
O1020  O     0.83334   0.89345   0.79375   0.00000  Uiso   1.00
O1021  O     0.83333   0.77321   0.79372   0.00000  Uiso   1.00
O1022  O     0.83334   0.89346   0.87294   0.00000  Uiso   1.00
O1023  O     0.75828   0.83334   0.86379   0.00000  Uiso   1.00
O1024  O     0.90839   0.83333   0.80288   0.00000  Uiso   1.00
O1025  O     0.75828   0.83333   0.78460   0.00000  Uiso   1.00
O1026  O     0.90839   0.83334   0.88207   0.00000  Uiso   1.00
loop_
_geom_bond_atom_site_label_1
_geom_bond_atom_site_label_2
_geom_bond_distance
_geom_bond_site_symmetry_2
_ccdc_geom_bond_type
Br1    C58     1.944   .     S
Br2    C97     1.944   1_455 S
Br3    C22     1.929   .     S
Br4    C23     1.929   .     S
Br5    C24     1.934   .     S
Br6    C10     1.934   .     S
Br7    C15     1.915   .     S
Br8    C16     1.915   .     S
C9     O33     1.290   .     A
C9     C12     1.444   .     S
C9     O31     1.293   .     A
C10    C12     1.405   .     A
C10    C251    1.395   1_545 S
C11    C24     1.405   .     A
C11    C23     1.407   .     A
C11    C17     1.444   .     S
C12    C22     1.407   .     A
C13    N30     1.359   .     A
C13    H27     1.082   .     S
C13    C699    1.414   1_554 S
C14    N29     1.359   .     A
C14    H28     1.082   .     S
C14    C358    1.414   .     S
C15    N29     1.381   .     A
C15    C355    1.414   .     S
C16    N30     1.381   .     A
C16    C698    1.414   1_554 S
C17    O34     1.290   .     A
C17    O32     1.293   .     A
C18    O35     1.286   .     A
C18    O37     1.294   .     A
C18    C20     1.435   .     S
C19    O38     1.294   .     A
C19    C21     1.435   .     S
C19    O36     1.286   .     A
C20    Br77    1.944   1_455 S
C20    C97     1.356   1_455 S
C21    C58     1.356   .     S
C21    Br40    1.944   .     S
C22    C252    1.395   1_545 S
C23    C124    1.395   .     S
C24    C136    1.395   .     S
Cu25   O34     1.955   .     S
Cu25   O35     1.978   .     S
Cu25   N29     2.020   .     S
Cu25   O38     1.976   .     S
Cu25   Cu26    2.688   .     S
Cu25   O31     1.958   .     S
Cu26   O37     1.976   .     S
Cu26   N30     2.020   .     S
Cu26   O33     1.955   .     S
Cu26   O36     1.978   .     S
Cu26   O32     1.958   .     S
Br39   C96     1.944   .     S
Br41   C60     1.929   .     S
Br42   C61     1.929   .     S
Br43   C62     1.934   .     S
Br44   C48     1.934   .     S
Br45   C53     1.915   .     S
Br46   C54     1.915   .     S
C47    O71     1.290   .     A
C47    C50     1.444   .     S
C47    O69     1.293   .     A
C48    C50     1.405   .     A
C48    C289    1.395   1_545 S
C49    C62     1.405   .     A
C49    C61     1.407   .     A
C49    C55     1.444   .     S
C50    C60     1.407   .     A
C51    N68     1.359   .     A
C51    H65     1.082   .     S
C51    C737    1.414   1_554 S
C52    N67     1.359   .     A
C52    H66     1.082   .     S
C52    C396    1.414   .     S
C53    N67     1.381   .     A
C53    C393    1.414   .     S
C54    N68     1.381   .     A
C54    C736    1.414   1_554 S
C55    O72     1.290   .     A
C55    O70     1.293   .     A
C56    O73     1.286   .     A
C56    O75     1.294   .     A
C56    C58     1.435   .     S
C57    O76     1.294   .     A
C57    C59     1.435   .     S
C57    O74     1.286   .     A
C59    C96     1.356   .     S
C59    Br78    1.944   .     S
C60    C290    1.395   1_545 S
C61    C162    1.395   .     S
C62    C174    1.395   .     S
Cu63   O72     1.955   .     S
Cu63   O73     1.978   .     S
Cu63   N67     2.020   .     S
Cu63   O76     1.976   .     S
Cu63   Cu64    2.688   .     S
Cu63   O69     1.958   .     S
Cu64   O75     1.976   .     S
Cu64   N68     2.020   .     S
Cu64   O71     1.955   .     S
Cu64   O74     1.978   .     S
Cu64   O70     1.958   .     S
Br77   C20     1.944   1_655 S
Br79   C98     1.929   .     S
Br80   C99     1.929   .     S
Br81   C100    1.934   .     S
Br82   C86     1.934   .     S
Br83   C91     1.915   .     S
Br84   C92     1.915   .     S
C85    O109    1.290   .     A
C85    C88     1.444   .     S
C85    O107    1.293   .     A
C86    C88     1.405   .     A
C86    C327    1.395   1_545 S
C87    C100    1.405   .     A
C87    C99     1.407   .     A
C87    C93     1.444   .     S
C88    C98     1.407   .     A
C89    N106    1.359   .     A
C89    H103    1.082   .     S
C89    C775    1.414   1_554 S
C90    N105    1.359   .     A
C90    H104    1.082   .     S
C90    C434    1.414   .     S
C91    N105    1.381   .     A
C91    C431    1.414   .     S
C92    N106    1.381   .     A
C92    C774    1.414   1_554 S
C93    O110    1.290   .     A
C93    O108    1.293   .     A
C94    O111    1.286   .     A
C94    O113    1.294   .     A
C94    C96     1.435   .     S
C95    O114    1.294   .     A
C95    C97     1.435   .     S
C95    O112    1.286   .     A
C97    C20     1.356   1_655 S
C97    Br2     1.944   1_655 S
C98    C328    1.395   1_545 S
C99    C200    1.395   .     S
C100   C212    1.395   .     S
Cu101  O110    1.955   .     S
Cu101  O111    1.978   .     S
Cu101  N105    2.020   .     S
Cu101  O114    1.976   .     S
Cu101  Cu102   2.688   .     S
Cu101  O107    1.958   .     S
Cu102  O113    1.976   .     S
Cu102  N106    2.020   .     S
Cu102  O109    1.955   .     S
Cu102  O112    1.978   .     S
Cu102  O108    1.958   .     S
Br115  C172    1.944   .     S
Br116  C211    1.944   1_455 S
Br117  C136    1.929   .     S
Br118  C137    1.929   .     S
Br119  C138    1.934   .     S
Br120  C124    1.934   .     S
Br121  C129    1.915   .     S
Br122  C130    1.915   .     S
C123   O147    1.290   .     A
C123   C126    1.444   .     S
C123   O145    1.293   .     A
C124   C126    1.405   .     A
C125   C138    1.405   .     A
C125   C137    1.407   .     A
C125   C131    1.444   .     S
C126   C136    1.407   .     A
C127   N144    1.359   .     A
C127   H141    1.082   .     S
C127   C813    1.414   1_554 S
C128   N143    1.359   .     A
C128   H142    1.082   .     S
C128   C472    1.414   .     S
C129   N143    1.381   .     A
C129   C469    1.414   .     S
C130   N144    1.381   .     A
C130   C812    1.414   1_554 S
C131   O148    1.290   .     A
C131   O146    1.293   .     A
C132   O149    1.286   .     A
C132   O151    1.294   .     A
C132   C134    1.435   .     S
C133   O152    1.294   .     A
C133   C135    1.435   .     S
C133   O150    1.286   .     A
C134   Br191   1.944   1_455 S
C134   C211    1.356   1_455 S
C135   C172    1.356   .     S
C135   Br154   1.944   .     S
C137   C238    1.395   .     S
C138   C250    1.395   .     S
Cu139  O148    1.955   .     S
Cu139  O149    1.978   .     S
Cu139  N143    2.020   .     S
Cu139  O152    1.976   .     S
Cu139  Cu140   2.688   .     S
Cu139  O145    1.958   .     S
Cu140  O151    1.976   .     S
Cu140  N144    2.020   .     S
Cu140  O147    1.955   .     S
Cu140  O150    1.978   .     S
Cu140  O146    1.958   .     S
Br153  C210    1.944   .     S
Br155  C174    1.929   .     S
Br156  C175    1.929   .     S
Br157  C176    1.934   .     S
Br158  C162    1.934   .     S
Br159  C167    1.915   .     S
Br160  C168    1.915   .     S
C161   O185    1.290   .     A
C161   C164    1.444   .     S
C161   O183    1.293   .     A
C162   C164    1.405   .     A
C163   C176    1.405   .     A
C163   C175    1.407   .     A
C163   C169    1.444   .     S
C164   C174    1.407   .     A
C165   N182    1.359   .     A
C165   H179    1.082   .     S
C165   C851    1.414   1_554 S
C166   N181    1.359   .     A
C166   H180    1.082   .     S
C166   C510    1.414   .     S
C167   N181    1.381   .     A
C167   C507    1.414   .     S
C168   N182    1.381   .     A
C168   C850    1.414   1_554 S
C169   O186    1.290   .     A
C169   O184    1.293   .     A
C170   O187    1.286   .     A
C170   O189    1.294   .     A
C170   C172    1.435   .     S
C171   O190    1.294   .     A
C171   C173    1.435   .     S
C171   O188    1.286   .     A
C173   C210    1.356   .     S
C173   Br192   1.944   .     S
C175   C276    1.395   .     S
C176   C288    1.395   .     S
Cu177  O186    1.955   .     S
Cu177  O187    1.978   .     S
Cu177  N181    2.020   .     S
Cu177  O190    1.976   .     S
Cu177  Cu178   2.688   .     S
Cu177  O183    1.958   .     S
Cu178  O189    1.976   .     S
Cu178  N182    2.020   .     S
Cu178  O185    1.955   .     S
Cu178  O188    1.978   .     S
Cu178  O184    1.958   .     S
Br191  C134    1.944   1_655 S
Br193  C212    1.929   .     S
Br194  C213    1.929   .     S
Br195  C214    1.934   .     S
Br196  C200    1.934   .     S
Br197  C205    1.915   .     S
Br198  C206    1.915   .     S
C199   O223    1.290   .     A
C199   C202    1.444   .     S
C199   O221    1.293   .     A
C200   C202    1.405   .     A
C201   C214    1.405   .     A
C201   C213    1.407   .     A
C201   C207    1.444   .     S
C202   C212    1.407   .     A
C203   N220    1.359   .     A
C203   H217    1.082   .     S
C203   C889    1.414   1_554 S
C204   N219    1.359   .     A
C204   H218    1.082   .     S
C204   C548    1.414   .     S
C205   N219    1.381   .     A
C205   C545    1.414   .     S
C206   N220    1.381   .     A
C206   C888    1.414   1_554 S
C207   O224    1.290   .     A
C207   O222    1.293   .     A
C208   O225    1.286   .     A
C208   O227    1.294   .     A
C208   C210    1.435   .     S
C209   O228    1.294   .     A
C209   C211    1.435   .     S
C209   O226    1.286   .     A
C211   C134    1.356   1_655 S
C211   Br116   1.944   1_655 S
C213   C314    1.395   .     S
C214   C326    1.395   .     S
Cu215  O224    1.955   .     S
Cu215  O225    1.978   .     S
Cu215  N219    2.020   .     S
Cu215  O228    1.976   .     S
Cu215  Cu216   2.688   .     S
Cu215  O221    1.958   .     S
Cu216  O227    1.976   .     S
Cu216  N220    2.020   .     S
Cu216  O223    1.955   .     S
Cu216  O226    1.978   .     S
Cu216  O222    1.958   .     S
Br229  C286    1.944   .     S
Br230  C325    1.944   1_455 S
Br231  C250    1.929   .     S
Br232  C251    1.929   .     S
Br233  C252    1.934   .     S
Br234  C238    1.934   .     S
Br235  C243    1.915   .     S
Br236  C244    1.915   .     S
C237   O261    1.290   .     A
C237   C240    1.444   .     S
C237   O259    1.293   .     A
C238   C240    1.405   .     A
C239   C252    1.405   .     A
C239   C251    1.407   .     A
C239   C245    1.444   .     S
C240   C250    1.407   .     A
C241   N258    1.359   .     A
C241   H255    1.082   .     S
C241   C927    1.414   1_554 S
C242   N257    1.359   .     A
C242   H256    1.082   .     S
C242   C586    1.414   .     S
C243   N257    1.381   .     A
C243   C583    1.414   .     S
C244   N258    1.381   .     A
C244   C926    1.414   1_554 S
C245   O262    1.290   .     A
C245   O260    1.293   .     A
C246   O263    1.286   .     A
C246   O265    1.294   .     A
C246   C248    1.435   .     S
C247   O266    1.294   .     A
C247   C249    1.435   .     S
C247   O264    1.286   .     A
C248   Br305   1.944   1_455 S
C248   C325    1.356   1_455 S
C249   C286    1.356   .     S
C249   Br268   1.944   .     S
C251   C10     1.395   1_565 S
C252   C22     1.395   1_565 S
Cu253  O262    1.955   .     S
Cu253  O263    1.978   .     S
Cu253  N257    2.020   .     S
Cu253  O266    1.976   .     S
Cu253  Cu254   2.688   .     S
Cu253  O259    1.958   .     S
Cu254  O265    1.976   .     S
Cu254  N258    2.020   .     S
Cu254  O261    1.955   .     S
Cu254  O264    1.978   .     S
Cu254  O260    1.958   .     S
Br267  C324    1.944   .     S
Br269  C288    1.929   .     S
Br270  C289    1.929   .     S
Br271  C290    1.934   .     S
Br272  C276    1.934   .     S
Br273  C281    1.915   .     S
Br274  C282    1.915   .     S
C275   O299    1.290   .     A
C275   C278    1.444   .     S
C275   O297    1.293   .     A
C276   C278    1.405   .     A
C277   C290    1.405   .     A
C277   C289    1.407   .     A
C277   C283    1.444   .     S
C278   C288    1.407   .     A
C279   N296    1.359   .     A
C279   H293    1.082   .     S
C279   C965    1.414   1_554 S
C280   N295    1.359   .     A
C280   H294    1.082   .     S
C280   C624    1.414   .     S
C281   N295    1.381   .     A
C281   C621    1.414   .     S
C282   N296    1.381   .     A
C282   C964    1.414   1_554 S
C283   O300    1.290   .     A
C283   O298    1.293   .     A
C284   O301    1.286   .     A
C284   O303    1.294   .     A
C284   C286    1.435   .     S
C285   O304    1.294   .     A
C285   C287    1.435   .     S
C285   O302    1.286   .     A
C287   C324    1.356   .     S
C287   Br306   1.944   .     S
C289   C48     1.395   1_565 S
C290   C60     1.395   1_565 S
Cu291  O300    1.955   .     S
Cu291  O301    1.978   .     S
Cu291  N295    2.020   .     S
Cu291  O304    1.976   .     S
Cu291  Cu292   2.688   .     S
Cu291  O297    1.958   .     S
Cu292  O303    1.976   .     S
Cu292  N296    2.020   .     S
Cu292  O299    1.955   .     S
Cu292  O302    1.978   .     S
Cu292  O298    1.958   .     S
Br305  C248    1.944   1_655 S
Br307  C326    1.929   .     S
Br308  C327    1.929   .     S
Br309  C328    1.934   .     S
Br310  C314    1.934   .     S
Br311  C319    1.915   .     S
Br312  C320    1.915   .     S
C313   O337    1.290   .     A
C313   C316    1.444   .     S
C313   O335    1.293   .     A
C314   C316    1.405   .     A
C315   C328    1.405   .     A
C315   C327    1.407   .     A
C315   C321    1.444   .     S
C316   C326    1.407   .     A
C317   N334    1.359   .     A
C317   H331    1.082   .     S
C317   C1003   1.414   1_554 S
C318   N333    1.359   .     A
C318   H332    1.082   .     S
C318   C662    1.414   .     S
C319   N333    1.381   .     A
C319   C659    1.414   .     S
C320   N334    1.381   .     A
C320   C1002   1.414   1_554 S
C321   O338    1.290   .     A
C321   O336    1.293   .     A
C322   O339    1.286   .     A
C322   O341    1.294   .     A
C322   C324    1.435   .     S
C323   O342    1.294   .     A
C323   C325    1.435   .     S
C323   O340    1.286   .     A
C325   C248    1.356   1_655 S
C325   Br230   1.944   1_655 S
C327   C86     1.395   1_565 S
C328   C98     1.395   1_565 S
Cu329  O338    1.955   .     S
Cu329  O339    1.978   .     S
Cu329  N333    2.020   .     S
Cu329  O342    1.976   .     S
Cu329  Cu330   2.688   .     S
Cu329  O335    1.958   .     S
Cu330  O341    1.976   .     S
Cu330  N334    2.020   .     S
Cu330  O337    1.955   .     S
Cu330  O340    1.978   .     S
Cu330  O336    1.958   .     S
Br343  C400    1.944   .     S
Br344  C439    1.944   1_455 S
Br345  C364    1.929   .     S
Br346  C365    1.929   .     S
Br347  C366    1.934   .     S
Br348  C352    1.934   .     S
Br349  C357    1.915   .     S
Br350  C358    1.915   .     S
C351   O375    1.290   .     A
C351   C354    1.444   .     S
C351   O373    1.293   .     A
C352   C354    1.405   .     A
C352   C593    1.395   1_545 S
C353   C366    1.405   .     A
C353   C365    1.407   .     A
C353   C359    1.444   .     S
C354   C364    1.407   .     A
C355   N372    1.359   .     A
C355   H369    1.082   .     S
C356   N371    1.359   .     A
C356   H370    1.082   .     S
C356   C700    1.414   .     S
C357   N371    1.381   .     A
C357   C697    1.414   .     S
C358   N372    1.381   .     A
C359   O376    1.290   .     A
C359   O374    1.293   .     A
C360   O377    1.286   .     A
C360   O379    1.294   .     A
C360   C362    1.435   .     S
C361   O380    1.294   .     A
C361   C363    1.435   .     S
C361   O378    1.286   .     A
C362   Br419   1.944   1_455 S
C362   C439    1.356   1_455 S
C363   C400    1.356   .     S
C363   Br382   1.944   .     S
C364   C594    1.395   1_545 S
C365   C466    1.395   .     S
C366   C478    1.395   .     S
Cu367  O376    1.955   .     S
Cu367  O377    1.978   .     S
Cu367  N371    2.020   .     S
Cu367  O380    1.976   .     S
Cu367  Cu368   2.688   .     S
Cu367  O373    1.958   .     S
Cu368  O379    1.976   .     S
Cu368  N372    2.020   .     S
Cu368  O375    1.955   .     S
Cu368  O378    1.978   .     S
Cu368  O374    1.958   .     S
Br381  C438    1.944   .     S
Br383  C402    1.929   .     S
Br384  C403    1.929   .     S
Br385  C404    1.934   .     S
Br386  C390    1.934   .     S
Br387  C395    1.915   .     S
Br388  C396    1.915   .     S
C389   O413    1.290   .     A
C389   C392    1.444   .     S
C389   O411    1.293   .     A
C390   C392    1.405   .     A
C390   C631    1.395   1_545 S
C391   C404    1.405   .     A
C391   C403    1.407   .     A
C391   C397    1.444   .     S
C392   C402    1.407   .     A
C393   N410    1.359   .     A
C393   H407    1.082   .     S
C394   N409    1.359   .     A
C394   H408    1.082   .     S
C394   C738    1.414   .     S
C395   N409    1.381   .     A
C395   C735    1.414   .     S
C396   N410    1.381   .     A
C397   O414    1.290   .     A
C397   O412    1.293   .     A
C398   O415    1.286   .     A
C398   O417    1.294   .     A
C398   C400    1.435   .     S
C399   O418    1.294   .     A
C399   C401    1.435   .     S
C399   O416    1.286   .     A
C401   C438    1.356   .     S
C401   Br420   1.944   .     S
C402   C632    1.395   1_545 S
C403   C504    1.395   .     S
C404   C516    1.395   .     S
Cu405  O414    1.955   .     S
Cu405  O415    1.978   .     S
Cu405  N409    2.020   .     S
Cu405  O418    1.976   .     S
Cu405  Cu406   2.688   .     S
Cu405  O411    1.958   .     S
Cu406  O417    1.976   .     S
Cu406  N410    2.020   .     S
Cu406  O413    1.955   .     S
Cu406  O416    1.978   .     S
Cu406  O412    1.958   .     S
Br419  C362    1.944   1_655 S
Br421  C440    1.929   .     S
Br422  C441    1.929   .     S
Br423  C442    1.934   .     S
Br424  C428    1.934   .     S
Br425  C433    1.915   .     S
Br426  C434    1.915   .     S
C427   O451    1.290   .     A
C427   C430    1.444   .     S
C427   O449    1.293   .     A
C428   C430    1.405   .     A
C428   C669    1.395   1_545 S
C429   C442    1.405   .     A
C429   C441    1.407   .     A
C429   C435    1.444   .     S
C430   C440    1.407   .     A
C431   N448    1.359   .     A
C431   H445    1.082   .     S
C432   N447    1.359   .     A
C432   H446    1.082   .     S
C432   C776    1.414   .     S
C433   N447    1.381   .     A
C433   C773    1.414   .     S
C434   N448    1.381   .     A
C435   O452    1.290   .     A
C435   O450    1.293   .     A
C436   O453    1.286   .     A
C436   O455    1.294   .     A
C436   C438    1.435   .     S
C437   O456    1.294   .     A
C437   C439    1.435   .     S
C437   O454    1.286   .     A
C439   C362    1.356   1_655 S
C439   Br344   1.944   1_655 S
C440   C670    1.395   1_545 S
C441   C542    1.395   .     S
C442   C554    1.395   .     S
Cu443  O452    1.955   .     S
Cu443  O453    1.978   .     S
Cu443  N447    2.020   .     S
Cu443  O456    1.976   .     S
Cu443  Cu444   2.688   .     S
Cu443  O449    1.958   .     S
Cu444  O455    1.976   .     S
Cu444  N448    2.020   .     S
Cu444  O451    1.955   .     S
Cu444  O454    1.978   .     S
Cu444  O450    1.958   .     S
Br457  C514    1.944   .     S
Br458  C553    1.944   1_455 S
Br459  C478    1.929   .     S
Br460  C479    1.929   .     S
Br461  C480    1.934   .     S
Br462  C466    1.934   .     S
Br463  C471    1.915   .     S
Br464  C472    1.915   .     S
C465   O489    1.290   .     A
C465   C468    1.444   .     S
C465   O487    1.293   .     A
C466   C468    1.405   .     A
C467   C480    1.405   .     A
C467   C479    1.407   .     A
C467   C473    1.444   .     S
C468   C478    1.407   .     A
C469   N486    1.359   .     A
C469   H483    1.082   .     S
C470   N485    1.359   .     A
C470   H484    1.082   .     S
C470   C814    1.414   .     S
C471   N485    1.381   .     A
C471   C811    1.414   .     S
C472   N486    1.381   .     A
C473   O490    1.290   .     A
C473   O488    1.293   .     A
C474   O491    1.286   .     A
C474   O493    1.294   .     A
C474   C476    1.435   .     S
C475   O494    1.294   .     A
C475   C477    1.435   .     S
C475   O492    1.286   .     A
C476   Br533   1.944   1_455 S
C476   C553    1.356   1_455 S
C477   C514    1.356   .     S
C477   Br496   1.944   .     S
C479   C580    1.395   .     S
C480   C592    1.395   .     S
Cu481  O490    1.955   .     S
Cu481  O491    1.978   .     S
Cu481  N485    2.020   .     S
Cu481  O494    1.976   .     S
Cu481  Cu482   2.688   .     S
Cu481  O487    1.958   .     S
Cu482  O493    1.976   .     S
Cu482  N486    2.020   .     S
Cu482  O489    1.955   .     S
Cu482  O492    1.978   .     S
Cu482  O488    1.958   .     S
Br495  C552    1.944   .     S
Br497  C516    1.929   .     S
Br498  C517    1.929   .     S
Br499  C518    1.934   .     S
Br500  C504    1.934   .     S
Br501  C509    1.915   .     S
Br502  C510    1.915   .     S
C503   O527    1.290   .     A
C503   C506    1.444   .     S
C503   O525    1.293   .     A
C504   C506    1.405   .     A
C505   C518    1.405   .     A
C505   C517    1.407   .     A
C505   C511    1.444   .     S
C506   C516    1.407   .     A
C507   N524    1.359   .     A
C507   H521    1.082   .     S
C508   N523    1.359   .     A
C508   H522    1.082   .     S
C508   C852    1.414   .     S
C509   N523    1.381   .     A
C509   C849    1.414   .     S
C510   N524    1.381   .     A
C511   O528    1.290   .     A
C511   O526    1.293   .     A
C512   O529    1.286   .     A
C512   O531    1.294   .     A
C512   C514    1.435   .     S
C513   O532    1.294   .     A
C513   C515    1.435   .     S
C513   O530    1.286   .     A
C515   C552    1.356   .     S
C515   Br534   1.944   .     S
C517   C618    1.395   .     S
C518   C630    1.395   .     S
Cu519  O528    1.955   .     S
Cu519  O529    1.978   .     S
Cu519  N523    2.020   .     S
Cu519  O532    1.976   .     S
Cu519  Cu520   2.688   .     S
Cu519  O525    1.958   .     S
Cu520  O531    1.976   .     S
Cu520  N524    2.020   .     S
Cu520  O527    1.955   .     S
Cu520  O530    1.978   .     S
Cu520  O526    1.958   .     S
Br533  C476    1.944   1_655 S
Br535  C554    1.929   .     S
Br536  C555    1.929   .     S
Br537  C556    1.934   .     S
Br538  C542    1.934   .     S
Br539  C547    1.915   .     S
Br540  C548    1.915   .     S
C541   O565    1.290   .     A
C541   C544    1.444   .     S
C541   O563    1.293   .     A
C542   C544    1.405   .     A
C543   C556    1.405   .     A
C543   C555    1.407   .     A
C543   C549    1.444   .     S
C544   C554    1.407   .     A
C545   N562    1.359   .     A
C545   H559    1.082   .     S
C546   N561    1.359   .     A
C546   H560    1.082   .     S
C546   C890    1.414   .     S
C547   N561    1.381   .     A
C547   C887    1.414   .     S
C548   N562    1.381   .     A
C549   O566    1.290   .     A
C549   O564    1.293   .     A
C550   O567    1.286   .     A
C550   O569    1.294   .     A
C550   C552    1.435   .     S
C551   O570    1.294   .     A
C551   C553    1.435   .     S
C551   O568    1.286   .     A
C553   C476    1.356   1_655 S
C553   Br458   1.944   1_655 S
C555   C656    1.395   .     S
C556   C668    1.395   .     S
Cu557  O566    1.955   .     S
Cu557  O567    1.978   .     S
Cu557  N561    2.020   .     S
Cu557  O570    1.976   .     S
Cu557  Cu558   2.688   .     S
Cu557  O563    1.958   .     S
Cu558  O569    1.976   .     S
Cu558  N562    2.020   .     S
Cu558  O565    1.955   .     S
Cu558  O568    1.978   .     S
Cu558  O564    1.958   .     S
Br571  C628    1.944   .     S
Br572  C667    1.944   1_455 S
Br573  C592    1.929   .     S
Br574  C593    1.929   .     S
Br575  C594    1.934   .     S
Br576  C580    1.934   .     S
Br577  C585    1.915   .     S
Br578  C586    1.915   .     S
C579   O603    1.290   .     A
C579   C582    1.444   .     S
C579   O601    1.293   .     A
C580   C582    1.405   .     A
C581   C594    1.405   .     A
C581   C593    1.407   .     A
C581   C587    1.444   .     S
C582   C592    1.407   .     A
C583   N600    1.359   .     A
C583   H597    1.082   .     S
C584   N599    1.359   .     A
C584   H598    1.082   .     S
C584   C928    1.414   .     S
C585   N599    1.381   .     A
C585   C925    1.414   .     S
C586   N600    1.381   .     A
C587   O604    1.290   .     A
C587   O602    1.293   .     A
C588   O605    1.286   .     A
C588   O607    1.294   .     A
C588   C590    1.435   .     S
C589   O608    1.294   .     A
C589   C591    1.435   .     S
C589   O606    1.286   .     A
C590   Br647   1.944   1_455 S
C590   C667    1.356   1_455 S
C591   C628    1.356   .     S
C591   Br610   1.944   .     S
C593   C352    1.395   1_565 S
C594   C364    1.395   1_565 S
Cu595  O604    1.955   .     S
Cu595  O605    1.978   .     S
Cu595  N599    2.020   .     S
Cu595  O608    1.976   .     S
Cu595  Cu596   2.688   .     S
Cu595  O601    1.958   .     S
Cu596  O607    1.976   .     S
Cu596  N600    2.020   .     S
Cu596  O603    1.955   .     S
Cu596  O606    1.978   .     S
Cu596  O602    1.958   .     S
Br609  C666    1.944   .     S
Br611  C630    1.929   .     S
Br612  C631    1.929   .     S
Br613  C632    1.934   .     S
Br614  C618    1.934   .     S
Br615  C623    1.915   .     S
Br616  C624    1.915   .     S
C617   O641    1.290   .     A
C617   C620    1.444   .     S
C617   O639    1.293   .     A
C618   C620    1.405   .     A
C619   C632    1.405   .     A
C619   C631    1.407   .     A
C619   C625    1.444   .     S
C620   C630    1.407   .     A
C621   N638    1.359   .     A
C621   H635    1.082   .     S
C622   N637    1.359   .     A
C622   H636    1.082   .     S
C622   C966    1.414   .     S
C623   N637    1.381   .     A
C623   C963    1.414   .     S
C624   N638    1.381   .     A
C625   O642    1.290   .     A
C625   O640    1.293   .     A
C626   O643    1.286   .     A
C626   O645    1.294   .     A
C626   C628    1.435   .     S
C627   O646    1.294   .     A
C627   C629    1.435   .     S
C627   O644    1.286   .     A
C629   C666    1.356   .     S
C629   Br648   1.944   .     S
C631   C390    1.395   1_565 S
C632   C402    1.395   1_565 S
Cu633  O642    1.955   .     S
Cu633  O643    1.978   .     S
Cu633  N637    2.020   .     S
Cu633  O646    1.976   .     S
Cu633  Cu634   2.688   .     S
Cu633  O639    1.958   .     S
Cu634  O645    1.976   .     S
Cu634  N638    2.020   .     S
Cu634  O641    1.955   .     S
Cu634  O644    1.978   .     S
Cu634  O640    1.958   .     S
Br647  C590    1.944   1_655 S
Br649  C668    1.929   .     S
Br650  C669    1.929   .     S
Br651  C670    1.934   .     S
Br652  C656    1.934   .     S
Br653  C661    1.915   .     S
Br654  C662    1.915   .     S
C655   O679    1.290   .     A
C655   C658    1.444   .     S
C655   O677    1.293   .     A
C656   C658    1.405   .     A
C657   C670    1.405   .     A
C657   C669    1.407   .     A
C657   C663    1.444   .     S
C658   C668    1.407   .     A
C659   N676    1.359   .     A
C659   H673    1.082   .     S
C660   N675    1.359   .     A
C660   H674    1.082   .     S
C660   C1004   1.414   .     S
C661   N675    1.381   .     A
C661   C1001   1.414   .     S
C662   N676    1.381   .     A
C663   O680    1.290   .     A
C663   O678    1.293   .     A
C664   O681    1.286   .     A
C664   O683    1.294   .     A
C664   C666    1.435   .     S
C665   O684    1.294   .     A
C665   C667    1.435   .     S
C665   O682    1.286   .     A
C667   C590    1.356   1_655 S
C667   Br572   1.944   1_655 S
C669   C428    1.395   1_565 S
C670   C440    1.395   1_565 S
Cu671  O680    1.955   .     S
Cu671  O681    1.978   .     S
Cu671  N675    2.020   .     S
Cu671  O684    1.976   .     S
Cu671  Cu672   2.688   .     S
Cu671  O677    1.958   .     S
Cu672  O683    1.976   .     S
Cu672  N676    2.020   .     S
Cu672  O679    1.955   .     S
Cu672  O682    1.978   .     S
Cu672  O678    1.958   .     S
Br685  C742    1.944   .     S
Br686  C781    1.944   1_455 S
Br687  C706    1.929   .     S
Br688  C707    1.929   .     S
Br689  C708    1.934   .     S
Br690  C694    1.934   .     S
Br691  C699    1.915   .     S
Br692  C700    1.915   .     S
C693   O717    1.290   .     A
C693   C696    1.444   .     S
C693   O715    1.293   .     A
C694   C696    1.405   .     A
C694   C935    1.395   1_545 S
C695   C708    1.405   .     A
C695   C707    1.407   .     A
C695   C701    1.444   .     S
C696   C706    1.407   .     A
C697   N714    1.359   .     A
C697   H711    1.082   .     S
C698   N713    1.359   .     A
C698   H712    1.082   .     S
C698   C16     1.414   1_556 S
C699   N713    1.381   .     A
C699   C13     1.414   1_556 S
C700   N714    1.381   .     A
C701   O718    1.290   .     A
C701   O716    1.293   .     A
C702   O719    1.286   .     A
C702   O721    1.294   .     A
C702   C704    1.435   .     S
C703   O722    1.294   .     A
C703   C705    1.435   .     S
C703   O720    1.286   .     A
C704   Br761   1.944   1_455 S
C704   C781    1.356   1_455 S
C705   C742    1.356   .     S
C705   Br724   1.944   .     S
C706   C936    1.395   1_545 S
C707   C808    1.395   .     S
C708   C820    1.395   .     S
Cu709  O718    1.955   .     S
Cu709  O719    1.978   .     S
Cu709  N713    2.020   .     S
Cu709  O722    1.976   .     S
Cu709  Cu710   2.688   .     S
Cu709  O715    1.958   .     S
Cu710  O721    1.976   .     S
Cu710  N714    2.020   .     S
Cu710  O717    1.955   .     S
Cu710  O720    1.978   .     S
Cu710  O716    1.958   .     S
Br723  C780    1.944   .     S
Br725  C744    1.929   .     S
Br726  C745    1.929   .     S
Br727  C746    1.934   .     S
Br728  C732    1.934   .     S
Br729  C737    1.915   .     S
Br730  C738    1.915   .     S
C731   O755    1.290   .     A
C731   C734    1.444   .     S
C731   O753    1.293   .     A
C732   C734    1.405   .     A
C732   C973    1.395   1_545 S
C733   C746    1.405   .     A
C733   C745    1.407   .     A
C733   C739    1.444   .     S
C734   C744    1.407   .     A
C735   N752    1.359   .     A
C735   H749    1.082   .     S
C736   N751    1.359   .     A
C736   H750    1.082   .     S
C736   C54     1.414   1_556 S
C737   N751    1.381   .     A
C737   C51     1.414   1_556 S
C738   N752    1.381   .     A
C739   O756    1.290   .     A
C739   O754    1.293   .     A
C740   O757    1.286   .     A
C740   O759    1.294   .     A
C740   C742    1.435   .     S
C741   O760    1.294   .     A
C741   C743    1.435   .     S
C741   O758    1.286   .     A
C743   C780    1.356   .     S
C743   Br762   1.944   .     S
C744   C974    1.395   1_545 S
C745   C846    1.395   .     S
C746   C858    1.395   .     S
Cu747  O756    1.955   .     S
Cu747  O757    1.978   .     S
Cu747  N751    2.020   .     S
Cu747  O760    1.976   .     S
Cu747  Cu748   2.688   .     S
Cu747  O753    1.958   .     S
Cu748  O759    1.976   .     S
Cu748  N752    2.020   .     S
Cu748  O755    1.955   .     S
Cu748  O758    1.978   .     S
Cu748  O754    1.958   .     S
Br761  C704    1.944   1_655 S
Br763  C782    1.929   .     S
Br764  C783    1.929   .     S
Br765  C784    1.934   .     S
Br766  C770    1.934   .     S
Br767  C775    1.915   .     S
Br768  C776    1.915   .     S
C769   O793    1.290   .     A
C769   C772    1.444   .     S
C769   O791    1.293   .     A
C770   C772    1.405   .     A
C770   C1011   1.395   1_545 S
C771   C784    1.405   .     A
C771   C783    1.407   .     A
C771   C777    1.444   .     S
C772   C782    1.407   .     A
C773   N790    1.359   .     A
C773   H787    1.082   .     S
C774   N789    1.359   .     A
C774   H788    1.082   .     S
C774   C92     1.414   1_556 S
C775   N789    1.381   .     A
C775   C89     1.414   1_556 S
C776   N790    1.381   .     A
C777   O794    1.290   .     A
C777   O792    1.293   .     A
C778   O795    1.286   .     A
C778   O797    1.294   .     A
C778   C780    1.435   .     S
C779   O798    1.294   .     A
C779   C781    1.435   .     S
C779   O796    1.286   .     A
C781   C704    1.356   1_655 S
C781   Br686   1.944   1_655 S
C782   C1012   1.395   1_545 S
C783   C884    1.395   .     S
C784   C896    1.395   .     S
Cu785  O794    1.955   .     S
Cu785  O795    1.978   .     S
Cu785  N789    2.020   .     S
Cu785  O798    1.976   .     S
Cu785  Cu786   2.688   .     S
Cu785  O791    1.958   .     S
Cu786  O797    1.976   .     S
Cu786  N790    2.020   .     S
Cu786  O793    1.955   .     S
Cu786  O796    1.978   .     S
Cu786  O792    1.958   .     S
Br799  C856    1.944   .     S
Br800  C895    1.944   1_455 S
Br801  C820    1.929   .     S
Br802  C821    1.929   .     S
Br803  C822    1.934   .     S
Br804  C808    1.934   .     S
Br805  C813    1.915   .     S
Br806  C814    1.915   .     S
C807   O831    1.290   .     A
C807   C810    1.444   .     S
C807   O829    1.293   .     A
C808   C810    1.405   .     A
C809   C822    1.405   .     A
C809   C821    1.407   .     A
C809   C815    1.444   .     S
C810   C820    1.407   .     A
C811   N828    1.359   .     A
C811   H825    1.082   .     S
C812   N827    1.359   .     A
C812   H826    1.082   .     S
C812   C130    1.414   1_556 S
C813   N827    1.381   .     A
C813   C127    1.414   1_556 S
C814   N828    1.381   .     A
C815   O832    1.290   .     A
C815   O830    1.293   .     A
C816   O833    1.286   .     A
C816   O835    1.294   .     A
C816   C818    1.435   .     S
C817   O836    1.294   .     A
C817   C819    1.435   .     S
C817   O834    1.286   .     A
C818   Br875   1.944   1_455 S
C818   C895    1.356   1_455 S
C819   C856    1.356   .     S
C819   Br838   1.944   .     S
C821   C922    1.395   .     S
C822   C934    1.395   .     S
Cu823  O832    1.955   .     S
Cu823  O833    1.978   .     S
Cu823  N827    2.020   .     S
Cu823  O836    1.976   .     S
Cu823  Cu824   2.688   .     S
Cu823  O829    1.958   .     S
Cu824  O835    1.976   .     S
Cu824  N828    2.020   .     S
Cu824  O831    1.955   .     S
Cu824  O834    1.978   .     S
Cu824  O830    1.958   .     S
Br837  C894    1.944   .     S
Br839  C858    1.929   .     S
Br840  C859    1.929   .     S
Br841  C860    1.934   .     S
Br842  C846    1.934   .     S
Br843  C851    1.915   .     S
Br844  C852    1.915   .     S
C845   O869    1.290   .     A
C845   C848    1.444   .     S
C845   O867    1.293   .     A
C846   C848    1.405   .     A
C847   C860    1.405   .     A
C847   C859    1.407   .     A
C847   C853    1.444   .     S
C848   C858    1.407   .     A
C849   N866    1.359   .     A
C849   H863    1.082   .     S
C850   N865    1.359   .     A
C850   H864    1.082   .     S
C850   C168    1.414   1_556 S
C851   N865    1.381   .     A
C851   C165    1.414   1_556 S
C852   N866    1.381   .     A
C853   O870    1.290   .     A
C853   O868    1.293   .     A
C854   O871    1.286   .     A
C854   O873    1.294   .     A
C854   C856    1.435   .     S
C855   O874    1.294   .     A
C855   C857    1.435   .     S
C855   O872    1.286   .     A
C857   C894    1.356   .     S
C857   Br876   1.944   .     S
C859   C960    1.395   .     S
C860   C972    1.395   .     S
Cu861  O870    1.955   .     S
Cu861  O871    1.978   .     S
Cu861  N865    2.020   .     S
Cu861  O874    1.976   .     S
Cu861  Cu862   2.688   .     S
Cu861  O867    1.958   .     S
Cu862  O873    1.976   .     S
Cu862  N866    2.020   .     S
Cu862  O869    1.955   .     S
Cu862  O872    1.978   .     S
Cu862  O868    1.958   .     S
Br875  C818    1.944   1_655 S
Br877  C896    1.929   .     S
Br878  C897    1.929   .     S
Br879  C898    1.934   .     S
Br880  C884    1.934   .     S
Br881  C889    1.915   .     S
Br882  C890    1.915   .     S
C883   O907    1.290   .     A
C883   C886    1.444   .     S
C883   O905    1.293   .     A
C884   C886    1.405   .     A
C885   C898    1.405   .     A
C885   C897    1.407   .     A
C885   C891    1.444   .     S
C886   C896    1.407   .     A
C887   N904    1.359   .     A
C887   H901    1.082   .     S
C888   N903    1.359   .     A
C888   H902    1.082   .     S
C888   C206    1.414   1_556 S
C889   N903    1.381   .     A
C889   C203    1.414   1_556 S
C890   N904    1.381   .     A
C891   O908    1.290   .     A
C891   O906    1.293   .     A
C892   O909    1.286   .     A
C892   O911    1.294   .     A
C892   C894    1.435   .     S
C893   O912    1.294   .     A
C893   C895    1.435   .     S
C893   O910    1.286   .     A
C895   C818    1.356   1_655 S
C895   Br800   1.944   1_655 S
C897   C998    1.395   .     S
C898   C1010   1.395   .     S
Cu899  O908    1.955   .     S
Cu899  O909    1.978   .     S
Cu899  N903    2.020   .     S
Cu899  O912    1.976   .     S
Cu899  Cu900   2.688   .     S
Cu899  O905    1.958   .     S
Cu900  O911    1.976   .     S
Cu900  N904    2.020   .     S
Cu900  O907    1.955   .     S
Cu900  O910    1.978   .     S
Cu900  O906    1.958   .     S
Br913  C970    1.944   .     S
Br914  C1009   1.944   1_455 S
Br915  C934    1.929   .     S
Br916  C935    1.929   .     S
Br917  C936    1.934   .     S
Br918  C922    1.934   .     S
Br919  C927    1.915   .     S
Br920  C928    1.915   .     S
C921   O945    1.290   .     A
C921   C924    1.444   .     S
C921   O943    1.293   .     A
C922   C924    1.405   .     A
C923   C936    1.405   .     A
C923   C935    1.407   .     A
C923   C929    1.444   .     S
C924   C934    1.407   .     A
C925   N942    1.359   .     A
C925   H939    1.082   .     S
C926   N941    1.359   .     A
C926   H940    1.082   .     S
C926   C244    1.414   1_556 S
C927   N941    1.381   .     A
C927   C241    1.414   1_556 S
C928   N942    1.381   .     A
C929   O946    1.290   .     A
C929   O944    1.293   .     A
C930   O947    1.286   .     A
C930   O949    1.294   .     A
C930   C932    1.435   .     S
C931   O950    1.294   .     A
C931   C933    1.435   .     S
C931   O948    1.286   .     A
C932   Br989   1.944   1_455 S
C932   C1009   1.356   1_455 S
C933   C970    1.356   .     S
C933   Br952   1.944   .     S
C935   C694    1.395   1_565 S
C936   C706    1.395   1_565 S
Cu937  O946    1.955   .     S
Cu937  O947    1.978   .     S
Cu937  N941    2.020   .     S
Cu937  O950    1.976   .     S
Cu937  Cu938   2.688   .     S
Cu937  O943    1.958   .     S
Cu938  O949    1.976   .     S
Cu938  N942    2.020   .     S
Cu938  O945    1.955   .     S
Cu938  O948    1.978   .     S
Cu938  O944    1.958   .     S
Br951  C1008   1.944   .     S
Br953  C972    1.929   .     S
Br954  C973    1.929   .     S
Br955  C974    1.934   .     S
Br956  C960    1.934   .     S
Br957  C965    1.915   .     S
Br958  C966    1.915   .     S
C959   O983    1.290   .     A
C959   C962    1.444   .     S
C959   O981    1.293   .     A
C960   C962    1.405   .     A
C961   C974    1.405   .     A
C961   C973    1.407   .     A
C961   C967    1.444   .     S
C962   C972    1.407   .     A
C963   N980    1.359   .     A
C963   H977    1.082   .     S
C964   N979    1.359   .     A
C964   H978    1.082   .     S
C964   C282    1.414   1_556 S
C965   N979    1.381   .     A
C965   C279    1.414   1_556 S
C966   N980    1.381   .     A
C967   O984    1.290   .     A
C967   O982    1.293   .     A
C968   O985    1.286   .     A
C968   O987    1.294   .     A
C968   C970    1.435   .     S
C969   O988    1.294   .     A
C969   C971    1.435   .     S
C969   O986    1.286   .     A
C971   C1008   1.356   .     S
C971   Br990   1.944   .     S
C973   C732    1.395   1_565 S
C974   C744    1.395   1_565 S
Cu975  O984    1.955   .     S
Cu975  O985    1.978   .     S
Cu975  N979    2.020   .     S
Cu975  O988    1.976   .     S
Cu975  Cu976   2.688   .     S
Cu975  O981    1.958   .     S
Cu976  O987    1.976   .     S
Cu976  N980    2.020   .     S
Cu976  O983    1.955   .     S
Cu976  O986    1.978   .     S
Cu976  O982    1.958   .     S
Br989  C932    1.944   1_655 S
Br991  C1010   1.929   .     S
Br992  C1011   1.929   .     S
Br993  C1012   1.934   .     S
Br994  C998    1.934   .     S
Br995  C1003   1.915   .     S
Br996  C1004   1.915   .     S
C997   O1021   1.290   .     A
C997   C1000   1.444   .     S
C997   O1019   1.293   .     A
C998   C1000   1.405   .     A
C999   C1012   1.405   .     A
C999   C1011   1.407   .     A
C999   C1005   1.444   .     S
C1000  C1010   1.407   .     A
C1001  N1018   1.359   .     A
C1001  H1015   1.082   .     S
C1002  N1017   1.359   .     A
C1002  H1016   1.082   .     S
C1002  C320    1.414   1_556 S
C1003  N1017   1.381   .     A
C1003  C317    1.414   1_556 S
C1004  N1018   1.381   .     A
C1005  O1022   1.290   .     A
C1005  O1020   1.293   .     A
C1006  O1023   1.286   .     A
C1006  O1025   1.294   .     A
C1006  C1008   1.435   .     S
C1007  O1026   1.294   .     A
C1007  C1009   1.435   .     S
C1007  O1024   1.286   .     A
C1009  C932    1.356   1_655 S
C1009  Br914   1.944   1_655 S
C1011  C770    1.395   1_565 S
C1012  C782    1.395   1_565 S
Cu1013 O1022   1.955   .     S
Cu1013 O1023   1.978   .     S
Cu1013 N1017   2.020   .     S
Cu1013 O1026   1.976   .     S
Cu1013 Cu1014  2.688   .     S
Cu1013 O1019   1.958   .     S
Cu1014 O1025   1.976   .     S
Cu1014 N1018   2.020   .     S
Cu1014 O1021   1.955   .     S
Cu1014 O1024   1.978   .     S
Cu1014 O1020   1.958   .     S
