data_str_m3_o10_o16_pcu_sym.55
_audit_creation_date              2020-01-03
_audit_creation_method            'Materials Studio'
_symmetry_space_group_name_H-M    'P1'
_symmetry_Int_Tables_number       1
_symmetry_cell_setting            triclinic
loop_
_symmetry_equiv_pos_as_xyz
  x,y,z
_cell_length_a                    23.5369
_cell_length_b                    25.8425
_cell_length_c                    24.3362
_cell_angle_alpha                 92.6277
_cell_angle_beta                  101.1867
_cell_angle_gamma                 93.5994
loop_
_atom_site_label
_atom_site_type_symbol
_atom_site_fract_x
_atom_site_fract_y
_atom_site_fract_z
_atom_site_U_iso_or_equiv
_atom_site_adp_type
_atom_site_occupancy
C1     C     0.01498   0.26472   0.25067   0.00000  Uiso   1.00
C2     C     0.05334   0.17068   0.41655   0.00000  Uiso   1.00
C3     C     0.01817   0.31813   0.24238   0.00000  Uiso   1.00
C4     C     0.03546   0.16877   0.35532   0.00000  Uiso   1.00
C5     C     0.31842   0.01615   0.26750   0.00000  Uiso   1.00
C6     C     0.31943   0.06866   0.25309   0.00000  Uiso   1.00
C7     C     0.29763   0.16327   0.14509   0.00000  Uiso   1.00
C8     C     0.27091   0.09840   0.00246   0.00000  Uiso   1.00
C9     C     0.27742   0.15419   0.08553   0.00000  Uiso   1.00
C10    C     0.02316   0.20020   0.45064   0.00000  Uiso   1.00
C11    C     0.04930   0.21123   0.00740   0.00000  Uiso   1.00
C12    C     0.13440   0.16668   0.49434   0.00000  Uiso   1.00
C13    C     0.10483   0.19693   0.02803   0.00000  Uiso   1.00
C14    C     0.28706   0.00174   0.31507   0.00000  Uiso   1.00
C15    C     0.30597   0.03837   0.36717   0.00000  Uiso   1.00
C16    C     0.12174   0.10527   0.15460   0.00000  Uiso   1.00
C17    C     0.28402   0.25816   0.45524   0.00000  Uiso   1.00
C18    C     0.01472   0.32086   0.14804   0.00000  Uiso   1.00
C19    C     0.10521   0.14877   0.44023   0.00000  Uiso   1.00
C20    C     0.19158   0.15247   0.01318   0.00000  Uiso   1.00
C21    C     0.21546   0.11471   0.48183   0.00000  Uiso   1.00
C22    C     0.18290   0.09266   0.43148   0.00000  Uiso   1.00
C23    C     0.12860   0.10949   0.41080   0.00000  Uiso   1.00
C24    C     0.22557   0.17443   0.06288   0.00000  Uiso   1.00
C25    C     0.30144   0.11735   0.05487   0.00000  Uiso   1.00
H26    H     0.00850   0.10118   0.07253   0.00000  Uiso   1.00
H27    H     0.29094   0.07766   0.35981   0.00000  Uiso   1.00
H28    H     0.28607   0.02269   0.40100   0.00000  Uiso   1.00
H29    H     0.23944   0.00245   0.29998   0.00000  Uiso   1.00
H30    H     0.29586   0.29631   0.33079   0.00000  Uiso   1.00
H31    H     0.11433   0.14202   0.13328   0.00000  Uiso   1.00
H32    H     0.08064   0.08650   0.16177   0.00000  Uiso   1.00
H33    H     0.13926   0.07857   0.12609   0.00000  Uiso   1.00
H34    H     0.31895   0.29022   0.46438   0.00000  Uiso   1.00
H35    H     0.26969   0.24684   0.49411   0.00000  Uiso   1.00
H36    H     0.24597   0.27291   0.42769   0.00000  Uiso   1.00
H37    H     0.17642   0.20977   0.28989   0.00000  Uiso   1.00
H38    H     0.30556   0.00529   0.14194   0.00000  Uiso   1.00
H39    H     0.00794   0.27796   0.14024   0.00000  Uiso   1.00
H40    H     0.03832   0.00231   0.11603   0.00000  Uiso   1.00
H41    H     0.19929   0.06251   0.40783   0.00000  Uiso   1.00
H42    H     0.28943   0.06912   0.47988   0.00000  Uiso   1.00
H43    H     0.21158   0.20580   0.08661   0.00000  Uiso   1.00
H44    H     0.12228   0.20830   0.07145   0.00000  Uiso   1.00
H45    H     0.02788   0.23190   0.03625   0.00000  Uiso   1.00
H46    H     0.10475   0.09052   0.37191   0.00000  Uiso   1.00
H47    H     0.02047   0.04046   0.38118   0.00000  Uiso   1.00
N48    N     0.14493   0.15223   0.23542   0.00000  Uiso   1.00
N49    N     0.18840   0.18110   0.26457   0.00000  Uiso   1.00
O50    O     0.29769   0.24629   0.25357   0.00000  Uiso   1.00
O51    O     0.30118   0.21469   0.42704   0.00000  Uiso   1.00
O52    O     0.04850   0.00154   0.20194   0.00000  Uiso   1.00
O53    O     0.05742   0.23704   0.24423   0.00000  Uiso   1.00
O54    O     0.31490   0.17358   0.33380   0.00000  Uiso   1.00
O55    O     0.07463   0.16433   0.32446   0.00000  Uiso   1.00
O56    O     0.27592   0.09629   0.25576   0.00000  Uiso   1.00
O57    O     0.03565   0.08704   0.24642   0.00000  Uiso   1.00
O58    O     0.25870   0.16901   0.17554   0.00000  Uiso   1.00
O59    O     0.01843   0.15976   0.16620   0.00000  Uiso   1.00
O60    O     0.16231   0.11362   0.20499   0.00000  Uiso   1.00
Zn61   Zn    0.27119   0.17284   0.25623   0.00000  Uiso   1.00
Zn62   Zn    0.06214   0.16049   0.24376   0.00000  Uiso   1.00
C63    C     0.34831   0.26472   0.25067   0.00000  Uiso   1.00
C64    C     0.38667   0.17068   0.41655   0.00000  Uiso   1.00
C65    C     0.35150   0.31813   0.24238   0.00000  Uiso   1.00
C66    C     0.36879   0.16877   0.35532   0.00000  Uiso   1.00
C67    C     0.65175   0.01615   0.26750   0.00000  Uiso   1.00
C68    C     0.65276   0.06866   0.25309   0.00000  Uiso   1.00
C69    C     0.63096   0.16327   0.14509   0.00000  Uiso   1.00
C70    C     0.60424   0.09840   0.00246   0.00000  Uiso   1.00
C71    C     0.61075   0.15419   0.08553   0.00000  Uiso   1.00
C72    C     0.35649   0.20020   0.45064   0.00000  Uiso   1.00
C73    C     0.38264   0.21123   0.00740   0.00000  Uiso   1.00
C74    C     0.46774   0.16668   0.49434   0.00000  Uiso   1.00
C75    C     0.43816   0.19693   0.02803   0.00000  Uiso   1.00
C76    C     0.62039   0.00174   0.31507   0.00000  Uiso   1.00
C77    C     0.63930   0.03837   0.36717   0.00000  Uiso   1.00
C78    C     0.45507   0.10527   0.15460   0.00000  Uiso   1.00
C79    C     0.61735   0.25816   0.45524   0.00000  Uiso   1.00
C80    C     0.34806   0.32086   0.14804   0.00000  Uiso   1.00
C81    C     0.43854   0.14877   0.44023   0.00000  Uiso   1.00
C82    C     0.52491   0.15247   0.01318   0.00000  Uiso   1.00
C83    C     0.54879   0.11471   0.48183   0.00000  Uiso   1.00
C84    C     0.51623   0.09266   0.43148   0.00000  Uiso   1.00
C85    C     0.46193   0.10949   0.41080   0.00000  Uiso   1.00
C86    C     0.55891   0.17443   0.06288   0.00000  Uiso   1.00
C87    C     0.63478   0.11735   0.05487   0.00000  Uiso   1.00
H88    H     0.34184   0.10118   0.07253   0.00000  Uiso   1.00
H89    H     0.62427   0.07766   0.35981   0.00000  Uiso   1.00
H90    H     0.61940   0.02269   0.40100   0.00000  Uiso   1.00
H91    H     0.57277   0.00245   0.29998   0.00000  Uiso   1.00
H92    H     0.62920   0.29631   0.33079   0.00000  Uiso   1.00
H93    H     0.44766   0.14202   0.13328   0.00000  Uiso   1.00
H94    H     0.41398   0.08650   0.16177   0.00000  Uiso   1.00
H95    H     0.47259   0.07857   0.12609   0.00000  Uiso   1.00
H96    H     0.65228   0.29022   0.46438   0.00000  Uiso   1.00
H97    H     0.60302   0.24684   0.49411   0.00000  Uiso   1.00
H98    H     0.57931   0.27291   0.42769   0.00000  Uiso   1.00
H99    H     0.50976   0.20977   0.28989   0.00000  Uiso   1.00
H100   H     0.63889   0.00529   0.14194   0.00000  Uiso   1.00
H101   H     0.34127   0.27796   0.14024   0.00000  Uiso   1.00
H102   H     0.37166   0.00231   0.11603   0.00000  Uiso   1.00
H103   H     0.53263   0.06251   0.40783   0.00000  Uiso   1.00
H104   H     0.62276   0.06912   0.47988   0.00000  Uiso   1.00
H105   H     0.54492   0.20580   0.08661   0.00000  Uiso   1.00
H106   H     0.45561   0.20830   0.07145   0.00000  Uiso   1.00
H107   H     0.36122   0.23190   0.03625   0.00000  Uiso   1.00
H108   H     0.43808   0.09052   0.37191   0.00000  Uiso   1.00
H109   H     0.35380   0.04046   0.38118   0.00000  Uiso   1.00
N110   N     0.47827   0.15223   0.23542   0.00000  Uiso   1.00
N111   N     0.52173   0.18110   0.26457   0.00000  Uiso   1.00
O112   O     0.63102   0.24629   0.25357   0.00000  Uiso   1.00
O113   O     0.63452   0.21469   0.42704   0.00000  Uiso   1.00
O114   O     0.38183   0.00154   0.20194   0.00000  Uiso   1.00
O115   O     0.39075   0.23704   0.24423   0.00000  Uiso   1.00
O116   O     0.64823   0.17358   0.33380   0.00000  Uiso   1.00
O117   O     0.40796   0.16433   0.32446   0.00000  Uiso   1.00
O118   O     0.60925   0.09629   0.25576   0.00000  Uiso   1.00
O119   O     0.36898   0.08704   0.24642   0.00000  Uiso   1.00
O120   O     0.59204   0.16901   0.17554   0.00000  Uiso   1.00
O121   O     0.35177   0.15976   0.16620   0.00000  Uiso   1.00
O122   O     0.49564   0.11362   0.20499   0.00000  Uiso   1.00
Zn123  Zn    0.60453   0.17284   0.25623   0.00000  Uiso   1.00
Zn124  Zn    0.39547   0.16049   0.24376   0.00000  Uiso   1.00
C125   C     0.68164   0.26472   0.25067   0.00000  Uiso   1.00
C126   C     0.72000   0.17068   0.41655   0.00000  Uiso   1.00
C127   C     0.68483   0.31813   0.24238   0.00000  Uiso   1.00
C128   C     0.70212   0.16877   0.35532   0.00000  Uiso   1.00
C129   C     0.98508   0.01615   0.26750   0.00000  Uiso   1.00
C130   C     0.98610   0.06866   0.25309   0.00000  Uiso   1.00
C131   C     0.96429   0.16327   0.14509   0.00000  Uiso   1.00
C132   C     0.93758   0.09840   0.00246   0.00000  Uiso   1.00
C133   C     0.94409   0.15419   0.08553   0.00000  Uiso   1.00
C134   C     0.68982   0.20020   0.45064   0.00000  Uiso   1.00
C135   C     0.71597   0.21123   0.00740   0.00000  Uiso   1.00
C136   C     0.80107   0.16668   0.49434   0.00000  Uiso   1.00
C137   C     0.77150   0.19693   0.02803   0.00000  Uiso   1.00
C138   C     0.95372   0.00174   0.31507   0.00000  Uiso   1.00
C139   C     0.97264   0.03837   0.36717   0.00000  Uiso   1.00
C140   C     0.78841   0.10527   0.15460   0.00000  Uiso   1.00
C141   C     0.95068   0.25816   0.45524   0.00000  Uiso   1.00
C142   C     0.68139   0.32086   0.14804   0.00000  Uiso   1.00
C143   C     0.77187   0.14877   0.44023   0.00000  Uiso   1.00
C144   C     0.85825   0.15247   0.01318   0.00000  Uiso   1.00
C145   C     0.88213   0.11471   0.48183   0.00000  Uiso   1.00
C146   C     0.84957   0.09266   0.43148   0.00000  Uiso   1.00
C147   C     0.79527   0.10949   0.41080   0.00000  Uiso   1.00
C148   C     0.89224   0.17443   0.06288   0.00000  Uiso   1.00
C149   C     0.96811   0.11735   0.05487   0.00000  Uiso   1.00
H150   H     0.67517   0.10118   0.07253   0.00000  Uiso   1.00
H151   H     0.95761   0.07766   0.35981   0.00000  Uiso   1.00
H152   H     0.95273   0.02269   0.40100   0.00000  Uiso   1.00
H153   H     0.90610   0.00245   0.29998   0.00000  Uiso   1.00
H154   H     0.96253   0.29631   0.33079   0.00000  Uiso   1.00
H155   H     0.78099   0.14202   0.13328   0.00000  Uiso   1.00
H156   H     0.74731   0.08650   0.16177   0.00000  Uiso   1.00
H157   H     0.80593   0.07857   0.12609   0.00000  Uiso   1.00
H158   H     0.98562   0.29022   0.46438   0.00000  Uiso   1.00
H159   H     0.93635   0.24684   0.49411   0.00000  Uiso   1.00
H160   H     0.91264   0.27291   0.42769   0.00000  Uiso   1.00
H161   H     0.84309   0.20977   0.28989   0.00000  Uiso   1.00
H162   H     0.97222   0.00529   0.14194   0.00000  Uiso   1.00
H163   H     0.67461   0.27796   0.14024   0.00000  Uiso   1.00
H164   H     0.70499   0.00231   0.11603   0.00000  Uiso   1.00
H165   H     0.86596   0.06251   0.40783   0.00000  Uiso   1.00
H166   H     0.95609   0.06912   0.47988   0.00000  Uiso   1.00
H167   H     0.87825   0.20580   0.08661   0.00000  Uiso   1.00
H168   H     0.78894   0.20830   0.07145   0.00000  Uiso   1.00
H169   H     0.69455   0.23190   0.03625   0.00000  Uiso   1.00
H170   H     0.77141   0.09052   0.37191   0.00000  Uiso   1.00
H171   H     0.68713   0.04046   0.38118   0.00000  Uiso   1.00
N172   N     0.81160   0.15223   0.23542   0.00000  Uiso   1.00
N173   N     0.85507   0.18110   0.26457   0.00000  Uiso   1.00
O174   O     0.96435   0.24629   0.25357   0.00000  Uiso   1.00
O175   O     0.96785   0.21469   0.42704   0.00000  Uiso   1.00
O176   O     0.71516   0.00154   0.20194   0.00000  Uiso   1.00
O177   O     0.72408   0.23704   0.24423   0.00000  Uiso   1.00
O178   O     0.98157   0.17358   0.33380   0.00000  Uiso   1.00
O179   O     0.74130   0.16433   0.32446   0.00000  Uiso   1.00
O180   O     0.94258   0.09629   0.25576   0.00000  Uiso   1.00
O181   O     0.70231   0.08704   0.24642   0.00000  Uiso   1.00
O182   O     0.92537   0.16901   0.17554   0.00000  Uiso   1.00
O183   O     0.68510   0.15976   0.16620   0.00000  Uiso   1.00
O184   O     0.82898   0.11362   0.20499   0.00000  Uiso   1.00
Zn185  Zn    0.93786   0.17284   0.25623   0.00000  Uiso   1.00
Zn186  Zn    0.72881   0.16049   0.24376   0.00000  Uiso   1.00
C187   C     0.01498   0.59805   0.25067   0.00000  Uiso   1.00
C188   C     0.05334   0.50401   0.41655   0.00000  Uiso   1.00
C189   C     0.01817   0.65147   0.24238   0.00000  Uiso   1.00
C190   C     0.03546   0.50211   0.35532   0.00000  Uiso   1.00
C191   C     0.31842   0.34948   0.26750   0.00000  Uiso   1.00
C192   C     0.31943   0.40199   0.25309   0.00000  Uiso   1.00
C193   C     0.29763   0.49660   0.14509   0.00000  Uiso   1.00
C194   C     0.27091   0.43173   0.00246   0.00000  Uiso   1.00
C195   C     0.27742   0.48753   0.08553   0.00000  Uiso   1.00
C196   C     0.02316   0.53353   0.45064   0.00000  Uiso   1.00
C197   C     0.04930   0.54456   0.00740   0.00000  Uiso   1.00
C198   C     0.13440   0.50001   0.49434   0.00000  Uiso   1.00
C199   C     0.10483   0.53027   0.02803   0.00000  Uiso   1.00
C200   C     0.28706   0.33507   0.31507   0.00000  Uiso   1.00
C201   C     0.30597   0.37170   0.36717   0.00000  Uiso   1.00
C202   C     0.12174   0.43860   0.15460   0.00000  Uiso   1.00
C203   C     0.28402   0.59149   0.45524   0.00000  Uiso   1.00
C204   C     0.01472   0.65419   0.14804   0.00000  Uiso   1.00
C205   C     0.10521   0.48211   0.44023   0.00000  Uiso   1.00
C206   C     0.19158   0.48580   0.01318   0.00000  Uiso   1.00
C207   C     0.21546   0.44805   0.48183   0.00000  Uiso   1.00
C208   C     0.18290   0.42600   0.43148   0.00000  Uiso   1.00
C209   C     0.12860   0.44283   0.41080   0.00000  Uiso   1.00
C210   C     0.22557   0.50776   0.06288   0.00000  Uiso   1.00
C211   C     0.30144   0.45069   0.05487   0.00000  Uiso   1.00
H212   H     0.00850   0.43451   0.07253   0.00000  Uiso   1.00
H213   H     0.29094   0.41099   0.35981   0.00000  Uiso   1.00
H214   H     0.28607   0.35602   0.40100   0.00000  Uiso   1.00
H215   H     0.23944   0.33578   0.29998   0.00000  Uiso   1.00
H216   H     0.29586   0.62965   0.33079   0.00000  Uiso   1.00
H217   H     0.11433   0.47535   0.13328   0.00000  Uiso   1.00
H218   H     0.08064   0.41984   0.16177   0.00000  Uiso   1.00
H219   H     0.13926   0.41190   0.12609   0.00000  Uiso   1.00
H220   H     0.31895   0.62356   0.46438   0.00000  Uiso   1.00
H221   H     0.26969   0.58017   0.49411   0.00000  Uiso   1.00
H222   H     0.24597   0.60624   0.42769   0.00000  Uiso   1.00
H223   H     0.17642   0.54310   0.28989   0.00000  Uiso   1.00
H224   H     0.30556   0.33862   0.14194   0.00000  Uiso   1.00
H225   H     0.00794   0.61129   0.14024   0.00000  Uiso   1.00
H226   H     0.03832   0.33564   0.11603   0.00000  Uiso   1.00
H227   H     0.19929   0.39584   0.40783   0.00000  Uiso   1.00
H228   H     0.28943   0.40245   0.47988   0.00000  Uiso   1.00
H229   H     0.21158   0.53914   0.08661   0.00000  Uiso   1.00
H230   H     0.12228   0.54164   0.07145   0.00000  Uiso   1.00
H231   H     0.02788   0.56523   0.03625   0.00000  Uiso   1.00
H232   H     0.10475   0.42386   0.37191   0.00000  Uiso   1.00
H233   H     0.02047   0.37379   0.38118   0.00000  Uiso   1.00
N234   N     0.14493   0.48556   0.23542   0.00000  Uiso   1.00
N235   N     0.18840   0.51444   0.26457   0.00000  Uiso   1.00
O236   O     0.29769   0.57963   0.25357   0.00000  Uiso   1.00
O237   O     0.30118   0.54802   0.42704   0.00000  Uiso   1.00
O238   O     0.04850   0.33487   0.20194   0.00000  Uiso   1.00
O239   O     0.05742   0.57038   0.24423   0.00000  Uiso   1.00
O240   O     0.31490   0.50691   0.33380   0.00000  Uiso   1.00
O241   O     0.07463   0.49766   0.32446   0.00000  Uiso   1.00
O242   O     0.27592   0.42962   0.25576   0.00000  Uiso   1.00
O243   O     0.03565   0.42037   0.24642   0.00000  Uiso   1.00
O244   O     0.25870   0.50234   0.17554   0.00000  Uiso   1.00
O245   O     0.01843   0.49309   0.16620   0.00000  Uiso   1.00
O246   O     0.16231   0.44695   0.20499   0.00000  Uiso   1.00
Zn247  Zn    0.27119   0.50618   0.25623   0.00000  Uiso   1.00
Zn248  Zn    0.06214   0.49382   0.24376   0.00000  Uiso   1.00
C249   C     0.34831   0.59805   0.25067   0.00000  Uiso   1.00
C250   C     0.38667   0.50401   0.41655   0.00000  Uiso   1.00
C251   C     0.35150   0.65147   0.24238   0.00000  Uiso   1.00
C252   C     0.36879   0.50211   0.35532   0.00000  Uiso   1.00
C253   C     0.65175   0.34948   0.26750   0.00000  Uiso   1.00
C254   C     0.65276   0.40199   0.25309   0.00000  Uiso   1.00
C255   C     0.63096   0.49660   0.14509   0.00000  Uiso   1.00
C256   C     0.60424   0.43173   0.00246   0.00000  Uiso   1.00
C257   C     0.61075   0.48753   0.08553   0.00000  Uiso   1.00
C258   C     0.35649   0.53353   0.45064   0.00000  Uiso   1.00
C259   C     0.38264   0.54456   0.00740   0.00000  Uiso   1.00
C260   C     0.46774   0.50001   0.49434   0.00000  Uiso   1.00
C261   C     0.43816   0.53027   0.02803   0.00000  Uiso   1.00
C262   C     0.62039   0.33507   0.31507   0.00000  Uiso   1.00
C263   C     0.63930   0.37170   0.36717   0.00000  Uiso   1.00
C264   C     0.45507   0.43860   0.15460   0.00000  Uiso   1.00
C265   C     0.61735   0.59149   0.45524   0.00000  Uiso   1.00
C266   C     0.34806   0.65419   0.14804   0.00000  Uiso   1.00
C267   C     0.43854   0.48211   0.44023   0.00000  Uiso   1.00
C268   C     0.52491   0.48580   0.01318   0.00000  Uiso   1.00
C269   C     0.54879   0.44805   0.48183   0.00000  Uiso   1.00
C270   C     0.51623   0.42600   0.43148   0.00000  Uiso   1.00
C271   C     0.46193   0.44283   0.41080   0.00000  Uiso   1.00
C272   C     0.55891   0.50776   0.06288   0.00000  Uiso   1.00
C273   C     0.63478   0.45069   0.05487   0.00000  Uiso   1.00
H274   H     0.34184   0.43451   0.07253   0.00000  Uiso   1.00
H275   H     0.62427   0.41099   0.35981   0.00000  Uiso   1.00
H276   H     0.61940   0.35602   0.40100   0.00000  Uiso   1.00
H277   H     0.57277   0.33578   0.29998   0.00000  Uiso   1.00
H278   H     0.62920   0.62965   0.33079   0.00000  Uiso   1.00
H279   H     0.44766   0.47535   0.13328   0.00000  Uiso   1.00
H280   H     0.41398   0.41984   0.16177   0.00000  Uiso   1.00
H281   H     0.47259   0.41190   0.12609   0.00000  Uiso   1.00
H282   H     0.65228   0.62356   0.46438   0.00000  Uiso   1.00
H283   H     0.60302   0.58017   0.49411   0.00000  Uiso   1.00
H284   H     0.57931   0.60624   0.42769   0.00000  Uiso   1.00
H285   H     0.50976   0.54310   0.28989   0.00000  Uiso   1.00
H286   H     0.63889   0.33862   0.14194   0.00000  Uiso   1.00
H287   H     0.34127   0.61129   0.14024   0.00000  Uiso   1.00
H288   H     0.37166   0.33564   0.11603   0.00000  Uiso   1.00
H289   H     0.53263   0.39584   0.40783   0.00000  Uiso   1.00
H290   H     0.62276   0.40245   0.47988   0.00000  Uiso   1.00
H291   H     0.54492   0.53914   0.08661   0.00000  Uiso   1.00
H292   H     0.45561   0.54164   0.07145   0.00000  Uiso   1.00
H293   H     0.36122   0.56523   0.03625   0.00000  Uiso   1.00
H294   H     0.43808   0.42386   0.37191   0.00000  Uiso   1.00
H295   H     0.35380   0.37379   0.38118   0.00000  Uiso   1.00
N296   N     0.47827   0.48556   0.23542   0.00000  Uiso   1.00
N297   N     0.52173   0.51444   0.26457   0.00000  Uiso   1.00
O298   O     0.63102   0.57963   0.25357   0.00000  Uiso   1.00
O299   O     0.63452   0.54802   0.42704   0.00000  Uiso   1.00
O300   O     0.38183   0.33487   0.20194   0.00000  Uiso   1.00
O301   O     0.39075   0.57038   0.24423   0.00000  Uiso   1.00
O302   O     0.64823   0.50691   0.33380   0.00000  Uiso   1.00
O303   O     0.40796   0.49766   0.32446   0.00000  Uiso   1.00
O304   O     0.60925   0.42962   0.25576   0.00000  Uiso   1.00
O305   O     0.36898   0.42037   0.24642   0.00000  Uiso   1.00
O306   O     0.59204   0.50234   0.17554   0.00000  Uiso   1.00
O307   O     0.35177   0.49309   0.16620   0.00000  Uiso   1.00
O308   O     0.49564   0.44695   0.20499   0.00000  Uiso   1.00
Zn309  Zn    0.60453   0.50618   0.25623   0.00000  Uiso   1.00
Zn310  Zn    0.39547   0.49382   0.24376   0.00000  Uiso   1.00
C311   C     0.68164   0.59805   0.25067   0.00000  Uiso   1.00
C312   C     0.72000   0.50401   0.41655   0.00000  Uiso   1.00
C313   C     0.68483   0.65147   0.24238   0.00000  Uiso   1.00
C314   C     0.70212   0.50211   0.35532   0.00000  Uiso   1.00
C315   C     0.98508   0.34948   0.26750   0.00000  Uiso   1.00
C316   C     0.98610   0.40199   0.25309   0.00000  Uiso   1.00
C317   C     0.96429   0.49660   0.14509   0.00000  Uiso   1.00
C318   C     0.93758   0.43173   0.00246   0.00000  Uiso   1.00
C319   C     0.94409   0.48753   0.08553   0.00000  Uiso   1.00
C320   C     0.68982   0.53353   0.45064   0.00000  Uiso   1.00
C321   C     0.71597   0.54456   0.00740   0.00000  Uiso   1.00
C322   C     0.80107   0.50001   0.49434   0.00000  Uiso   1.00
C323   C     0.77150   0.53027   0.02803   0.00000  Uiso   1.00
C324   C     0.95372   0.33507   0.31507   0.00000  Uiso   1.00
C325   C     0.97264   0.37170   0.36717   0.00000  Uiso   1.00
C326   C     0.78841   0.43860   0.15460   0.00000  Uiso   1.00
C327   C     0.95068   0.59149   0.45524   0.00000  Uiso   1.00
C328   C     0.68139   0.65419   0.14804   0.00000  Uiso   1.00
C329   C     0.77187   0.48211   0.44023   0.00000  Uiso   1.00
C330   C     0.85825   0.48580   0.01318   0.00000  Uiso   1.00
C331   C     0.88213   0.44805   0.48183   0.00000  Uiso   1.00
C332   C     0.84957   0.42600   0.43148   0.00000  Uiso   1.00
C333   C     0.79527   0.44283   0.41080   0.00000  Uiso   1.00
C334   C     0.89224   0.50776   0.06288   0.00000  Uiso   1.00
C335   C     0.96811   0.45069   0.05487   0.00000  Uiso   1.00
H336   H     0.67517   0.43451   0.07253   0.00000  Uiso   1.00
H337   H     0.95761   0.41099   0.35981   0.00000  Uiso   1.00
H338   H     0.95273   0.35602   0.40100   0.00000  Uiso   1.00
H339   H     0.90610   0.33578   0.29998   0.00000  Uiso   1.00
H340   H     0.96253   0.62965   0.33079   0.00000  Uiso   1.00
H341   H     0.78099   0.47535   0.13328   0.00000  Uiso   1.00
H342   H     0.74731   0.41984   0.16177   0.00000  Uiso   1.00
H343   H     0.80593   0.41190   0.12609   0.00000  Uiso   1.00
H344   H     0.98562   0.62356   0.46438   0.00000  Uiso   1.00
H345   H     0.93635   0.58017   0.49411   0.00000  Uiso   1.00
H346   H     0.91264   0.60624   0.42769   0.00000  Uiso   1.00
H347   H     0.84309   0.54310   0.28989   0.00000  Uiso   1.00
H348   H     0.97222   0.33862   0.14194   0.00000  Uiso   1.00
H349   H     0.67461   0.61129   0.14024   0.00000  Uiso   1.00
H350   H     0.70499   0.33564   0.11603   0.00000  Uiso   1.00
H351   H     0.86596   0.39584   0.40783   0.00000  Uiso   1.00
H352   H     0.95609   0.40245   0.47988   0.00000  Uiso   1.00
H353   H     0.87825   0.53914   0.08661   0.00000  Uiso   1.00
H354   H     0.78894   0.54164   0.07145   0.00000  Uiso   1.00
H355   H     0.69455   0.56523   0.03625   0.00000  Uiso   1.00
H356   H     0.77141   0.42386   0.37191   0.00000  Uiso   1.00
H357   H     0.68713   0.37379   0.38118   0.00000  Uiso   1.00
N358   N     0.81160   0.48556   0.23542   0.00000  Uiso   1.00
N359   N     0.85507   0.51444   0.26457   0.00000  Uiso   1.00
O360   O     0.96435   0.57963   0.25357   0.00000  Uiso   1.00
O361   O     0.96785   0.54802   0.42704   0.00000  Uiso   1.00
O362   O     0.71516   0.33487   0.20194   0.00000  Uiso   1.00
O363   O     0.72408   0.57038   0.24423   0.00000  Uiso   1.00
O364   O     0.98157   0.50691   0.33380   0.00000  Uiso   1.00
O365   O     0.74130   0.49766   0.32446   0.00000  Uiso   1.00
O366   O     0.94258   0.42962   0.25576   0.00000  Uiso   1.00
O367   O     0.70231   0.42037   0.24642   0.00000  Uiso   1.00
O368   O     0.92537   0.50234   0.17554   0.00000  Uiso   1.00
O369   O     0.68510   0.49309   0.16620   0.00000  Uiso   1.00
O370   O     0.82898   0.44695   0.20499   0.00000  Uiso   1.00
Zn371  Zn    0.93786   0.50618   0.25623   0.00000  Uiso   1.00
Zn372  Zn    0.72881   0.49382   0.24376   0.00000  Uiso   1.00
C373   C     0.01498   0.93138   0.25067   0.00000  Uiso   1.00
C374   C     0.05334   0.83735   0.41655   0.00000  Uiso   1.00
C375   C     0.01817   0.98480   0.24238   0.00000  Uiso   1.00
C376   C     0.03546   0.83544   0.35532   0.00000  Uiso   1.00
C377   C     0.31842   0.68281   0.26750   0.00000  Uiso   1.00
C378   C     0.31943   0.73532   0.25309   0.00000  Uiso   1.00
C379   C     0.29763   0.82994   0.14509   0.00000  Uiso   1.00
C380   C     0.27091   0.76507   0.00246   0.00000  Uiso   1.00
C381   C     0.27742   0.82086   0.08553   0.00000  Uiso   1.00
C382   C     0.02316   0.86686   0.45064   0.00000  Uiso   1.00
C383   C     0.04930   0.87790   0.00740   0.00000  Uiso   1.00
C384   C     0.13440   0.83335   0.49434   0.00000  Uiso   1.00
C385   C     0.10483   0.86360   0.02803   0.00000  Uiso   1.00
C386   C     0.28706   0.66840   0.31507   0.00000  Uiso   1.00
C387   C     0.30597   0.70503   0.36717   0.00000  Uiso   1.00
C388   C     0.12174   0.77193   0.15460   0.00000  Uiso   1.00
C389   C     0.28402   0.92482   0.45524   0.00000  Uiso   1.00
C390   C     0.01472   0.98752   0.14804   0.00000  Uiso   1.00
C391   C     0.10521   0.81544   0.44023   0.00000  Uiso   1.00
C392   C     0.19158   0.81914   0.01318   0.00000  Uiso   1.00
C393   C     0.21546   0.78138   0.48183   0.00000  Uiso   1.00
C394   C     0.18290   0.75933   0.43148   0.00000  Uiso   1.00
C395   C     0.12860   0.77616   0.41080   0.00000  Uiso   1.00
C396   C     0.22557   0.84109   0.06288   0.00000  Uiso   1.00
C397   C     0.30144   0.78402   0.05487   0.00000  Uiso   1.00
H398   H     0.00850   0.76785   0.07253   0.00000  Uiso   1.00
H399   H     0.29094   0.74432   0.35981   0.00000  Uiso   1.00
H400   H     0.28607   0.68935   0.40100   0.00000  Uiso   1.00
H401   H     0.23944   0.66912   0.29998   0.00000  Uiso   1.00
H402   H     0.29586   0.96298   0.33079   0.00000  Uiso   1.00
H403   H     0.11433   0.80868   0.13328   0.00000  Uiso   1.00
H404   H     0.08064   0.75317   0.16177   0.00000  Uiso   1.00
H405   H     0.13926   0.74523   0.12609   0.00000  Uiso   1.00
H406   H     0.31895   0.95689   0.46438   0.00000  Uiso   1.00
H407   H     0.26969   0.91351   0.49411   0.00000  Uiso   1.00
H408   H     0.24597   0.93958   0.42769   0.00000  Uiso   1.00
H409   H     0.17642   0.87644   0.28989   0.00000  Uiso   1.00
H410   H     0.30556   0.67195   0.14194   0.00000  Uiso   1.00
H411   H     0.00794   0.94462   0.14024   0.00000  Uiso   1.00
H412   H     0.03832   0.66898   0.11603   0.00000  Uiso   1.00
H413   H     0.19929   0.72918   0.40783   0.00000  Uiso   1.00
H414   H     0.28943   0.73578   0.47988   0.00000  Uiso   1.00
H415   H     0.21158   0.87247   0.08661   0.00000  Uiso   1.00
H416   H     0.12228   0.87497   0.07145   0.00000  Uiso   1.00
H417   H     0.02788   0.89857   0.03625   0.00000  Uiso   1.00
H418   H     0.10475   0.75719   0.37191   0.00000  Uiso   1.00
H419   H     0.02047   0.70712   0.38118   0.00000  Uiso   1.00
N420   N     0.14493   0.81890   0.23542   0.00000  Uiso   1.00
N421   N     0.18840   0.84777   0.26457   0.00000  Uiso   1.00
O422   O     0.29769   0.91296   0.25357   0.00000  Uiso   1.00
O423   O     0.30118   0.88136   0.42704   0.00000  Uiso   1.00
O424   O     0.04850   0.66821   0.20194   0.00000  Uiso   1.00
O425   O     0.05742   0.90371   0.24423   0.00000  Uiso   1.00
O426   O     0.31490   0.84024   0.33380   0.00000  Uiso   1.00
O427   O     0.07463   0.83099   0.32446   0.00000  Uiso   1.00
O428   O     0.27592   0.76296   0.25576   0.00000  Uiso   1.00
O429   O     0.03565   0.75371   0.24642   0.00000  Uiso   1.00
O430   O     0.25870   0.83567   0.17554   0.00000  Uiso   1.00
O431   O     0.01843   0.82642   0.16620   0.00000  Uiso   1.00
O432   O     0.16231   0.78029   0.20499   0.00000  Uiso   1.00
Zn433  Zn    0.27119   0.83951   0.25623   0.00000  Uiso   1.00
Zn434  Zn    0.06214   0.82716   0.24376   0.00000  Uiso   1.00
C435   C     0.34831   0.93138   0.25067   0.00000  Uiso   1.00
C436   C     0.38667   0.83735   0.41655   0.00000  Uiso   1.00
C437   C     0.35150   0.98480   0.24238   0.00000  Uiso   1.00
C438   C     0.36879   0.83544   0.35532   0.00000  Uiso   1.00
C439   C     0.65175   0.68281   0.26750   0.00000  Uiso   1.00
C440   C     0.65276   0.73532   0.25309   0.00000  Uiso   1.00
C441   C     0.63096   0.82994   0.14509   0.00000  Uiso   1.00
C442   C     0.60424   0.76507   0.00246   0.00000  Uiso   1.00
C443   C     0.61075   0.82086   0.08553   0.00000  Uiso   1.00
C444   C     0.35649   0.86686   0.45064   0.00000  Uiso   1.00
C445   C     0.38264   0.87790   0.00740   0.00000  Uiso   1.00
C446   C     0.46774   0.83335   0.49434   0.00000  Uiso   1.00
C447   C     0.43816   0.86360   0.02803   0.00000  Uiso   1.00
C448   C     0.62039   0.66840   0.31507   0.00000  Uiso   1.00
C449   C     0.63930   0.70503   0.36717   0.00000  Uiso   1.00
C450   C     0.45507   0.77193   0.15460   0.00000  Uiso   1.00
C451   C     0.61735   0.92482   0.45524   0.00000  Uiso   1.00
C452   C     0.34806   0.98752   0.14804   0.00000  Uiso   1.00
C453   C     0.43854   0.81544   0.44023   0.00000  Uiso   1.00
C454   C     0.52491   0.81914   0.01318   0.00000  Uiso   1.00
C455   C     0.54879   0.78138   0.48183   0.00000  Uiso   1.00
C456   C     0.51623   0.75933   0.43148   0.00000  Uiso   1.00
C457   C     0.46193   0.77616   0.41080   0.00000  Uiso   1.00
C458   C     0.55891   0.84109   0.06288   0.00000  Uiso   1.00
C459   C     0.63478   0.78402   0.05487   0.00000  Uiso   1.00
H460   H     0.34184   0.76785   0.07253   0.00000  Uiso   1.00
H461   H     0.62427   0.74432   0.35981   0.00000  Uiso   1.00
H462   H     0.61940   0.68935   0.40100   0.00000  Uiso   1.00
H463   H     0.57277   0.66912   0.29998   0.00000  Uiso   1.00
H464   H     0.62920   0.96298   0.33079   0.00000  Uiso   1.00
H465   H     0.44766   0.80868   0.13328   0.00000  Uiso   1.00
H466   H     0.41398   0.75317   0.16177   0.00000  Uiso   1.00
H467   H     0.47259   0.74523   0.12609   0.00000  Uiso   1.00
H468   H     0.65228   0.95689   0.46438   0.00000  Uiso   1.00
H469   H     0.60302   0.91351   0.49411   0.00000  Uiso   1.00
H470   H     0.57931   0.93958   0.42769   0.00000  Uiso   1.00
H471   H     0.50976   0.87644   0.28989   0.00000  Uiso   1.00
H472   H     0.63889   0.67195   0.14194   0.00000  Uiso   1.00
H473   H     0.34127   0.94462   0.14024   0.00000  Uiso   1.00
H474   H     0.37166   0.66898   0.11603   0.00000  Uiso   1.00
H475   H     0.53263   0.72918   0.40783   0.00000  Uiso   1.00
H476   H     0.62276   0.73578   0.47988   0.00000  Uiso   1.00
H477   H     0.54492   0.87247   0.08661   0.00000  Uiso   1.00
H478   H     0.45561   0.87497   0.07145   0.00000  Uiso   1.00
H479   H     0.36122   0.89857   0.03625   0.00000  Uiso   1.00
H480   H     0.43808   0.75719   0.37191   0.00000  Uiso   1.00
H481   H     0.35380   0.70712   0.38118   0.00000  Uiso   1.00
N482   N     0.47827   0.81890   0.23542   0.00000  Uiso   1.00
N483   N     0.52173   0.84777   0.26457   0.00000  Uiso   1.00
O484   O     0.63102   0.91296   0.25357   0.00000  Uiso   1.00
O485   O     0.63452   0.88136   0.42704   0.00000  Uiso   1.00
O486   O     0.38183   0.66821   0.20194   0.00000  Uiso   1.00
O487   O     0.39075   0.90371   0.24423   0.00000  Uiso   1.00
O488   O     0.64823   0.84024   0.33380   0.00000  Uiso   1.00
O489   O     0.40796   0.83099   0.32446   0.00000  Uiso   1.00
O490   O     0.60925   0.76296   0.25576   0.00000  Uiso   1.00
O491   O     0.36898   0.75371   0.24642   0.00000  Uiso   1.00
O492   O     0.59204   0.83567   0.17554   0.00000  Uiso   1.00
O493   O     0.35177   0.82642   0.16620   0.00000  Uiso   1.00
O494   O     0.49564   0.78029   0.20499   0.00000  Uiso   1.00
Zn495  Zn    0.60453   0.83951   0.25623   0.00000  Uiso   1.00
Zn496  Zn    0.39547   0.82716   0.24376   0.00000  Uiso   1.00
C497   C     0.68164   0.93138   0.25067   0.00000  Uiso   1.00
C498   C     0.72000   0.83735   0.41655   0.00000  Uiso   1.00
C499   C     0.68483   0.98480   0.24238   0.00000  Uiso   1.00
C500   C     0.70212   0.83544   0.35532   0.00000  Uiso   1.00
C501   C     0.98508   0.68281   0.26750   0.00000  Uiso   1.00
C502   C     0.98610   0.73532   0.25309   0.00000  Uiso   1.00
C503   C     0.96429   0.82994   0.14509   0.00000  Uiso   1.00
C504   C     0.93758   0.76507   0.00246   0.00000  Uiso   1.00
C505   C     0.94409   0.82086   0.08553   0.00000  Uiso   1.00
C506   C     0.68982   0.86686   0.45064   0.00000  Uiso   1.00
C507   C     0.71597   0.87790   0.00740   0.00000  Uiso   1.00
C508   C     0.80107   0.83335   0.49434   0.00000  Uiso   1.00
C509   C     0.77150   0.86360   0.02803   0.00000  Uiso   1.00
C510   C     0.95372   0.66840   0.31507   0.00000  Uiso   1.00
C511   C     0.97264   0.70503   0.36717   0.00000  Uiso   1.00
C512   C     0.78841   0.77193   0.15460   0.00000  Uiso   1.00
C513   C     0.95068   0.92482   0.45524   0.00000  Uiso   1.00
C514   C     0.68139   0.98752   0.14804   0.00000  Uiso   1.00
C515   C     0.77187   0.81544   0.44023   0.00000  Uiso   1.00
C516   C     0.85825   0.81914   0.01318   0.00000  Uiso   1.00
C517   C     0.88213   0.78138   0.48183   0.00000  Uiso   1.00
C518   C     0.84957   0.75933   0.43148   0.00000  Uiso   1.00
C519   C     0.79527   0.77616   0.41080   0.00000  Uiso   1.00
C520   C     0.89224   0.84109   0.06288   0.00000  Uiso   1.00
C521   C     0.96811   0.78402   0.05487   0.00000  Uiso   1.00
H522   H     0.67517   0.76785   0.07253   0.00000  Uiso   1.00
H523   H     0.95761   0.74432   0.35981   0.00000  Uiso   1.00
H524   H     0.95273   0.68935   0.40100   0.00000  Uiso   1.00
H525   H     0.90610   0.66912   0.29998   0.00000  Uiso   1.00
H526   H     0.96253   0.96298   0.33079   0.00000  Uiso   1.00
H527   H     0.78099   0.80868   0.13328   0.00000  Uiso   1.00
H528   H     0.74731   0.75317   0.16177   0.00000  Uiso   1.00
H529   H     0.80593   0.74523   0.12609   0.00000  Uiso   1.00
H530   H     0.98562   0.95689   0.46438   0.00000  Uiso   1.00
H531   H     0.93635   0.91351   0.49411   0.00000  Uiso   1.00
H532   H     0.91264   0.93958   0.42769   0.00000  Uiso   1.00
H533   H     0.84309   0.87644   0.28989   0.00000  Uiso   1.00
H534   H     0.97222   0.67195   0.14194   0.00000  Uiso   1.00
H535   H     0.67461   0.94462   0.14024   0.00000  Uiso   1.00
H536   H     0.70499   0.66898   0.11603   0.00000  Uiso   1.00
H537   H     0.86596   0.72918   0.40783   0.00000  Uiso   1.00
H538   H     0.95609   0.73578   0.47988   0.00000  Uiso   1.00
H539   H     0.87825   0.87247   0.08661   0.00000  Uiso   1.00
H540   H     0.78894   0.87497   0.07145   0.00000  Uiso   1.00
H541   H     0.69455   0.89857   0.03625   0.00000  Uiso   1.00
H542   H     0.77141   0.75719   0.37191   0.00000  Uiso   1.00
H543   H     0.68713   0.70712   0.38118   0.00000  Uiso   1.00
N544   N     0.81160   0.81890   0.23542   0.00000  Uiso   1.00
N545   N     0.85507   0.84777   0.26457   0.00000  Uiso   1.00
O546   O     0.96435   0.91296   0.25357   0.00000  Uiso   1.00
O547   O     0.96785   0.88136   0.42704   0.00000  Uiso   1.00
O548   O     0.71516   0.66821   0.20194   0.00000  Uiso   1.00
O549   O     0.72408   0.90371   0.24423   0.00000  Uiso   1.00
O550   O     0.98157   0.84024   0.33380   0.00000  Uiso   1.00
O551   O     0.74130   0.83099   0.32446   0.00000  Uiso   1.00
O552   O     0.94258   0.76296   0.25576   0.00000  Uiso   1.00
O553   O     0.70231   0.75371   0.24642   0.00000  Uiso   1.00
O554   O     0.92537   0.83567   0.17554   0.00000  Uiso   1.00
O555   O     0.68510   0.82642   0.16620   0.00000  Uiso   1.00
O556   O     0.82898   0.78029   0.20499   0.00000  Uiso   1.00
Zn557  Zn    0.93786   0.83951   0.25623   0.00000  Uiso   1.00
Zn558  Zn    0.72881   0.82716   0.24376   0.00000  Uiso   1.00
C559   C     0.01498   0.26472   0.75067   0.00000  Uiso   1.00
C560   C     0.05334   0.17068   0.91655   0.00000  Uiso   1.00
C561   C     0.01817   0.31813   0.74238   0.00000  Uiso   1.00
C562   C     0.03546   0.16877   0.85532   0.00000  Uiso   1.00
C563   C     0.31842   0.01615   0.76750   0.00000  Uiso   1.00
C564   C     0.31943   0.06866   0.75309   0.00000  Uiso   1.00
C565   C     0.29763   0.16327   0.64509   0.00000  Uiso   1.00
C566   C     0.27091   0.09840   0.50246   0.00000  Uiso   1.00
C567   C     0.27742   0.15419   0.58553   0.00000  Uiso   1.00
C568   C     0.02316   0.20020   0.95064   0.00000  Uiso   1.00
C569   C     0.04930   0.21123   0.50740   0.00000  Uiso   1.00
C570   C     0.13440   0.16668   0.99434   0.00000  Uiso   1.00
C571   C     0.10483   0.19693   0.52803   0.00000  Uiso   1.00
C572   C     0.28706   0.00174   0.81507   0.00000  Uiso   1.00
C573   C     0.30597   0.03837   0.86717   0.00000  Uiso   1.00
C574   C     0.12174   0.10527   0.65460   0.00000  Uiso   1.00
C575   C     0.28402   0.25816   0.95524   0.00000  Uiso   1.00
C576   C     0.01472   0.32086   0.64804   0.00000  Uiso   1.00
C577   C     0.10521   0.14877   0.94023   0.00000  Uiso   1.00
C578   C     0.19158   0.15247   0.51318   0.00000  Uiso   1.00
C579   C     0.21546   0.11471   0.98183   0.00000  Uiso   1.00
C580   C     0.18290   0.09266   0.93148   0.00000  Uiso   1.00
C581   C     0.12860   0.10949   0.91080   0.00000  Uiso   1.00
C582   C     0.22557   0.17443   0.56288   0.00000  Uiso   1.00
C583   C     0.30144   0.11735   0.55487   0.00000  Uiso   1.00
H584   H     0.00850   0.10118   0.57253   0.00000  Uiso   1.00
H585   H     0.29094   0.07766   0.85981   0.00000  Uiso   1.00
H586   H     0.28607   0.02269   0.90100   0.00000  Uiso   1.00
H587   H     0.23944   0.00245   0.79998   0.00000  Uiso   1.00
H588   H     0.29586   0.29631   0.83079   0.00000  Uiso   1.00
H589   H     0.11433   0.14202   0.63328   0.00000  Uiso   1.00
H590   H     0.08064   0.08650   0.66177   0.00000  Uiso   1.00
H591   H     0.13926   0.07857   0.62609   0.00000  Uiso   1.00
H592   H     0.31895   0.29022   0.96438   0.00000  Uiso   1.00
H593   H     0.26969   0.24684   0.99411   0.00000  Uiso   1.00
H594   H     0.24597   0.27291   0.92769   0.00000  Uiso   1.00
H595   H     0.17642   0.20977   0.78989   0.00000  Uiso   1.00
H596   H     0.30556   0.00529   0.64194   0.00000  Uiso   1.00
H597   H     0.00794   0.27796   0.64024   0.00000  Uiso   1.00
H598   H     0.03832   0.00231   0.61603   0.00000  Uiso   1.00
H599   H     0.19929   0.06251   0.90783   0.00000  Uiso   1.00
H600   H     0.28943   0.06912   0.97988   0.00000  Uiso   1.00
H601   H     0.21158   0.20580   0.58661   0.00000  Uiso   1.00
H602   H     0.12228   0.20830   0.57145   0.00000  Uiso   1.00
H603   H     0.02788   0.23190   0.53625   0.00000  Uiso   1.00
H604   H     0.10475   0.09052   0.87191   0.00000  Uiso   1.00
H605   H     0.02047   0.04046   0.88118   0.00000  Uiso   1.00
N606   N     0.14493   0.15223   0.73542   0.00000  Uiso   1.00
N607   N     0.18840   0.18110   0.76457   0.00000  Uiso   1.00
O608   O     0.29769   0.24629   0.75357   0.00000  Uiso   1.00
O609   O     0.30118   0.21469   0.92704   0.00000  Uiso   1.00
O610   O     0.04850   0.00154   0.70194   0.00000  Uiso   1.00
O611   O     0.05742   0.23704   0.74423   0.00000  Uiso   1.00
O612   O     0.31490   0.17358   0.83380   0.00000  Uiso   1.00
O613   O     0.07463   0.16433   0.82446   0.00000  Uiso   1.00
O614   O     0.27592   0.09629   0.75576   0.00000  Uiso   1.00
O615   O     0.03565   0.08704   0.74642   0.00000  Uiso   1.00
O616   O     0.25870   0.16901   0.67554   0.00000  Uiso   1.00
O617   O     0.01843   0.15976   0.66620   0.00000  Uiso   1.00
O618   O     0.16231   0.11362   0.70499   0.00000  Uiso   1.00
Zn619  Zn    0.27119   0.17284   0.75623   0.00000  Uiso   1.00
Zn620  Zn    0.06214   0.16049   0.74376   0.00000  Uiso   1.00
C621   C     0.34831   0.26472   0.75067   0.00000  Uiso   1.00
C622   C     0.38667   0.17068   0.91655   0.00000  Uiso   1.00
C623   C     0.35150   0.31813   0.74238   0.00000  Uiso   1.00
C624   C     0.36879   0.16877   0.85532   0.00000  Uiso   1.00
C625   C     0.65175   0.01615   0.76750   0.00000  Uiso   1.00
C626   C     0.65276   0.06866   0.75309   0.00000  Uiso   1.00
C627   C     0.63096   0.16327   0.64509   0.00000  Uiso   1.00
C628   C     0.60424   0.09840   0.50246   0.00000  Uiso   1.00
C629   C     0.61075   0.15419   0.58553   0.00000  Uiso   1.00
C630   C     0.35649   0.20020   0.95064   0.00000  Uiso   1.00
C631   C     0.38264   0.21123   0.50740   0.00000  Uiso   1.00
C632   C     0.46774   0.16668   0.99434   0.00000  Uiso   1.00
C633   C     0.43816   0.19693   0.52803   0.00000  Uiso   1.00
C634   C     0.62039   0.00174   0.81507   0.00000  Uiso   1.00
C635   C     0.63930   0.03837   0.86717   0.00000  Uiso   1.00
C636   C     0.45507   0.10527   0.65460   0.00000  Uiso   1.00
C637   C     0.61735   0.25816   0.95524   0.00000  Uiso   1.00
C638   C     0.34806   0.32086   0.64804   0.00000  Uiso   1.00
C639   C     0.43854   0.14877   0.94023   0.00000  Uiso   1.00
C640   C     0.52491   0.15247   0.51318   0.00000  Uiso   1.00
C641   C     0.54879   0.11471   0.98183   0.00000  Uiso   1.00
C642   C     0.51623   0.09266   0.93148   0.00000  Uiso   1.00
C643   C     0.46193   0.10949   0.91080   0.00000  Uiso   1.00
C644   C     0.55891   0.17443   0.56288   0.00000  Uiso   1.00
C645   C     0.63478   0.11735   0.55487   0.00000  Uiso   1.00
H646   H     0.34184   0.10118   0.57253   0.00000  Uiso   1.00
H647   H     0.62427   0.07766   0.85981   0.00000  Uiso   1.00
H648   H     0.61940   0.02269   0.90100   0.00000  Uiso   1.00
H649   H     0.57277   0.00245   0.79998   0.00000  Uiso   1.00
H650   H     0.62920   0.29631   0.83079   0.00000  Uiso   1.00
H651   H     0.44766   0.14202   0.63328   0.00000  Uiso   1.00
H652   H     0.41398   0.08650   0.66177   0.00000  Uiso   1.00
H653   H     0.47259   0.07857   0.62609   0.00000  Uiso   1.00
H654   H     0.65228   0.29022   0.96438   0.00000  Uiso   1.00
H655   H     0.60302   0.24684   0.99411   0.00000  Uiso   1.00
H656   H     0.57931   0.27291   0.92769   0.00000  Uiso   1.00
H657   H     0.50976   0.20977   0.78989   0.00000  Uiso   1.00
H658   H     0.63889   0.00529   0.64194   0.00000  Uiso   1.00
H659   H     0.34127   0.27796   0.64024   0.00000  Uiso   1.00
H660   H     0.37166   0.00231   0.61603   0.00000  Uiso   1.00
H661   H     0.53263   0.06251   0.90783   0.00000  Uiso   1.00
H662   H     0.62276   0.06912   0.97988   0.00000  Uiso   1.00
H663   H     0.54492   0.20580   0.58661   0.00000  Uiso   1.00
H664   H     0.45561   0.20830   0.57145   0.00000  Uiso   1.00
H665   H     0.36122   0.23190   0.53625   0.00000  Uiso   1.00
H666   H     0.43808   0.09052   0.87191   0.00000  Uiso   1.00
H667   H     0.35380   0.04046   0.88118   0.00000  Uiso   1.00
N668   N     0.47827   0.15223   0.73542   0.00000  Uiso   1.00
N669   N     0.52173   0.18110   0.76457   0.00000  Uiso   1.00
O670   O     0.63102   0.24629   0.75357   0.00000  Uiso   1.00
O671   O     0.63452   0.21469   0.92704   0.00000  Uiso   1.00
O672   O     0.38183   0.00154   0.70194   0.00000  Uiso   1.00
O673   O     0.39075   0.23704   0.74423   0.00000  Uiso   1.00
O674   O     0.64823   0.17358   0.83380   0.00000  Uiso   1.00
O675   O     0.40796   0.16433   0.82446   0.00000  Uiso   1.00
O676   O     0.60925   0.09629   0.75576   0.00000  Uiso   1.00
O677   O     0.36898   0.08704   0.74642   0.00000  Uiso   1.00
O678   O     0.59204   0.16901   0.67554   0.00000  Uiso   1.00
O679   O     0.35177   0.15976   0.66620   0.00000  Uiso   1.00
O680   O     0.49564   0.11362   0.70499   0.00000  Uiso   1.00
Zn681  Zn    0.60453   0.17284   0.75623   0.00000  Uiso   1.00
Zn682  Zn    0.39547   0.16049   0.74376   0.00000  Uiso   1.00
C683   C     0.68164   0.26472   0.75067   0.00000  Uiso   1.00
C684   C     0.72000   0.17068   0.91655   0.00000  Uiso   1.00
C685   C     0.68483   0.31813   0.74238   0.00000  Uiso   1.00
C686   C     0.70212   0.16877   0.85532   0.00000  Uiso   1.00
C687   C     0.98508   0.01615   0.76750   0.00000  Uiso   1.00
C688   C     0.98610   0.06866   0.75309   0.00000  Uiso   1.00
C689   C     0.96429   0.16327   0.64509   0.00000  Uiso   1.00
C690   C     0.93758   0.09840   0.50246   0.00000  Uiso   1.00
C691   C     0.94409   0.15419   0.58553   0.00000  Uiso   1.00
C692   C     0.68982   0.20020   0.95064   0.00000  Uiso   1.00
C693   C     0.71597   0.21123   0.50740   0.00000  Uiso   1.00
C694   C     0.80107   0.16668   0.99434   0.00000  Uiso   1.00
C695   C     0.77150   0.19693   0.52803   0.00000  Uiso   1.00
C696   C     0.95372   0.00174   0.81507   0.00000  Uiso   1.00
C697   C     0.97264   0.03837   0.86717   0.00000  Uiso   1.00
C698   C     0.78841   0.10527   0.65460   0.00000  Uiso   1.00
C699   C     0.95068   0.25816   0.95524   0.00000  Uiso   1.00
C700   C     0.68139   0.32086   0.64804   0.00000  Uiso   1.00
C701   C     0.77187   0.14877   0.94023   0.00000  Uiso   1.00
C702   C     0.85825   0.15247   0.51318   0.00000  Uiso   1.00
C703   C     0.88213   0.11471   0.98183   0.00000  Uiso   1.00
C704   C     0.84957   0.09266   0.93148   0.00000  Uiso   1.00
C705   C     0.79527   0.10949   0.91080   0.00000  Uiso   1.00
C706   C     0.89224   0.17443   0.56288   0.00000  Uiso   1.00
C707   C     0.96811   0.11735   0.55487   0.00000  Uiso   1.00
H708   H     0.67517   0.10118   0.57253   0.00000  Uiso   1.00
H709   H     0.95761   0.07766   0.85981   0.00000  Uiso   1.00
H710   H     0.95273   0.02269   0.90100   0.00000  Uiso   1.00
H711   H     0.90610   0.00245   0.79998   0.00000  Uiso   1.00
H712   H     0.96253   0.29631   0.83079   0.00000  Uiso   1.00
H713   H     0.78099   0.14202   0.63328   0.00000  Uiso   1.00
H714   H     0.74731   0.08650   0.66177   0.00000  Uiso   1.00
H715   H     0.80593   0.07857   0.62609   0.00000  Uiso   1.00
H716   H     0.98562   0.29022   0.96438   0.00000  Uiso   1.00
H717   H     0.93635   0.24684   0.99411   0.00000  Uiso   1.00
H718   H     0.91264   0.27291   0.92769   0.00000  Uiso   1.00
H719   H     0.84309   0.20977   0.78989   0.00000  Uiso   1.00
H720   H     0.97222   0.00529   0.64194   0.00000  Uiso   1.00
H721   H     0.67461   0.27796   0.64024   0.00000  Uiso   1.00
H722   H     0.70499   0.00231   0.61603   0.00000  Uiso   1.00
H723   H     0.86596   0.06251   0.90783   0.00000  Uiso   1.00
H724   H     0.95609   0.06912   0.97988   0.00000  Uiso   1.00
H725   H     0.87825   0.20580   0.58661   0.00000  Uiso   1.00
H726   H     0.78894   0.20830   0.57145   0.00000  Uiso   1.00
H727   H     0.69455   0.23190   0.53625   0.00000  Uiso   1.00
H728   H     0.77141   0.09052   0.87191   0.00000  Uiso   1.00
H729   H     0.68713   0.04046   0.88118   0.00000  Uiso   1.00
N730   N     0.81160   0.15223   0.73542   0.00000  Uiso   1.00
N731   N     0.85507   0.18110   0.76457   0.00000  Uiso   1.00
O732   O     0.96435   0.24629   0.75357   0.00000  Uiso   1.00
O733   O     0.96785   0.21469   0.92704   0.00000  Uiso   1.00
O734   O     0.71516   0.00154   0.70194   0.00000  Uiso   1.00
O735   O     0.72408   0.23704   0.74423   0.00000  Uiso   1.00
O736   O     0.98157   0.17358   0.83380   0.00000  Uiso   1.00
O737   O     0.74130   0.16433   0.82446   0.00000  Uiso   1.00
O738   O     0.94258   0.09629   0.75576   0.00000  Uiso   1.00
O739   O     0.70231   0.08704   0.74642   0.00000  Uiso   1.00
O740   O     0.92537   0.16901   0.67554   0.00000  Uiso   1.00
O741   O     0.68510   0.15976   0.66620   0.00000  Uiso   1.00
O742   O     0.82898   0.11362   0.70499   0.00000  Uiso   1.00
Zn743  Zn    0.93786   0.17284   0.75623   0.00000  Uiso   1.00
Zn744  Zn    0.72881   0.16049   0.74376   0.00000  Uiso   1.00
C745   C     0.01498   0.59805   0.75067   0.00000  Uiso   1.00
C746   C     0.05334   0.50401   0.91655   0.00000  Uiso   1.00
C747   C     0.01817   0.65147   0.74238   0.00000  Uiso   1.00
C748   C     0.03546   0.50211   0.85532   0.00000  Uiso   1.00
C749   C     0.31842   0.34948   0.76750   0.00000  Uiso   1.00
C750   C     0.31943   0.40199   0.75309   0.00000  Uiso   1.00
C751   C     0.29763   0.49660   0.64509   0.00000  Uiso   1.00
C752   C     0.27091   0.43173   0.50246   0.00000  Uiso   1.00
C753   C     0.27742   0.48753   0.58553   0.00000  Uiso   1.00
C754   C     0.02316   0.53353   0.95064   0.00000  Uiso   1.00
C755   C     0.04930   0.54456   0.50740   0.00000  Uiso   1.00
C756   C     0.13440   0.50001   0.99434   0.00000  Uiso   1.00
C757   C     0.10483   0.53027   0.52803   0.00000  Uiso   1.00
C758   C     0.28706   0.33507   0.81507   0.00000  Uiso   1.00
C759   C     0.30597   0.37170   0.86717   0.00000  Uiso   1.00
C760   C     0.12174   0.43860   0.65460   0.00000  Uiso   1.00
C761   C     0.28402   0.59149   0.95524   0.00000  Uiso   1.00
C762   C     0.01472   0.65419   0.64804   0.00000  Uiso   1.00
C763   C     0.10521   0.48211   0.94023   0.00000  Uiso   1.00
C764   C     0.19158   0.48580   0.51318   0.00000  Uiso   1.00
C765   C     0.21546   0.44805   0.98183   0.00000  Uiso   1.00
C766   C     0.18290   0.42600   0.93148   0.00000  Uiso   1.00
C767   C     0.12860   0.44283   0.91080   0.00000  Uiso   1.00
C768   C     0.22557   0.50776   0.56288   0.00000  Uiso   1.00
C769   C     0.30144   0.45069   0.55487   0.00000  Uiso   1.00
H770   H     0.00850   0.43451   0.57253   0.00000  Uiso   1.00
H771   H     0.29094   0.41099   0.85981   0.00000  Uiso   1.00
H772   H     0.28607   0.35602   0.90100   0.00000  Uiso   1.00
H773   H     0.23944   0.33578   0.79998   0.00000  Uiso   1.00
H774   H     0.29586   0.62965   0.83079   0.00000  Uiso   1.00
H775   H     0.11433   0.47535   0.63328   0.00000  Uiso   1.00
H776   H     0.08064   0.41984   0.66177   0.00000  Uiso   1.00
H777   H     0.13926   0.41190   0.62609   0.00000  Uiso   1.00
H778   H     0.31895   0.62356   0.96438   0.00000  Uiso   1.00
H779   H     0.26969   0.58017   0.99411   0.00000  Uiso   1.00
H780   H     0.24597   0.60624   0.92769   0.00000  Uiso   1.00
H781   H     0.17642   0.54310   0.78989   0.00000  Uiso   1.00
H782   H     0.30556   0.33862   0.64194   0.00000  Uiso   1.00
H783   H     0.00794   0.61129   0.64024   0.00000  Uiso   1.00
H784   H     0.03832   0.33564   0.61603   0.00000  Uiso   1.00
H785   H     0.19929   0.39584   0.90783   0.00000  Uiso   1.00
H786   H     0.28943   0.40245   0.97988   0.00000  Uiso   1.00
H787   H     0.21158   0.53914   0.58661   0.00000  Uiso   1.00
H788   H     0.12228   0.54164   0.57145   0.00000  Uiso   1.00
H789   H     0.02788   0.56523   0.53625   0.00000  Uiso   1.00
H790   H     0.10475   0.42386   0.87191   0.00000  Uiso   1.00
H791   H     0.02047   0.37379   0.88118   0.00000  Uiso   1.00
N792   N     0.14493   0.48556   0.73542   0.00000  Uiso   1.00
N793   N     0.18840   0.51444   0.76457   0.00000  Uiso   1.00
O794   O     0.29769   0.57963   0.75357   0.00000  Uiso   1.00
O795   O     0.30118   0.54802   0.92704   0.00000  Uiso   1.00
O796   O     0.04850   0.33487   0.70194   0.00000  Uiso   1.00
O797   O     0.05742   0.57038   0.74423   0.00000  Uiso   1.00
O798   O     0.31490   0.50691   0.83380   0.00000  Uiso   1.00
O799   O     0.07463   0.49766   0.82446   0.00000  Uiso   1.00
O800   O     0.27592   0.42962   0.75576   0.00000  Uiso   1.00
O801   O     0.03565   0.42037   0.74642   0.00000  Uiso   1.00
O802   O     0.25870   0.50234   0.67554   0.00000  Uiso   1.00
O803   O     0.01843   0.49309   0.66620   0.00000  Uiso   1.00
O804   O     0.16231   0.44695   0.70499   0.00000  Uiso   1.00
Zn805  Zn    0.27119   0.50618   0.75623   0.00000  Uiso   1.00
Zn806  Zn    0.06214   0.49382   0.74376   0.00000  Uiso   1.00
C807   C     0.34831   0.59805   0.75067   0.00000  Uiso   1.00
C808   C     0.38667   0.50401   0.91655   0.00000  Uiso   1.00
C809   C     0.35150   0.65147   0.74238   0.00000  Uiso   1.00
C810   C     0.36879   0.50211   0.85532   0.00000  Uiso   1.00
C811   C     0.65175   0.34948   0.76750   0.00000  Uiso   1.00
C812   C     0.65276   0.40199   0.75309   0.00000  Uiso   1.00
C813   C     0.63096   0.49660   0.64509   0.00000  Uiso   1.00
C814   C     0.60424   0.43173   0.50246   0.00000  Uiso   1.00
C815   C     0.61075   0.48753   0.58553   0.00000  Uiso   1.00
C816   C     0.35649   0.53353   0.95064   0.00000  Uiso   1.00
C817   C     0.38264   0.54456   0.50740   0.00000  Uiso   1.00
C818   C     0.46774   0.50001   0.99434   0.00000  Uiso   1.00
C819   C     0.43816   0.53027   0.52803   0.00000  Uiso   1.00
C820   C     0.62039   0.33507   0.81507   0.00000  Uiso   1.00
C821   C     0.63930   0.37170   0.86717   0.00000  Uiso   1.00
C822   C     0.45507   0.43860   0.65460   0.00000  Uiso   1.00
C823   C     0.61735   0.59149   0.95524   0.00000  Uiso   1.00
C824   C     0.34806   0.65419   0.64804   0.00000  Uiso   1.00
C825   C     0.43854   0.48211   0.94023   0.00000  Uiso   1.00
C826   C     0.52491   0.48580   0.51318   0.00000  Uiso   1.00
C827   C     0.54879   0.44805   0.98183   0.00000  Uiso   1.00
C828   C     0.51623   0.42600   0.93148   0.00000  Uiso   1.00
C829   C     0.46193   0.44283   0.91080   0.00000  Uiso   1.00
C830   C     0.55891   0.50776   0.56288   0.00000  Uiso   1.00
C831   C     0.63478   0.45069   0.55487   0.00000  Uiso   1.00
H832   H     0.34184   0.43451   0.57253   0.00000  Uiso   1.00
H833   H     0.62427   0.41099   0.85981   0.00000  Uiso   1.00
H834   H     0.61940   0.35602   0.90100   0.00000  Uiso   1.00
H835   H     0.57277   0.33578   0.79998   0.00000  Uiso   1.00
H836   H     0.62920   0.62965   0.83079   0.00000  Uiso   1.00
H837   H     0.44766   0.47535   0.63328   0.00000  Uiso   1.00
H838   H     0.41398   0.41984   0.66177   0.00000  Uiso   1.00
H839   H     0.47259   0.41190   0.62609   0.00000  Uiso   1.00
H840   H     0.65228   0.62356   0.96438   0.00000  Uiso   1.00
H841   H     0.60302   0.58017   0.99411   0.00000  Uiso   1.00
H842   H     0.57931   0.60624   0.92769   0.00000  Uiso   1.00
H843   H     0.50976   0.54310   0.78989   0.00000  Uiso   1.00
H844   H     0.63889   0.33862   0.64194   0.00000  Uiso   1.00
H845   H     0.34127   0.61129   0.64024   0.00000  Uiso   1.00
H846   H     0.37166   0.33564   0.61603   0.00000  Uiso   1.00
H847   H     0.53263   0.39584   0.90783   0.00000  Uiso   1.00
H848   H     0.62276   0.40245   0.97988   0.00000  Uiso   1.00
H849   H     0.54492   0.53914   0.58661   0.00000  Uiso   1.00
H850   H     0.45561   0.54164   0.57145   0.00000  Uiso   1.00
H851   H     0.36122   0.56523   0.53625   0.00000  Uiso   1.00
H852   H     0.43808   0.42386   0.87191   0.00000  Uiso   1.00
H853   H     0.35380   0.37379   0.88118   0.00000  Uiso   1.00
N854   N     0.47827   0.48556   0.73542   0.00000  Uiso   1.00
N855   N     0.52173   0.51444   0.76457   0.00000  Uiso   1.00
O856   O     0.63102   0.57963   0.75357   0.00000  Uiso   1.00
O857   O     0.63452   0.54802   0.92704   0.00000  Uiso   1.00
O858   O     0.38183   0.33487   0.70194   0.00000  Uiso   1.00
O859   O     0.39075   0.57038   0.74423   0.00000  Uiso   1.00
O860   O     0.64823   0.50691   0.83380   0.00000  Uiso   1.00
O861   O     0.40796   0.49766   0.82446   0.00000  Uiso   1.00
O862   O     0.60925   0.42962   0.75576   0.00000  Uiso   1.00
O863   O     0.36898   0.42037   0.74642   0.00000  Uiso   1.00
O864   O     0.59204   0.50234   0.67554   0.00000  Uiso   1.00
O865   O     0.35177   0.49309   0.66620   0.00000  Uiso   1.00
O866   O     0.49564   0.44695   0.70499   0.00000  Uiso   1.00
Zn867  Zn    0.60453   0.50618   0.75623   0.00000  Uiso   1.00
Zn868  Zn    0.39547   0.49382   0.74376   0.00000  Uiso   1.00
C869   C     0.68164   0.59805   0.75067   0.00000  Uiso   1.00
C870   C     0.72000   0.50401   0.91655   0.00000  Uiso   1.00
C871   C     0.68483   0.65147   0.74238   0.00000  Uiso   1.00
C872   C     0.70212   0.50211   0.85532   0.00000  Uiso   1.00
C873   C     0.98508   0.34948   0.76750   0.00000  Uiso   1.00
C874   C     0.98610   0.40199   0.75309   0.00000  Uiso   1.00
C875   C     0.96429   0.49660   0.64509   0.00000  Uiso   1.00
C876   C     0.93758   0.43173   0.50246   0.00000  Uiso   1.00
C877   C     0.94409   0.48753   0.58553   0.00000  Uiso   1.00
C878   C     0.68982   0.53353   0.95064   0.00000  Uiso   1.00
C879   C     0.71597   0.54456   0.50740   0.00000  Uiso   1.00
C880   C     0.80107   0.50001   0.99434   0.00000  Uiso   1.00
C881   C     0.77150   0.53027   0.52803   0.00000  Uiso   1.00
C882   C     0.95372   0.33507   0.81507   0.00000  Uiso   1.00
C883   C     0.97264   0.37170   0.86717   0.00000  Uiso   1.00
C884   C     0.78841   0.43860   0.65460   0.00000  Uiso   1.00
C885   C     0.95068   0.59149   0.95524   0.00000  Uiso   1.00
C886   C     0.68139   0.65419   0.64804   0.00000  Uiso   1.00
C887   C     0.77187   0.48211   0.94023   0.00000  Uiso   1.00
C888   C     0.85825   0.48580   0.51318   0.00000  Uiso   1.00
C889   C     0.88213   0.44805   0.98183   0.00000  Uiso   1.00
C890   C     0.84957   0.42600   0.93148   0.00000  Uiso   1.00
C891   C     0.79527   0.44283   0.91080   0.00000  Uiso   1.00
C892   C     0.89224   0.50776   0.56288   0.00000  Uiso   1.00
C893   C     0.96811   0.45069   0.55487   0.00000  Uiso   1.00
H894   H     0.67517   0.43451   0.57253   0.00000  Uiso   1.00
H895   H     0.95761   0.41099   0.85981   0.00000  Uiso   1.00
H896   H     0.95273   0.35602   0.90100   0.00000  Uiso   1.00
H897   H     0.90610   0.33578   0.79998   0.00000  Uiso   1.00
H898   H     0.96253   0.62965   0.83079   0.00000  Uiso   1.00
H899   H     0.78099   0.47535   0.63328   0.00000  Uiso   1.00
H900   H     0.74731   0.41984   0.66177   0.00000  Uiso   1.00
H901   H     0.80593   0.41190   0.62609   0.00000  Uiso   1.00
H902   H     0.98562   0.62356   0.96438   0.00000  Uiso   1.00
H903   H     0.93635   0.58017   0.99411   0.00000  Uiso   1.00
H904   H     0.91264   0.60624   0.92769   0.00000  Uiso   1.00
H905   H     0.84309   0.54310   0.78989   0.00000  Uiso   1.00
H906   H     0.97222   0.33862   0.64194   0.00000  Uiso   1.00
H907   H     0.67461   0.61129   0.64024   0.00000  Uiso   1.00
H908   H     0.70499   0.33564   0.61603   0.00000  Uiso   1.00
H909   H     0.86596   0.39584   0.90783   0.00000  Uiso   1.00
H910   H     0.95609   0.40245   0.97988   0.00000  Uiso   1.00
H911   H     0.87825   0.53914   0.58661   0.00000  Uiso   1.00
H912   H     0.78894   0.54164   0.57145   0.00000  Uiso   1.00
H913   H     0.69455   0.56523   0.53625   0.00000  Uiso   1.00
H914   H     0.77141   0.42386   0.87191   0.00000  Uiso   1.00
H915   H     0.68713   0.37379   0.88118   0.00000  Uiso   1.00
N916   N     0.81160   0.48556   0.73542   0.00000  Uiso   1.00
N917   N     0.85507   0.51444   0.76457   0.00000  Uiso   1.00
O918   O     0.96435   0.57963   0.75357   0.00000  Uiso   1.00
O919   O     0.96785   0.54802   0.92704   0.00000  Uiso   1.00
O920   O     0.71516   0.33487   0.70194   0.00000  Uiso   1.00
O921   O     0.72408   0.57038   0.74423   0.00000  Uiso   1.00
O922   O     0.98157   0.50691   0.83380   0.00000  Uiso   1.00
O923   O     0.74130   0.49766   0.82446   0.00000  Uiso   1.00
O924   O     0.94258   0.42962   0.75576   0.00000  Uiso   1.00
O925   O     0.70231   0.42037   0.74642   0.00000  Uiso   1.00
O926   O     0.92537   0.50234   0.67554   0.00000  Uiso   1.00
O927   O     0.68510   0.49309   0.66620   0.00000  Uiso   1.00
O928   O     0.82898   0.44695   0.70499   0.00000  Uiso   1.00
Zn929  Zn    0.93786   0.50618   0.75623   0.00000  Uiso   1.00
Zn930  Zn    0.72881   0.49382   0.74376   0.00000  Uiso   1.00
C931   C     0.01498   0.93138   0.75067   0.00000  Uiso   1.00
C932   C     0.05334   0.83735   0.91655   0.00000  Uiso   1.00
C933   C     0.01817   0.98480   0.74238   0.00000  Uiso   1.00
C934   C     0.03546   0.83544   0.85532   0.00000  Uiso   1.00
C935   C     0.31842   0.68281   0.76750   0.00000  Uiso   1.00
C936   C     0.31943   0.73532   0.75309   0.00000  Uiso   1.00
C937   C     0.29763   0.82994   0.64509   0.00000  Uiso   1.00
C938   C     0.27091   0.76507   0.50246   0.00000  Uiso   1.00
C939   C     0.27742   0.82086   0.58553   0.00000  Uiso   1.00
C940   C     0.02316   0.86686   0.95064   0.00000  Uiso   1.00
C941   C     0.04930   0.87790   0.50740   0.00000  Uiso   1.00
C942   C     0.13440   0.83335   0.99434   0.00000  Uiso   1.00
C943   C     0.10483   0.86360   0.52803   0.00000  Uiso   1.00
C944   C     0.28706   0.66840   0.81507   0.00000  Uiso   1.00
C945   C     0.30597   0.70503   0.86717   0.00000  Uiso   1.00
C946   C     0.12174   0.77193   0.65460   0.00000  Uiso   1.00
C947   C     0.28402   0.92482   0.95524   0.00000  Uiso   1.00
C948   C     0.01472   0.98752   0.64804   0.00000  Uiso   1.00
C949   C     0.10521   0.81544   0.94023   0.00000  Uiso   1.00
C950   C     0.19158   0.81914   0.51318   0.00000  Uiso   1.00
C951   C     0.21546   0.78138   0.98183   0.00000  Uiso   1.00
C952   C     0.18290   0.75933   0.93148   0.00000  Uiso   1.00
C953   C     0.12860   0.77616   0.91080   0.00000  Uiso   1.00
C954   C     0.22557   0.84109   0.56288   0.00000  Uiso   1.00
C955   C     0.30144   0.78402   0.55487   0.00000  Uiso   1.00
H956   H     0.00850   0.76785   0.57253   0.00000  Uiso   1.00
H957   H     0.29094   0.74432   0.85981   0.00000  Uiso   1.00
H958   H     0.28607   0.68935   0.90100   0.00000  Uiso   1.00
H959   H     0.23944   0.66912   0.79998   0.00000  Uiso   1.00
H960   H     0.29586   0.96298   0.83079   0.00000  Uiso   1.00
H961   H     0.11433   0.80868   0.63328   0.00000  Uiso   1.00
H962   H     0.08064   0.75317   0.66177   0.00000  Uiso   1.00
H963   H     0.13926   0.74523   0.62609   0.00000  Uiso   1.00
H964   H     0.31895   0.95689   0.96438   0.00000  Uiso   1.00
H965   H     0.26969   0.91351   0.99411   0.00000  Uiso   1.00
H966   H     0.24597   0.93958   0.92769   0.00000  Uiso   1.00
H967   H     0.17642   0.87644   0.78989   0.00000  Uiso   1.00
H968   H     0.30556   0.67195   0.64194   0.00000  Uiso   1.00
H969   H     0.00794   0.94462   0.64024   0.00000  Uiso   1.00
H970   H     0.03832   0.66898   0.61603   0.00000  Uiso   1.00
H971   H     0.19929   0.72918   0.90783   0.00000  Uiso   1.00
H972   H     0.28943   0.73578   0.97988   0.00000  Uiso   1.00
H973   H     0.21158   0.87247   0.58661   0.00000  Uiso   1.00
H974   H     0.12228   0.87497   0.57145   0.00000  Uiso   1.00
H975   H     0.02788   0.89857   0.53625   0.00000  Uiso   1.00
H976   H     0.10475   0.75719   0.87191   0.00000  Uiso   1.00
H977   H     0.02047   0.70712   0.88118   0.00000  Uiso   1.00
N978   N     0.14493   0.81890   0.73542   0.00000  Uiso   1.00
N979   N     0.18840   0.84777   0.76457   0.00000  Uiso   1.00
O980   O     0.29769   0.91296   0.75357   0.00000  Uiso   1.00
O981   O     0.30118   0.88136   0.92704   0.00000  Uiso   1.00
O982   O     0.04850   0.66821   0.70194   0.00000  Uiso   1.00
O983   O     0.05742   0.90371   0.74423   0.00000  Uiso   1.00
O984   O     0.31490   0.84024   0.83380   0.00000  Uiso   1.00
O985   O     0.07463   0.83099   0.82446   0.00000  Uiso   1.00
O986   O     0.27592   0.76296   0.75576   0.00000  Uiso   1.00
O987   O     0.03565   0.75371   0.74642   0.00000  Uiso   1.00
O988   O     0.25870   0.83567   0.67554   0.00000  Uiso   1.00
O989   O     0.01843   0.82642   0.66620   0.00000  Uiso   1.00
O990   O     0.16231   0.78029   0.70499   0.00000  Uiso   1.00
Zn991  Zn    0.27119   0.83951   0.75623   0.00000  Uiso   1.00
Zn992  Zn    0.06214   0.82716   0.74376   0.00000  Uiso   1.00
C993   C     0.34831   0.93138   0.75067   0.00000  Uiso   1.00
C994   C     0.38667   0.83735   0.91655   0.00000  Uiso   1.00
C995   C     0.35150   0.98480   0.74238   0.00000  Uiso   1.00
C996   C     0.36879   0.83544   0.85532   0.00000  Uiso   1.00
C997   C     0.65175   0.68281   0.76750   0.00000  Uiso   1.00
C998   C     0.65276   0.73532   0.75309   0.00000  Uiso   1.00
C999   C     0.63096   0.82994   0.64509   0.00000  Uiso   1.00
C1000  C     0.60424   0.76507   0.50246   0.00000  Uiso   1.00
C1001  C     0.61075   0.82086   0.58553   0.00000  Uiso   1.00
C1002  C     0.35649   0.86686   0.95064   0.00000  Uiso   1.00
C1003  C     0.38264   0.87790   0.50740   0.00000  Uiso   1.00
C1004  C     0.46774   0.83335   0.99434   0.00000  Uiso   1.00
C1005  C     0.43816   0.86360   0.52803   0.00000  Uiso   1.00
C1006  C     0.62039   0.66840   0.81507   0.00000  Uiso   1.00
C1007  C     0.63930   0.70503   0.86717   0.00000  Uiso   1.00
C1008  C     0.45507   0.77193   0.65460   0.00000  Uiso   1.00
C1009  C     0.61735   0.92482   0.95524   0.00000  Uiso   1.00
C1010  C     0.34806   0.98752   0.64804   0.00000  Uiso   1.00
C1011  C     0.43854   0.81544   0.94023   0.00000  Uiso   1.00
C1012  C     0.52491   0.81914   0.51318   0.00000  Uiso   1.00
C1013  C     0.54879   0.78138   0.98183   0.00000  Uiso   1.00
C1014  C     0.51623   0.75933   0.93148   0.00000  Uiso   1.00
C1015  C     0.46193   0.77616   0.91080   0.00000  Uiso   1.00
C1016  C     0.55891   0.84109   0.56288   0.00000  Uiso   1.00
C1017  C     0.63478   0.78402   0.55487   0.00000  Uiso   1.00
H1018  H     0.34184   0.76785   0.57253   0.00000  Uiso   1.00
H1019  H     0.62427   0.74432   0.85981   0.00000  Uiso   1.00
H1020  H     0.61940   0.68935   0.90100   0.00000  Uiso   1.00
H1021  H     0.57277   0.66912   0.79998   0.00000  Uiso   1.00
H1022  H     0.62920   0.96298   0.83079   0.00000  Uiso   1.00
H1023  H     0.44766   0.80868   0.63328   0.00000  Uiso   1.00
H1024  H     0.41398   0.75317   0.66177   0.00000  Uiso   1.00
H1025  H     0.47259   0.74523   0.62609   0.00000  Uiso   1.00
H1026  H     0.65228   0.95689   0.96438   0.00000  Uiso   1.00
H1027  H     0.60302   0.91351   0.99411   0.00000  Uiso   1.00
H1028  H     0.57931   0.93958   0.92769   0.00000  Uiso   1.00
H1029  H     0.50976   0.87644   0.78989   0.00000  Uiso   1.00
H1030  H     0.63889   0.67195   0.64194   0.00000  Uiso   1.00
H1031  H     0.34127   0.94462   0.64024   0.00000  Uiso   1.00
H1032  H     0.37166   0.66898   0.61603   0.00000  Uiso   1.00
H1033  H     0.53263   0.72918   0.90783   0.00000  Uiso   1.00
H1034  H     0.62276   0.73578   0.97988   0.00000  Uiso   1.00
H1035  H     0.54492   0.87247   0.58661   0.00000  Uiso   1.00
H1036  H     0.45561   0.87497   0.57145   0.00000  Uiso   1.00
H1037  H     0.36122   0.89857   0.53625   0.00000  Uiso   1.00
H1038  H     0.43808   0.75719   0.87191   0.00000  Uiso   1.00
H1039  H     0.35380   0.70712   0.88118   0.00000  Uiso   1.00
N1040  N     0.47827   0.81890   0.73542   0.00000  Uiso   1.00
N1041  N     0.52173   0.84777   0.76457   0.00000  Uiso   1.00
O1042  O     0.63102   0.91296   0.75357   0.00000  Uiso   1.00
O1043  O     0.63452   0.88136   0.92704   0.00000  Uiso   1.00
O1044  O     0.38183   0.66821   0.70194   0.00000  Uiso   1.00
O1045  O     0.39075   0.90371   0.74423   0.00000  Uiso   1.00
O1046  O     0.64823   0.84024   0.83380   0.00000  Uiso   1.00
O1047  O     0.40796   0.83099   0.82446   0.00000  Uiso   1.00
O1048  O     0.60925   0.76296   0.75576   0.00000  Uiso   1.00
O1049  O     0.36898   0.75371   0.74642   0.00000  Uiso   1.00
O1050  O     0.59204   0.83567   0.67554   0.00000  Uiso   1.00
O1051  O     0.35177   0.82642   0.66620   0.00000  Uiso   1.00
O1052  O     0.49564   0.78029   0.70499   0.00000  Uiso   1.00
Zn1053 Zn    0.60453   0.83951   0.75623   0.00000  Uiso   1.00
Zn1054 Zn    0.39547   0.82716   0.74376   0.00000  Uiso   1.00
C1055  C     0.68164   0.93138   0.75067   0.00000  Uiso   1.00
C1056  C     0.72000   0.83735   0.91655   0.00000  Uiso   1.00
C1057  C     0.68483   0.98480   0.74238   0.00000  Uiso   1.00
C1058  C     0.70212   0.83544   0.85532   0.00000  Uiso   1.00
C1059  C     0.98508   0.68281   0.76750   0.00000  Uiso   1.00
C1060  C     0.98610   0.73532   0.75309   0.00000  Uiso   1.00
C1061  C     0.96429   0.82994   0.64509   0.00000  Uiso   1.00
C1062  C     0.93758   0.76507   0.50246   0.00000  Uiso   1.00
C1063  C     0.94409   0.82086   0.58553   0.00000  Uiso   1.00
C1064  C     0.68982   0.86686   0.95064   0.00000  Uiso   1.00
C1065  C     0.71597   0.87790   0.50740   0.00000  Uiso   1.00
C1066  C     0.80107   0.83335   0.99434   0.00000  Uiso   1.00
C1067  C     0.77150   0.86360   0.52803   0.00000  Uiso   1.00
C1068  C     0.95372   0.66840   0.81507   0.00000  Uiso   1.00
C1069  C     0.97264   0.70503   0.86717   0.00000  Uiso   1.00
C1070  C     0.78841   0.77193   0.65460   0.00000  Uiso   1.00
C1071  C     0.95068   0.92482   0.95524   0.00000  Uiso   1.00
C1072  C     0.68139   0.98752   0.64804   0.00000  Uiso   1.00
C1073  C     0.77187   0.81544   0.94023   0.00000  Uiso   1.00
C1074  C     0.85825   0.81914   0.51318   0.00000  Uiso   1.00
C1075  C     0.88213   0.78138   0.98183   0.00000  Uiso   1.00
C1076  C     0.84957   0.75933   0.93148   0.00000  Uiso   1.00
C1077  C     0.79527   0.77616   0.91080   0.00000  Uiso   1.00
C1078  C     0.89224   0.84109   0.56288   0.00000  Uiso   1.00
C1079  C     0.96811   0.78402   0.55487   0.00000  Uiso   1.00
H1080  H     0.67517   0.76785   0.57253   0.00000  Uiso   1.00
H1081  H     0.95761   0.74432   0.85981   0.00000  Uiso   1.00
H1082  H     0.95273   0.68935   0.90100   0.00000  Uiso   1.00
H1083  H     0.90610   0.66912   0.79998   0.00000  Uiso   1.00
H1084  H     0.96253   0.96298   0.83079   0.00000  Uiso   1.00
H1085  H     0.78099   0.80868   0.63328   0.00000  Uiso   1.00
H1086  H     0.74731   0.75317   0.66177   0.00000  Uiso   1.00
H1087  H     0.80593   0.74523   0.62609   0.00000  Uiso   1.00
H1088  H     0.98562   0.95689   0.96438   0.00000  Uiso   1.00
H1089  H     0.93635   0.91351   0.99411   0.00000  Uiso   1.00
H1090  H     0.91264   0.93958   0.92769   0.00000  Uiso   1.00
H1091  H     0.84309   0.87644   0.78989   0.00000  Uiso   1.00
H1092  H     0.97222   0.67195   0.64194   0.00000  Uiso   1.00
H1093  H     0.67461   0.94462   0.64024   0.00000  Uiso   1.00
H1094  H     0.70499   0.66898   0.61603   0.00000  Uiso   1.00
H1095  H     0.86596   0.72918   0.90783   0.00000  Uiso   1.00
H1096  H     0.95609   0.73578   0.97988   0.00000  Uiso   1.00
H1097  H     0.87825   0.87247   0.58661   0.00000  Uiso   1.00
H1098  H     0.78894   0.87497   0.57145   0.00000  Uiso   1.00
H1099  H     0.69455   0.89857   0.53625   0.00000  Uiso   1.00
H1100  H     0.77141   0.75719   0.87191   0.00000  Uiso   1.00
H1101  H     0.68713   0.70712   0.88118   0.00000  Uiso   1.00
N1102  N     0.81160   0.81890   0.73542   0.00000  Uiso   1.00
N1103  N     0.85507   0.84777   0.76457   0.00000  Uiso   1.00
O1104  O     0.96435   0.91296   0.75357   0.00000  Uiso   1.00
O1105  O     0.96785   0.88136   0.92704   0.00000  Uiso   1.00
O1106  O     0.71516   0.66821   0.70194   0.00000  Uiso   1.00
O1107  O     0.72408   0.90371   0.74423   0.00000  Uiso   1.00
O1108  O     0.98157   0.84024   0.83380   0.00000  Uiso   1.00
O1109  O     0.74130   0.83099   0.82446   0.00000  Uiso   1.00
O1110  O     0.94258   0.76296   0.75576   0.00000  Uiso   1.00
O1111  O     0.70231   0.75371   0.74642   0.00000  Uiso   1.00
O1112  O     0.92537   0.83567   0.67554   0.00000  Uiso   1.00
O1113  O     0.68510   0.82642   0.66620   0.00000  Uiso   1.00
O1114  O     0.82898   0.78029   0.70499   0.00000  Uiso   1.00
Zn1115 Zn    0.93786   0.83951   0.75623   0.00000  Uiso   1.00
Zn1116 Zn    0.72881   0.82716   0.74376   0.00000  Uiso   1.00
loop_
_geom_bond_atom_site_label_1
_geom_bond_atom_site_label_2
_geom_bond_distance
_geom_bond_site_symmetry_2
_ccdc_geom_bond_type
C1     O53     1.294   .     A
C1     C3      1.404   .     S
C1     O174    1.271   1_455 S
C2     C4      1.465   .     S
C2     C10     1.419   .     A
C2     C19     1.409   .     A
C3     C315    1.362   1_455 S
C3     O238    1.392   .     S
C4     O55     1.304   .     A
C4     O178    1.291   1_455 S
C5     C6      1.417   .     S
C5     C14     1.536   .     S
C5     C437    1.362   1_545 S
C6     O56     1.295   .     A
C6     O119    1.274   .     S
C7     O58     1.296   .     A
C7     C9      1.439   .     S
C7     O121    1.289   .     S
C8     C25     1.388   .     A
C8     C579    1.403   1_554 S
C8     H600    1.077   1_554 S
C9     C24     1.383   .     A
C9     C25     1.396   .     A
C10    C569    1.407   .     S
C10    O175    1.398   1_455 S
C11    C13     1.386   .     A
C11    H45     1.081   .     S
C11    C568    1.407   1_554 S
C12    C19     1.405   .     A
C12    C571    1.414   .     S
C12    C578    1.412   .     S
C13    H44     1.077   .     S
C13    C570    1.414   1_554 S
C14    H29     1.111   .     S
C14    C15     1.523   .     S
C14    H402    1.106   1_545 S
C15    H28     1.103   .     S
C15    H27     1.107   .     S
C15    H109    1.108   .     S
C16    H33     1.109   .     S
C16    H32     1.103   .     S
C16    H31     1.110   .     S
C16    O60     1.399   .     S
C17    O51     1.411   .     S
C17    H36     1.109   .     S
C17    H34     1.113   .     S
C17    H35     1.109   .     S
C18    H39     1.112   .     S
C18    H348    1.113   1_455 S
C18    H226    1.109   .     S
C18    O238    1.414   .     S
C19    C23     1.415   .     A
C20    C24     1.389   .     A
C20    C570    1.412   1_554 S
C20    C579    1.420   1_554 S
C21    C22     1.389   .     A
C21    C566    1.403   .     S
C21    C578    1.420   .     S
C22    C23     1.384   .     A
C22    H41     1.082   .     S
C23    H46     1.081   .     S
C24    H43     1.079   .     S
C25    H88     1.082   .     S
H26    C149    1.082   1_455 S
H30    C200    1.106   .     S
H37    N49     1.029   .     S
H38    C452    1.113   1_545 S
H40    C390    1.109   1_545 S
H42    C566    1.077   .     S
H47    C139    1.108   1_455 S
N48    Zn62    2.021   .     S
N48    N49     1.296   .     D
N48    O60     1.346   .     S
N49    Zn61    2.021   .     S
O50    Zn61    1.968   .     S
O50    C63     1.271   .     S
O51    C72     1.398   .     S
O52    C390    1.414   1_545 S
O52    C375    1.392   1_545 S
O53    Zn62    1.988   .     S
O54    Zn61    1.965   .     S
O54    C66     1.291   .     S
O55    Zn62    1.925   .     S
O56    Zn61    1.988   .     S
O57    Zn62    1.968   .     S
O57    C130    1.274   1_455 S
O58    Zn61    1.925   .     S
O59    Zn62    1.965   .     S
O59    C131    1.289   1_455 S
C63    O115    1.294   .     A
C63    C65     1.404   .     S
C64    C66     1.465   .     S
C64    C72     1.419   .     A
C64    C81     1.409   .     A
C65    C191    1.362   .     S
C65    O300    1.392   .     S
C66    O117    1.304   .     A
C67    C68     1.417   .     S
C67    C76     1.536   .     S
C67    C499    1.362   1_545 S
C68    O118    1.295   .     A
C68    O181    1.274   .     S
C69    O120    1.296   .     A
C69    C71     1.439   .     S
C69    O183    1.289   .     S
C70    C87     1.388   .     A
C70    C641    1.403   1_554 S
C70    H662    1.077   1_554 S
C71    C86     1.383   .     A
C71    C87     1.396   .     A
C72    C631    1.407   .     S
C73    C75     1.386   .     A
C73    H107    1.081   .     S
C73    C630    1.407   1_554 S
C74    C81     1.405   .     A
C74    C633    1.414   .     S
C74    C640    1.412   .     S
C75    H106    1.077   .     S
C75    C632    1.414   1_554 S
C76    H91     1.111   .     S
C76    C77     1.523   .     S
C76    H464    1.106   1_545 S
C77    H90     1.103   .     S
C77    H89     1.107   .     S
C77    H171    1.108   .     S
C78    H95     1.109   .     S
C78    H94     1.103   .     S
C78    H93     1.110   .     S
C78    O122    1.399   .     S
C79    O113    1.411   .     S
C79    H98     1.109   .     S
C79    H96     1.113   .     S
C79    H97     1.109   .     S
C80    H101    1.112   .     S
C80    H224    1.113   .     S
C80    H288    1.109   .     S
C80    O300    1.414   .     S
C81    C85     1.415   .     A
C82    C86     1.389   .     A
C82    C632    1.412   1_554 S
C82    C641    1.420   1_554 S
C83    C84     1.389   .     A
C83    C628    1.403   .     S
C83    C640    1.420   .     S
C84    C85     1.384   .     A
C84    H103    1.082   .     S
C85    H108    1.081   .     S
C86    H105    1.079   .     S
C87    H150    1.082   .     S
H92    C262    1.106   .     S
H99    N111    1.029   .     S
H100   C514    1.113   1_545 S
H102   C452    1.109   1_545 S
H104   C628    1.077   .     S
N110   Zn124   2.021   .     S
N110   N111    1.296   .     D
N110   O122    1.346   .     S
N111   Zn123   2.021   .     S
O112   Zn123   1.968   .     S
O112   C125    1.271   .     S
O113   C134    1.398   .     S
O114   C452    1.414   1_545 S
O114   C437    1.392   1_545 S
O115   Zn124   1.988   .     S
O116   Zn123   1.965   .     S
O116   C128    1.291   .     S
O117   Zn124   1.925   .     S
O118   Zn123   1.988   .     S
O119   Zn124   1.968   .     S
O120   Zn123   1.925   .     S
O121   Zn124   1.965   .     S
C125   O177    1.294   .     A
C125   C127    1.404   .     S
C126   C128    1.465   .     S
C126   C134    1.419   .     A
C126   C143    1.409   .     A
C127   C253    1.362   .     S
C127   O362    1.392   .     S
C128   O179    1.304   .     A
C129   C130    1.417   .     S
C129   C138    1.536   .     S
C129   C375    1.362   1_645 S
C130   O180    1.295   .     A
C130   O57     1.274   1_655 S
C131   O182    1.296   .     A
C131   C133    1.439   .     S
C131   O59     1.289   1_655 S
C132   C149    1.388   .     A
C132   C703    1.403   1_554 S
C132   H724    1.077   1_554 S
C133   C148    1.383   .     A
C133   C149    1.396   .     A
C134   C693    1.407   .     S
C135   C137    1.386   .     A
C135   H169    1.081   .     S
C135   C692    1.407   1_554 S
C136   C143    1.405   .     A
C136   C695    1.414   .     S
C136   C702    1.412   .     S
C137   H168    1.077   .     S
C137   C694    1.414   1_554 S
C138   H153    1.111   .     S
C138   C139    1.523   .     S
C138   H526    1.106   1_545 S
C139   H152    1.103   .     S
C139   H151    1.107   .     S
C139   H47     1.108   1_655 S
C140   H157    1.109   .     S
C140   H156    1.103   .     S
C140   H155    1.110   .     S
C140   O184    1.399   .     S
C141   O175    1.411   .     S
C141   H160    1.109   .     S
C141   H158    1.113   .     S
C141   H159    1.109   .     S
C142   H163    1.112   .     S
C142   H286    1.113   .     S
C142   H350    1.109   .     S
C142   O362    1.414   .     S
C143   C147    1.415   .     A
C144   C148    1.389   .     A
C144   C694    1.412   1_554 S
C144   C703    1.420   1_554 S
C145   C146    1.389   .     A
C145   C690    1.403   .     S
C145   C702    1.420   .     S
C146   C147    1.384   .     A
C146   H165    1.082   .     S
C147   H170    1.081   .     S
C148   H167    1.079   .     S
C149   H26     1.082   1_655 S
H154   C324    1.106   .     S
H161   N173    1.029   .     S
H162   C390    1.113   1_645 S
H164   C514    1.109   1_545 S
H166   C690    1.077   .     S
N172   Zn186   2.021   .     S
N172   N173    1.296   .     D
N172   O184    1.346   .     S
N173   Zn185   2.021   .     S
O174   Zn185   1.968   .     S
O174   C1      1.271   1_655 S
O175   C10     1.398   1_655 S
O176   C514    1.414   1_545 S
O176   C499    1.392   1_545 S
O177   Zn186   1.988   .     S
O178   Zn185   1.965   .     S
O178   C4      1.291   1_655 S
O179   Zn186   1.925   .     S
O180   Zn185   1.988   .     S
O181   Zn186   1.968   .     S
O182   Zn185   1.925   .     S
O183   Zn186   1.965   .     S
C187   O239    1.294   .     A
C187   C189    1.404   .     S
C187   O360    1.271   1_455 S
C188   C190    1.465   .     S
C188   C196    1.419   .     A
C188   C205    1.409   .     A
C189   C501    1.362   1_455 S
C189   O424    1.392   .     S
C190   O241    1.304   .     A
C190   O364    1.291   1_455 S
C191   C192    1.417   .     S
C191   C200    1.536   .     S
C192   O242    1.295   .     A
C192   O305    1.274   .     S
C193   O244    1.296   .     A
C193   C195    1.439   .     S
C193   O307    1.289   .     S
C194   C211    1.388   .     A
C194   C765    1.403   1_554 S
C194   H786    1.077   1_554 S
C195   C210    1.383   .     A
C195   C211    1.396   .     A
C196   C755    1.407   .     S
C196   O361    1.398   1_455 S
C197   C199    1.386   .     A
C197   H231    1.081   .     S
C197   C754    1.407   1_554 S
C198   C205    1.405   .     A
C198   C757    1.414   .     S
C198   C764    1.412   .     S
C199   H230    1.077   .     S
C199   C756    1.414   1_554 S
C200   H215    1.111   .     S
C200   C201    1.523   .     S
C201   H214    1.103   .     S
C201   H213    1.107   .     S
C201   H295    1.108   .     S
C202   H219    1.109   .     S
C202   H218    1.103   .     S
C202   H217    1.110   .     S
C202   O246    1.399   .     S
C203   O237    1.411   .     S
C203   H222    1.109   .     S
C203   H220    1.113   .     S
C203   H221    1.109   .     S
C204   H225    1.112   .     S
C204   H534    1.113   1_455 S
C204   H412    1.109   .     S
C204   O424    1.414   .     S
C205   C209    1.415   .     A
C206   C210    1.389   .     A
C206   C756    1.412   1_554 S
C206   C765    1.420   1_554 S
C207   C208    1.389   .     A
C207   C752    1.403   .     S
C207   C764    1.420   .     S
C208   C209    1.384   .     A
C208   H227    1.082   .     S
C209   H232    1.081   .     S
C210   H229    1.079   .     S
C211   H274    1.082   .     S
H212   C335    1.082   1_455 S
H216   C386    1.106   .     S
H223   N235    1.029   .     S
H228   C752    1.077   .     S
H233   C325    1.108   1_455 S
N234   Zn248   2.021   .     S
N234   N235    1.296   .     D
N234   O246    1.346   .     S
N235   Zn247   2.021   .     S
O236   Zn247   1.968   .     S
O236   C249    1.271   .     S
O237   C258    1.398   .     S
O239   Zn248   1.988   .     S
O240   Zn247   1.965   .     S
O240   C252    1.291   .     S
O241   Zn248   1.925   .     S
O242   Zn247   1.988   .     S
O243   Zn248   1.968   .     S
O243   C316    1.274   1_455 S
O244   Zn247   1.925   .     S
O245   Zn248   1.965   .     S
O245   C317    1.289   1_455 S
C249   O301    1.294   .     A
C249   C251    1.404   .     S
C250   C252    1.465   .     S
C250   C258    1.419   .     A
C250   C267    1.409   .     A
C251   C377    1.362   .     S
C251   O486    1.392   .     S
C252   O303    1.304   .     A
C253   C254    1.417   .     S
C253   C262    1.536   .     S
C254   O304    1.295   .     A
C254   O367    1.274   .     S
C255   O306    1.296   .     A
C255   C257    1.439   .     S
C255   O369    1.289   .     S
C256   C273    1.388   .     A
C256   C827    1.403   1_554 S
C256   H848    1.077   1_554 S
C257   C272    1.383   .     A
C257   C273    1.396   .     A
C258   C817    1.407   .     S
C259   C261    1.386   .     A
C259   H293    1.081   .     S
C259   C816    1.407   1_554 S
C260   C267    1.405   .     A
C260   C819    1.414   .     S
C260   C826    1.412   .     S
C261   H292    1.077   .     S
C261   C818    1.414   1_554 S
C262   H277    1.111   .     S
C262   C263    1.523   .     S
C263   H276    1.103   .     S
C263   H275    1.107   .     S
C263   H357    1.108   .     S
C264   H281    1.109   .     S
C264   H280    1.103   .     S
C264   H279    1.110   .     S
C264   O308    1.399   .     S
C265   O299    1.411   .     S
C265   H284    1.109   .     S
C265   H282    1.113   .     S
C265   H283    1.109   .     S
C266   H287    1.112   .     S
C266   H410    1.113   .     S
C266   H474    1.109   .     S
C266   O486    1.414   .     S
C267   C271    1.415   .     A
C268   C272    1.389   .     A
C268   C818    1.412   1_554 S
C268   C827    1.420   1_554 S
C269   C270    1.389   .     A
C269   C814    1.403   .     S
C269   C826    1.420   .     S
C270   C271    1.384   .     A
C270   H289    1.082   .     S
C271   H294    1.081   .     S
C272   H291    1.079   .     S
C273   H336    1.082   .     S
H278   C448    1.106   .     S
H285   N297    1.029   .     S
H290   C814    1.077   .     S
N296   Zn310   2.021   .     S
N296   N297    1.296   .     D
N296   O308    1.346   .     S
N297   Zn309   2.021   .     S
O298   Zn309   1.968   .     S
O298   C311    1.271   .     S
O299   C320    1.398   .     S
O301   Zn310   1.988   .     S
O302   Zn309   1.965   .     S
O302   C314    1.291   .     S
O303   Zn310   1.925   .     S
O304   Zn309   1.988   .     S
O305   Zn310   1.968   .     S
O306   Zn309   1.925   .     S
O307   Zn310   1.965   .     S
C311   O363    1.294   .     A
C311   C313    1.404   .     S
C312   C314    1.465   .     S
C312   C320    1.419   .     A
C312   C329    1.409   .     A
C313   C439    1.362   .     S
C313   O548    1.392   .     S
C314   O365    1.304   .     A
C315   C316    1.417   .     S
C315   C324    1.536   .     S
C315   C3      1.362   1_655 S
C316   O366    1.295   .     A
C316   O243    1.274   1_655 S
C317   O368    1.296   .     A
C317   C319    1.439   .     S
C317   O245    1.289   1_655 S
C318   C335    1.388   .     A
C318   C889    1.403   1_554 S
C318   H910    1.077   1_554 S
C319   C334    1.383   .     A
C319   C335    1.396   .     A
C320   C879    1.407   .     S
C321   C323    1.386   .     A
C321   H355    1.081   .     S
C321   C878    1.407   1_554 S
C322   C329    1.405   .     A
C322   C881    1.414   .     S
C322   C888    1.412   .     S
C323   H354    1.077   .     S
C323   C880    1.414   1_554 S
C324   H339    1.111   .     S
C324   C325    1.523   .     S
C325   H338    1.103   .     S
C325   H337    1.107   .     S
C325   H233    1.108   1_655 S
C326   H343    1.109   .     S
C326   H342    1.103   .     S
C326   H341    1.110   .     S
C326   O370    1.399   .     S
C327   O361    1.411   .     S
C327   H346    1.109   .     S
C327   H344    1.113   .     S
C327   H345    1.109   .     S
C328   H349    1.112   .     S
C328   H472    1.113   .     S
C328   H536    1.109   .     S
C328   O548    1.414   .     S
C329   C333    1.415   .     A
C330   C334    1.389   .     A
C330   C880    1.412   1_554 S
C330   C889    1.420   1_554 S
C331   C332    1.389   .     A
C331   C876    1.403   .     S
C331   C888    1.420   .     S
C332   C333    1.384   .     A
C332   H351    1.082   .     S
C333   H356    1.081   .     S
C334   H353    1.079   .     S
C335   H212    1.082   1_655 S
H340   C510    1.106   .     S
H347   N359    1.029   .     S
H348   C18     1.113   1_655 S
H352   C876    1.077   .     S
N358   Zn372   2.021   .     S
N358   N359    1.296   .     D
N358   O370    1.346   .     S
N359   Zn371   2.021   .     S
O360   Zn371   1.968   .     S
O360   C187    1.271   1_655 S
O361   C196    1.398   1_655 S
O363   Zn372   1.988   .     S
O364   Zn371   1.965   .     S
O364   C190    1.291   1_655 S
O365   Zn372   1.925   .     S
O366   Zn371   1.988   .     S
O367   Zn372   1.968   .     S
O368   Zn371   1.925   .     S
O369   Zn372   1.965   .     S
C373   O425    1.294   .     A
C373   C375    1.404   .     S
C373   O546    1.271   1_455 S
C374   C376    1.465   .     S
C374   C382    1.419   .     A
C374   C391    1.409   .     A
C375   C129    1.362   1_465 S
C375   O52     1.392   1_565 S
C376   O427    1.304   .     A
C376   O550    1.291   1_455 S
C377   C378    1.417   .     S
C377   C386    1.536   .     S
C378   O428    1.295   .     A
C378   O491    1.274   .     S
C379   O430    1.296   .     A
C379   C381    1.439   .     S
C379   O493    1.289   .     S
C380   C397    1.388   .     A
C380   C951    1.403   1_554 S
C380   H972    1.077   1_554 S
C381   C396    1.383   .     A
C381   C397    1.396   .     A
C382   C941    1.407   .     S
C382   O547    1.398   1_455 S
C383   C385    1.386   .     A
C383   H417    1.081   .     S
C383   C940    1.407   1_554 S
C384   C391    1.405   .     A
C384   C943    1.414   .     S
C384   C950    1.412   .     S
C385   H416    1.077   .     S
C385   C942    1.414   1_554 S
C386   H401    1.111   .     S
C386   C387    1.523   .     S
C387   H400    1.103   .     S
C387   H399    1.107   .     S
C387   H481    1.108   .     S
C388   H405    1.109   .     S
C388   H404    1.103   .     S
C388   H403    1.110   .     S
C388   O432    1.399   .     S
C389   O423    1.411   .     S
C389   H408    1.109   .     S
C389   H406    1.113   .     S
C389   H407    1.109   .     S
C390   H411    1.112   .     S
C390   H162    1.113   1_465 S
C390   H40     1.109   1_565 S
C390   O52     1.414   1_565 S
C391   C395    1.415   .     A
C392   C396    1.389   .     A
C392   C942    1.412   1_554 S
C392   C951    1.420   1_554 S
C393   C394    1.389   .     A
C393   C938    1.403   .     S
C393   C950    1.420   .     S
C394   C395    1.384   .     A
C394   H413    1.082   .     S
C395   H418    1.081   .     S
C396   H415    1.079   .     S
C397   H460    1.082   .     S
H398   C521    1.082   1_455 S
H402   C14     1.106   1_565 S
H409   N421    1.029   .     S
H414   C938    1.077   .     S
H419   C511    1.108   1_455 S
N420   Zn434   2.021   .     S
N420   N421    1.296   .     D
N420   O432    1.346   .     S
N421   Zn433   2.021   .     S
O422   Zn433   1.968   .     S
O422   C435    1.271   .     S
O423   C444    1.398   .     S
O425   Zn434   1.988   .     S
O426   Zn433   1.965   .     S
O426   C438    1.291   .     S
O427   Zn434   1.925   .     S
O428   Zn433   1.988   .     S
O429   Zn434   1.968   .     S
O429   C502    1.274   1_455 S
O430   Zn433   1.925   .     S
O431   Zn434   1.965   .     S
O431   C503    1.289   1_455 S
C435   O487    1.294   .     A
C435   C437    1.404   .     S
C436   C438    1.465   .     S
C436   C444    1.419   .     A
C436   C453    1.409   .     A
C437   C5      1.362   1_565 S
C437   O114    1.392   1_565 S
C438   O489    1.304   .     A
C439   C440    1.417   .     S
C439   C448    1.536   .     S
C440   O490    1.295   .     A
C440   O553    1.274   .     S
C441   O492    1.296   .     A
C441   C443    1.439   .     S
C441   O555    1.289   .     S
C442   C459    1.388   .     A
C442   C1013   1.403   1_554 S
C442   H1034   1.077   1_554 S
C443   C458    1.383   .     A
C443   C459    1.396   .     A
C444   C1003   1.407   .     S
C445   C447    1.386   .     A
C445   H479    1.081   .     S
C445   C1002   1.407   1_554 S
C446   C453    1.405   .     A
C446   C1005   1.414   .     S
C446   C1012   1.412   .     S
C447   H478    1.077   .     S
C447   C1004   1.414   1_554 S
C448   H463    1.111   .     S
C448   C449    1.523   .     S
C449   H462    1.103   .     S
C449   H461    1.107   .     S
C449   H543    1.108   .     S
C450   H467    1.109   .     S
C450   H466    1.103   .     S
C450   H465    1.110   .     S
C450   O494    1.399   .     S
C451   O485    1.411   .     S
C451   H470    1.109   .     S
C451   H468    1.113   .     S
C451   H469    1.109   .     S
C452   H473    1.112   .     S
C452   H38     1.113   1_565 S
C452   H102    1.109   1_565 S
C452   O114    1.414   1_565 S
C453   C457    1.415   .     A
C454   C458    1.389   .     A
C454   C1004   1.412   1_554 S
C454   C1013   1.420   1_554 S
C455   C456    1.389   .     A
C455   C1000   1.403   .     S
C455   C1012   1.420   .     S
C456   C457    1.384   .     A
C456   H475    1.082   .     S
C457   H480    1.081   .     S
C458   H477    1.079   .     S
C459   H522    1.082   .     S
H464   C76     1.106   1_565 S
H471   N483    1.029   .     S
H476   C1000   1.077   .     S
N482   Zn496   2.021   .     S
N482   N483    1.296   .     D
N482   O494    1.346   .     S
N483   Zn495   2.021   .     S
O484   Zn495   1.968   .     S
O484   C497    1.271   .     S
O485   C506    1.398   .     S
O487   Zn496   1.988   .     S
O488   Zn495   1.965   .     S
O488   C500    1.291   .     S
O489   Zn496   1.925   .     S
O490   Zn495   1.988   .     S
O491   Zn496   1.968   .     S
O492   Zn495   1.925   .     S
O493   Zn496   1.965   .     S
C497   O549    1.294   .     A
C497   C499    1.404   .     S
C498   C500    1.465   .     S
C498   C506    1.419   .     A
C498   C515    1.409   .     A
C499   C67     1.362   1_565 S
C499   O176    1.392   1_565 S
C500   O551    1.304   .     A
C501   C502    1.417   .     S
C501   C510    1.536   .     S
C501   C189    1.362   1_655 S
C502   O552    1.295   .     A
C502   O429    1.274   1_655 S
C503   O554    1.296   .     A
C503   C505    1.439   .     S
C503   O431    1.289   1_655 S
C504   C521    1.388   .     A
C504   C1075   1.403   1_554 S
C504   H1096   1.077   1_554 S
C505   C520    1.383   .     A
C505   C521    1.396   .     A
C506   C1065   1.407   .     S
C507   C509    1.386   .     A
C507   H541    1.081   .     S
C507   C1064   1.407   1_554 S
C508   C515    1.405   .     A
C508   C1067   1.414   .     S
C508   C1074   1.412   .     S
C509   H540    1.077   .     S
C509   C1066   1.414   1_554 S
C510   H525    1.111   .     S
C510   C511    1.523   .     S
C511   H524    1.103   .     S
C511   H523    1.107   .     S
C511   H419    1.108   1_655 S
C512   H529    1.109   .     S
C512   H528    1.103   .     S
C512   H527    1.110   .     S
C512   O556    1.399   .     S
C513   O547    1.411   .     S
C513   H532    1.109   .     S
C513   H530    1.113   .     S
C513   H531    1.109   .     S
C514   H535    1.112   .     S
C514   H100    1.113   1_565 S
C514   H164    1.109   1_565 S
C514   O176    1.414   1_565 S
C515   C519    1.415   .     A
C516   C520    1.389   .     A
C516   C1066   1.412   1_554 S
C516   C1075   1.420   1_554 S
C517   C518    1.389   .     A
C517   C1062   1.403   .     S
C517   C1074   1.420   .     S
C518   C519    1.384   .     A
C518   H537    1.082   .     S
C519   H542    1.081   .     S
C520   H539    1.079   .     S
C521   H398    1.082   1_655 S
H526   C138    1.106   1_565 S
H533   N545    1.029   .     S
H534   C204    1.113   1_655 S
H538   C1062   1.077   .     S
N544   Zn558   2.021   .     S
N544   N545    1.296   .     D
N544   O556    1.346   .     S
N545   Zn557   2.021   .     S
O546   Zn557   1.968   .     S
O546   C373    1.271   1_655 S
O547   C382    1.398   1_655 S
O549   Zn558   1.988   .     S
O550   Zn557   1.965   .     S
O550   C376    1.291   1_655 S
O551   Zn558   1.925   .     S
O552   Zn557   1.988   .     S
O553   Zn558   1.968   .     S
O554   Zn557   1.925   .     S
O555   Zn558   1.965   .     S
C559   O611    1.294   .     A
C559   C561    1.404   .     S
C559   O732    1.271   1_455 S
C560   C562    1.465   .     S
C560   C568    1.419   .     A
C560   C577    1.409   .     A
C561   C873    1.362   1_455 S
C561   O796    1.392   .     S
C562   O613    1.304   .     A
C562   O736    1.291   1_455 S
C563   C564    1.417   .     S
C563   C572    1.536   .     S
C563   C995    1.362   1_545 S
C564   O614    1.295   .     A
C564   O677    1.274   .     S
C565   O616    1.296   .     A
C565   C567    1.439   .     S
C565   O679    1.289   .     S
C566   C583    1.388   .     A
C567   C582    1.383   .     A
C567   C583    1.396   .     A
C568   C11     1.407   1_556 S
C568   O733    1.398   1_455 S
C569   C571    1.386   .     A
C569   H603    1.081   .     S
C570   C577    1.405   .     A
C570   C13     1.414   1_556 S
C570   C20     1.412   1_556 S
C571   H602    1.077   .     S
C572   H587    1.111   .     S
C572   C573    1.523   .     S
C572   H960    1.106   1_545 S
C573   H586    1.103   .     S
C573   H585    1.107   .     S
C573   H667    1.108   .     S
C574   H591    1.109   .     S
C574   H590    1.103   .     S
C574   H589    1.110   .     S
C574   O618    1.399   .     S
C575   O609    1.411   .     S
C575   H594    1.109   .     S
C575   H592    1.113   .     S
C575   H593    1.109   .     S
C576   H597    1.112   .     S
C576   H906    1.113   1_455 S
C576   H784    1.109   .     S
C576   O796    1.414   .     S
C577   C581    1.415   .     A
C578   C582    1.389   .     A
C579   C580    1.389   .     A
C579   C8      1.403   1_556 S
C579   C20     1.420   1_556 S
C580   C581    1.384   .     A
C580   H599    1.082   .     S
C581   H604    1.081   .     S
C582   H601    1.079   .     S
C583   H646    1.082   .     S
H584   C707    1.082   1_455 S
H588   C758    1.106   .     S
H595   N607    1.029   .     S
H596   C1010   1.113   1_545 S
H598   C948    1.109   1_545 S
H600   C8      1.077   1_556 S
H605   C697    1.108   1_455 S
N606   Zn620   2.021   .     S
N606   N607    1.296   .     D
N606   O618    1.346   .     S
N607   Zn619   2.021   .     S
O608   Zn619   1.968   .     S
O608   C621    1.271   .     S
O609   C630    1.398   .     S
O610   C948    1.414   1_545 S
O610   C933    1.392   1_545 S
O611   Zn620   1.988   .     S
O612   Zn619   1.965   .     S
O612   C624    1.291   .     S
O613   Zn620   1.925   .     S
O614   Zn619   1.988   .     S
O615   Zn620   1.968   .     S
O615   C688    1.274   1_455 S
O616   Zn619   1.925   .     S
O617   Zn620   1.965   .     S
O617   C689    1.289   1_455 S
C621   O673    1.294   .     A
C621   C623    1.404   .     S
C622   C624    1.465   .     S
C622   C630    1.419   .     A
C622   C639    1.409   .     A
C623   C749    1.362   .     S
C623   O858    1.392   .     S
C624   O675    1.304   .     A
C625   C626    1.417   .     S
C625   C634    1.536   .     S
C625   C1057   1.362   1_545 S
C626   O676    1.295   .     A
C626   O739    1.274   .     S
C627   O678    1.296   .     A
C627   C629    1.439   .     S
C627   O741    1.289   .     S
C628   C645    1.388   .     A
C629   C644    1.383   .     A
C629   C645    1.396   .     A
C630   C73     1.407   1_556 S
C631   C633    1.386   .     A
C631   H665    1.081   .     S
C632   C639    1.405   .     A
C632   C75     1.414   1_556 S
C632   C82     1.412   1_556 S
C633   H664    1.077   .     S
C634   H649    1.111   .     S
C634   C635    1.523   .     S
C634   H1022   1.106   1_545 S
C635   H648    1.103   .     S
C635   H647    1.107   .     S
C635   H729    1.108   .     S
C636   H653    1.109   .     S
C636   H652    1.103   .     S
C636   H651    1.110   .     S
C636   O680    1.399   .     S
C637   O671    1.411   .     S
C637   H656    1.109   .     S
C637   H654    1.113   .     S
C637   H655    1.109   .     S
C638   H659    1.112   .     S
C638   H782    1.113   .     S
C638   H846    1.109   .     S
C638   O858    1.414   .     S
C639   C643    1.415   .     A
C640   C644    1.389   .     A
C641   C642    1.389   .     A
C641   C70     1.403   1_556 S
C641   C82     1.420   1_556 S
C642   C643    1.384   .     A
C642   H661    1.082   .     S
C643   H666    1.081   .     S
C644   H663    1.079   .     S
C645   H708    1.082   .     S
H650   C820    1.106   .     S
H657   N669    1.029   .     S
H658   C1072   1.113   1_545 S
H660   C1010   1.109   1_545 S
H662   C70     1.077   1_556 S
N668   Zn682   2.021   .     S
N668   N669    1.296   .     D
N668   O680    1.346   .     S
N669   Zn681   2.021   .     S
O670   Zn681   1.968   .     S
O670   C683    1.271   .     S
O671   C692    1.398   .     S
O672   C1010   1.414   1_545 S
O672   C995    1.392   1_545 S
O673   Zn682   1.988   .     S
O674   Zn681   1.965   .     S
O674   C686    1.291   .     S
O675   Zn682   1.925   .     S
O676   Zn681   1.988   .     S
O677   Zn682   1.968   .     S
O678   Zn681   1.925   .     S
O679   Zn682   1.965   .     S
C683   O735    1.294   .     A
C683   C685    1.404   .     S
C684   C686    1.465   .     S
C684   C692    1.419   .     A
C684   C701    1.409   .     A
C685   C811    1.362   .     S
C685   O920    1.392   .     S
C686   O737    1.304   .     A
C687   C688    1.417   .     S
C687   C696    1.536   .     S
C687   C933    1.362   1_645 S
C688   O738    1.295   .     A
C688   O615    1.274   1_655 S
C689   O740    1.296   .     A
C689   C691    1.439   .     S
C689   O617    1.289   1_655 S
C690   C707    1.388   .     A
C691   C706    1.383   .     A
C691   C707    1.396   .     A
C692   C135    1.407   1_556 S
C693   C695    1.386   .     A
C693   H727    1.081   .     S
C694   C701    1.405   .     A
C694   C137    1.414   1_556 S
C694   C144    1.412   1_556 S
C695   H726    1.077   .     S
C696   H711    1.111   .     S
C696   C697    1.523   .     S
C696   H1084   1.106   1_545 S
C697   H710    1.103   .     S
C697   H709    1.107   .     S
C697   H605    1.108   1_655 S
C698   H715    1.109   .     S
C698   H714    1.103   .     S
C698   H713    1.110   .     S
C698   O742    1.399   .     S
C699   O733    1.411   .     S
C699   H718    1.109   .     S
C699   H716    1.113   .     S
C699   H717    1.109   .     S
C700   H721    1.112   .     S
C700   H844    1.113   .     S
C700   H908    1.109   .     S
C700   O920    1.414   .     S
C701   C705    1.415   .     A
C702   C706    1.389   .     A
C703   C704    1.389   .     A
C703   C132    1.403   1_556 S
C703   C144    1.420   1_556 S
C704   C705    1.384   .     A
C704   H723    1.082   .     S
C705   H728    1.081   .     S
C706   H725    1.079   .     S
C707   H584    1.082   1_655 S
H712   C882    1.106   .     S
H719   N731    1.029   .     S
H720   C948    1.113   1_645 S
H722   C1072   1.109   1_545 S
H724   C132    1.077   1_556 S
N730   Zn744   2.021   .     S
N730   N731    1.296   .     D
N730   O742    1.346   .     S
N731   Zn743   2.021   .     S
O732   Zn743   1.968   .     S
O732   C559    1.271   1_655 S
O733   C568    1.398   1_655 S
O734   C1072   1.414   1_545 S
O734   C1057   1.392   1_545 S
O735   Zn744   1.988   .     S
O736   Zn743   1.965   .     S
O736   C562    1.291   1_655 S
O737   Zn744   1.925   .     S
O738   Zn743   1.988   .     S
O739   Zn744   1.968   .     S
O740   Zn743   1.925   .     S
O741   Zn744   1.965   .     S
C745   O797    1.294   .     A
C745   C747    1.404   .     S
C745   O918    1.271   1_455 S
C746   C748    1.465   .     S
C746   C754    1.419   .     A
C746   C763    1.409   .     A
C747   C1059   1.362   1_455 S
C747   O982    1.392   .     S
C748   O799    1.304   .     A
C748   O922    1.291   1_455 S
C749   C750    1.417   .     S
C749   C758    1.536   .     S
C750   O800    1.295   .     A
C750   O863    1.274   .     S
C751   O802    1.296   .     A
C751   C753    1.439   .     S
C751   O865    1.289   .     S
C752   C769    1.388   .     A
C753   C768    1.383   .     A
C753   C769    1.396   .     A
C754   C197    1.407   1_556 S
C754   O919    1.398   1_455 S
C755   C757    1.386   .     A
C755   H789    1.081   .     S
C756   C763    1.405   .     A
C756   C199    1.414   1_556 S
C756   C206    1.412   1_556 S
C757   H788    1.077   .     S
C758   H773    1.111   .     S
C758   C759    1.523   .     S
C759   H772    1.103   .     S
C759   H771    1.107   .     S
C759   H853    1.108   .     S
C760   H777    1.109   .     S
C760   H776    1.103   .     S
C760   H775    1.110   .     S
C760   O804    1.399   .     S
C761   O795    1.411   .     S
C761   H780    1.109   .     S
C761   H778    1.113   .     S
C761   H779    1.109   .     S
C762   H783    1.112   .     S
C762   H1092   1.113   1_455 S
C762   H970    1.109   .     S
C762   O982    1.414   .     S
C763   C767    1.415   .     A
C764   C768    1.389   .     A
C765   C766    1.389   .     A
C765   C194    1.403   1_556 S
C765   C206    1.420   1_556 S
C766   C767    1.384   .     A
C766   H785    1.082   .     S
C767   H790    1.081   .     S
C768   H787    1.079   .     S
C769   H832    1.082   .     S
H770   C893    1.082   1_455 S
H774   C944    1.106   .     S
H781   N793    1.029   .     S
H786   C194    1.077   1_556 S
H791   C883    1.108   1_455 S
N792   Zn806   2.021   .     S
N792   N793    1.296   .     D
N792   O804    1.346   .     S
N793   Zn805   2.021   .     S
O794   Zn805   1.968   .     S
O794   C807    1.271   .     S
O795   C816    1.398   .     S
O797   Zn806   1.988   .     S
O798   Zn805   1.965   .     S
O798   C810    1.291   .     S
O799   Zn806   1.925   .     S
O800   Zn805   1.988   .     S
O801   Zn806   1.968   .     S
O801   C874    1.274   1_455 S
O802   Zn805   1.925   .     S
O803   Zn806   1.965   .     S
O803   C875    1.289   1_455 S
C807   O859    1.294   .     A
C807   C809    1.404   .     S
C808   C810    1.465   .     S
C808   C816    1.419   .     A
C808   C825    1.409   .     A
C809   C935    1.362   .     S
C809   O1044   1.392   .     S
C810   O861    1.304   .     A
C811   C812    1.417   .     S
C811   C820    1.536   .     S
C812   O862    1.295   .     A
C812   O925    1.274   .     S
C813   O864    1.296   .     A
C813   C815    1.439   .     S
C813   O927    1.289   .     S
C814   C831    1.388   .     A
C815   C830    1.383   .     A
C815   C831    1.396   .     A
C816   C259    1.407   1_556 S
C817   C819    1.386   .     A
C817   H851    1.081   .     S
C818   C825    1.405   .     A
C818   C261    1.414   1_556 S
C818   C268    1.412   1_556 S
C819   H850    1.077   .     S
C820   H835    1.111   .     S
C820   C821    1.523   .     S
C821   H834    1.103   .     S
C821   H833    1.107   .     S
C821   H915    1.108   .     S
C822   H839    1.109   .     S
C822   H838    1.103   .     S
C822   H837    1.110   .     S
C822   O866    1.399   .     S
C823   O857    1.411   .     S
C823   H842    1.109   .     S
C823   H840    1.113   .     S
C823   H841    1.109   .     S
C824   H845    1.112   .     S
C824   H968    1.113   .     S
C824   H1032   1.109   .     S
C824   O1044   1.414   .     S
C825   C829    1.415   .     A
C826   C830    1.389   .     A
C827   C828    1.389   .     A
C827   C256    1.403   1_556 S
C827   C268    1.420   1_556 S
C828   C829    1.384   .     A
C828   H847    1.082   .     S
C829   H852    1.081   .     S
C830   H849    1.079   .     S
C831   H894    1.082   .     S
H836   C1006   1.106   .     S
H843   N855    1.029   .     S
H848   C256    1.077   1_556 S
N854   Zn868   2.021   .     S
N854   N855    1.296   .     D
N854   O866    1.346   .     S
N855   Zn867   2.021   .     S
O856   Zn867   1.968   .     S
O856   C869    1.271   .     S
O857   C878    1.398   .     S
O859   Zn868   1.988   .     S
O860   Zn867   1.965   .     S
O860   C872    1.291   .     S
O861   Zn868   1.925   .     S
O862   Zn867   1.988   .     S
O863   Zn868   1.968   .     S
O864   Zn867   1.925   .     S
O865   Zn868   1.965   .     S
C869   O921    1.294   .     A
C869   C871    1.404   .     S
C870   C872    1.465   .     S
C870   C878    1.419   .     A
C870   C887    1.409   .     A
C871   C997    1.362   .     S
C871   O1106   1.392   .     S
C872   O923    1.304   .     A
C873   C874    1.417   .     S
C873   C882    1.536   .     S
C873   C561    1.362   1_655 S
C874   O924    1.295   .     A
C874   O801    1.274   1_655 S
C875   O926    1.296   .     A
C875   C877    1.439   .     S
C875   O803    1.289   1_655 S
C876   C893    1.388   .     A
C877   C892    1.383   .     A
C877   C893    1.396   .     A
C878   C321    1.407   1_556 S
C879   C881    1.386   .     A
C879   H913    1.081   .     S
C880   C887    1.405   .     A
C880   C323    1.414   1_556 S
C880   C330    1.412   1_556 S
C881   H912    1.077   .     S
C882   H897    1.111   .     S
C882   C883    1.523   .     S
C883   H896    1.103   .     S
C883   H895    1.107   .     S
C883   H791    1.108   1_655 S
C884   H901    1.109   .     S
C884   H900    1.103   .     S
C884   H899    1.110   .     S
C884   O928    1.399   .     S
C885   O919    1.411   .     S
C885   H904    1.109   .     S
C885   H902    1.113   .     S
C885   H903    1.109   .     S
C886   H907    1.112   .     S
C886   H1030   1.113   .     S
C886   H1094   1.109   .     S
C886   O1106   1.414   .     S
C887   C891    1.415   .     A
C888   C892    1.389   .     A
C889   C890    1.389   .     A
C889   C318    1.403   1_556 S
C889   C330    1.420   1_556 S
C890   C891    1.384   .     A
C890   H909    1.082   .     S
C891   H914    1.081   .     S
C892   H911    1.079   .     S
C893   H770    1.082   1_655 S
H898   C1068   1.106   .     S
H905   N917    1.029   .     S
H906   C576    1.113   1_655 S
H910   C318    1.077   1_556 S
N916   Zn930   2.021   .     S
N916   N917    1.296   .     D
N916   O928    1.346   .     S
N917   Zn929   2.021   .     S
O918   Zn929   1.968   .     S
O918   C745    1.271   1_655 S
O919   C754    1.398   1_655 S
O921   Zn930   1.988   .     S
O922   Zn929   1.965   .     S
O922   C748    1.291   1_655 S
O923   Zn930   1.925   .     S
O924   Zn929   1.988   .     S
O925   Zn930   1.968   .     S
O926   Zn929   1.925   .     S
O927   Zn930   1.965   .     S
C931   O983    1.294   .     A
C931   C933    1.404   .     S
C931   O1104   1.271   1_455 S
C932   C934    1.465   .     S
C932   C940    1.419   .     A
C932   C949    1.409   .     A
C933   C687    1.362   1_465 S
C933   O610    1.392   1_565 S
C934   O985    1.304   .     A
C934   O1108   1.291   1_455 S
C935   C936    1.417   .     S
C935   C944    1.536   .     S
C936   O986    1.295   .     A
C936   O1049   1.274   .     S
C937   O988    1.296   .     A
C937   C939    1.439   .     S
C937   O1051   1.289   .     S
C938   C955    1.388   .     A
C939   C954    1.383   .     A
C939   C955    1.396   .     A
C940   C383    1.407   1_556 S
C940   O1105   1.398   1_455 S
C941   C943    1.386   .     A
C941   H975    1.081   .     S
C942   C949    1.405   .     A
C942   C385    1.414   1_556 S
C942   C392    1.412   1_556 S
C943   H974    1.077   .     S
C944   H959    1.111   .     S
C944   C945    1.523   .     S
C945   H958    1.103   .     S
C945   H957    1.107   .     S
C945   H1039   1.108   .     S
C946   H963    1.109   .     S
C946   H962    1.103   .     S
C946   H961    1.110   .     S
C946   O990    1.399   .     S
C947   O981    1.411   .     S
C947   H966    1.109   .     S
C947   H964    1.113   .     S
C947   H965    1.109   .     S
C948   H969    1.112   .     S
C948   H720    1.113   1_465 S
C948   H598    1.109   1_565 S
C948   O610    1.414   1_565 S
C949   C953    1.415   .     A
C950   C954    1.389   .     A
C951   C952    1.389   .     A
C951   C380    1.403   1_556 S
C951   C392    1.420   1_556 S
C952   C953    1.384   .     A
C952   H971    1.082   .     S
C953   H976    1.081   .     S
C954   H973    1.079   .     S
C955   H1018   1.082   .     S
H956   C1079   1.082   1_455 S
H960   C572    1.106   1_565 S
H967   N979    1.029   .     S
H972   C380    1.077   1_556 S
H977   C1069   1.108   1_455 S
N978   Zn992   2.021   .     S
N978   N979    1.296   .     D
N978   O990    1.346   .     S
N979   Zn991   2.021   .     S
O980   Zn991   1.968   .     S
O980   C993    1.271   .     S
O981   C1002   1.398   .     S
O983   Zn992   1.988   .     S
O984   Zn991   1.965   .     S
O984   C996    1.291   .     S
O985   Zn992   1.925   .     S
O986   Zn991   1.988   .     S
O987   Zn992   1.968   .     S
O987   C1060   1.274   1_455 S
O988   Zn991   1.925   .     S
O989   Zn992   1.965   .     S
O989   C1061   1.289   1_455 S
C993   O1045   1.294   .     A
C993   C995    1.404   .     S
C994   C996    1.465   .     S
C994   C1002   1.419   .     A
C994   C1011   1.409   .     A
C995   C563    1.362   1_565 S
C995   O672    1.392   1_565 S
C996   O1047   1.304   .     A
C997   C998    1.417   .     S
C997   C1006   1.536   .     S
C998   O1048   1.295   .     A
C998   O1111   1.274   .     S
C999   O1050   1.296   .     A
C999   C1001   1.439   .     S
C999   O1113   1.289   .     S
C1000  C1017   1.388   .     A
C1001  C1016   1.383   .     A
C1001  C1017   1.396   .     A
C1002  C445    1.407   1_556 S
C1003  C1005   1.386   .     A
C1003  H1037   1.081   .     S
C1004  C1011   1.405   .     A
C1004  C447    1.414   1_556 S
C1004  C454    1.412   1_556 S
C1005  H1036   1.077   .     S
C1006  H1021   1.111   .     S
C1006  C1007   1.523   .     S
C1007  H1020   1.103   .     S
C1007  H1019   1.107   .     S
C1007  H1101   1.108   .     S
C1008  H1025   1.109   .     S
C1008  H1024   1.103   .     S
C1008  H1023   1.110   .     S
C1008  O1052   1.399   .     S
C1009  O1043   1.411   .     S
C1009  H1028   1.109   .     S
C1009  H1026   1.113   .     S
C1009  H1027   1.109   .     S
C1010  H1031   1.112   .     S
C1010  H596    1.113   1_565 S
C1010  H660    1.109   1_565 S
C1010  O672    1.414   1_565 S
C1011  C1015   1.415   .     A
C1012  C1016   1.389   .     A
C1013  C1014   1.389   .     A
C1013  C442    1.403   1_556 S
C1013  C454    1.420   1_556 S
C1014  C1015   1.384   .     A
C1014  H1033   1.082   .     S
C1015  H1038   1.081   .     S
C1016  H1035   1.079   .     S
C1017  H1080   1.082   .     S
H1022  C634    1.106   1_565 S
H1029  N1041   1.029   .     S
H1034  C442    1.077   1_556 S
N1040  Zn1054  2.021   .     S
N1040  N1041   1.296   .     D
N1040  O1052   1.346   .     S
N1041  Zn1053  2.021   .     S
O1042  Zn1053  1.968   .     S
O1042  C1055   1.271   .     S
O1043  C1064   1.398   .     S
O1045  Zn1054  1.988   .     S
O1046  Zn1053  1.965   .     S
O1046  C1058   1.291   .     S
O1047  Zn1054  1.925   .     S
O1048  Zn1053  1.988   .     S
O1049  Zn1054  1.968   .     S
O1050  Zn1053  1.925   .     S
O1051  Zn1054  1.965   .     S
C1055  O1107   1.294   .     A
C1055  C1057   1.404   .     S
C1056  C1058   1.465   .     S
C1056  C1064   1.419   .     A
C1056  C1073   1.409   .     A
C1057  C625    1.362   1_565 S
C1057  O734    1.392   1_565 S
C1058  O1109   1.304   .     A
C1059  C1060   1.417   .     S
C1059  C1068   1.536   .     S
C1059  C747    1.362   1_655 S
C1060  O1110   1.295   .     A
C1060  O987    1.274   1_655 S
C1061  O1112   1.296   .     A
C1061  C1063   1.439   .     S
C1061  O989    1.289   1_655 S
C1062  C1079   1.388   .     A
C1063  C1078   1.383   .     A
C1063  C1079   1.396   .     A
C1064  C507    1.407   1_556 S
C1065  C1067   1.386   .     A
C1065  H1099   1.081   .     S
C1066  C1073   1.405   .     A
C1066  C509    1.414   1_556 S
C1066  C516    1.412   1_556 S
C1067  H1098   1.077   .     S
C1068  H1083   1.111   .     S
C1068  C1069   1.523   .     S
C1069  H1082   1.103   .     S
C1069  H1081   1.107   .     S
C1069  H977    1.108   1_655 S
C1070  H1087   1.109   .     S
C1070  H1086   1.103   .     S
C1070  H1085   1.110   .     S
C1070  O1114   1.399   .     S
C1071  O1105   1.411   .     S
C1071  H1090   1.109   .     S
C1071  H1088   1.113   .     S
C1071  H1089   1.109   .     S
C1072  H1093   1.112   .     S
C1072  H658    1.113   1_565 S
C1072  H722    1.109   1_565 S
C1072  O734    1.414   1_565 S
C1073  C1077   1.415   .     A
C1074  C1078   1.389   .     A
C1075  C1076   1.389   .     A
C1075  C504    1.403   1_556 S
C1075  C516    1.420   1_556 S
C1076  C1077   1.384   .     A
C1076  H1095   1.082   .     S
C1077  H1100   1.081   .     S
C1078  H1097   1.079   .     S
C1079  H956    1.082   1_655 S
H1084  C696    1.106   1_565 S
H1091  N1103   1.029   .     S
H1092  C762    1.113   1_655 S
H1096  C504    1.077   1_556 S
N1102  Zn1116  2.021   .     S
N1102  N1103   1.296   .     D
N1102  O1114   1.346   .     S
N1103  Zn1115  2.021   .     S
O1104  Zn1115  1.968   .     S
O1104  C931    1.271   1_655 S
O1105  C940    1.398   1_655 S
O1107  Zn1116  1.988   .     S
O1108  Zn1115  1.965   .     S
O1108  C934    1.291   1_655 S
O1109  Zn1116  1.925   .     S
O1110  Zn1115  1.988   .     S
O1111  Zn1116  1.968   .     S
O1112  Zn1115  1.925   .     S
O1113  Zn1116  1.965   .     S
