data_str_m1_o10_o16_pcu_sym.189
_audit_creation_date              2020-01-03
_audit_creation_method            'Materials Studio'
_symmetry_space_group_name_H-M    'P1'
_symmetry_Int_Tables_number       1
_symmetry_cell_setting            triclinic
loop_
_symmetry_equiv_pos_as_xyz
  x,y,z
_cell_length_a                    32.6514
_cell_length_b                    32.6192
_cell_length_c                    31.0247
_cell_angle_alpha                 96.7564
_cell_angle_beta                  74.9143
_cell_angle_gamma                 98.3011
loop_
_atom_site_label
_atom_site_type_symbol
_atom_site_fract_x
_atom_site_fract_y
_atom_site_fract_z
_atom_site_U_iso_or_equiv
_atom_site_adp_type
_atom_site_occupancy
C1     C     0.05299   0.15947   0.26001   0.00000  Uiso   1.00
C2     C     0.18102   0.16669   0.05703   0.00000  Uiso   1.00
C3     C     0.20062   0.09924   0.06240   0.00000  Uiso   1.00
C4     C     0.28072   0.17393   0.24042   0.00000  Uiso   1.00
C5     C     0.14287   0.19454   0.42019   0.00000  Uiso   1.00
C6     C     0.32656   0.17821   0.23891   0.00000  Uiso   1.00
C7     C     0.00773   0.15527   0.26420   0.00000  Uiso   1.00
C8     C     0.17850   0.32224   0.23738   0.00000  Uiso   1.00
C9     C     0.15085   0.01252   0.26585   0.00000  Uiso   1.00
C10    C     0.15670   0.05607   0.25974   0.00000  Uiso   1.00
C11    C     0.17631   0.27785   0.24056   0.00000  Uiso   1.00
C12    C     0.13842   0.24811   0.48210   0.00000  Uiso   1.00
C13    C     0.18526   0.14783   0.12951   0.00000  Uiso   1.00
C14    C     0.14810   0.18438   0.37119   0.00000  Uiso   1.00
C15    C     0.19740   0.08698   0.01896   0.00000  Uiso   1.00
C16    C     0.19189   0.13879   0.08150   0.00000  Uiso   1.00
C17    C     0.13244   0.23444   0.43971   0.00000  Uiso   1.00
C18    C     0.32702   0.10994   0.32595   0.00000  Uiso   1.00
C19    C     0.08407   0.02030   0.32425   0.00000  Uiso   1.00
C20    C     0.17478   0.04223   0.39088   0.00000  Uiso   1.00
C21    C     0.07200   0.25662   0.42208   0.00000  Uiso   1.00
C22    C     0.15392   0.22301   0.00576   0.00000  Uiso   1.00
C23    C     0.16162   0.18184   0.48897   0.00000  Uiso   1.00
C24    C     0.15416   0.16705   0.44651   0.00000  Uiso   1.00
C25    C     0.17606   0.15483   0.01327   0.00000  Uiso   1.00
C26    C     0.18418   0.11386   0.49413   0.00000  Uiso   1.00
C27    C     0.17615   0.09932   0.45213   0.00000  Uiso   1.00
C28    C     0.15799   0.12507   0.43105   0.00000  Uiso   1.00
H29    H     0.20809   0.07715   0.08190   0.00000  Uiso   1.00
H30    H     0.33245   0.13762   0.34922   0.00000  Uiso   1.00
H31    H     0.02313   0.09424   0.31431   0.00000  Uiso   1.00
H32    H     0.13303   0.32018   0.32717   0.00000  Uiso   1.00
H33    H     0.06088   0.00246   0.35035   0.00000  Uiso   1.00
H34    H     0.06757   0.02530   0.29852   0.00000  Uiso   1.00
H35    H     0.09510   0.05073   0.34022   0.00000  Uiso   1.00
H36    H     0.21677   0.05323   0.43212   0.00000  Uiso   1.00
H37    H     0.18458   0.01054   0.38133   0.00000  Uiso   1.00
H38    H     0.19140   0.06196   0.36318   0.00000  Uiso   1.00
H39    H     0.13961   0.03976   0.39593   0.00000  Uiso   1.00
H40    H     0.20301   0.00279   0.21034   0.00000  Uiso   1.00
H41    H     0.12933   0.29276   0.42193   0.00000  Uiso   1.00
H42    H     0.06349   0.27702   0.40032   0.00000  Uiso   1.00
H43    H     0.05574   0.26516   0.45754   0.00000  Uiso   1.00
H44    H     0.06053   0.22390   0.41256   0.00000  Uiso   1.00
H45    H     0.00663   0.22155   0.19724   0.00000  Uiso   1.00
H46    H     0.20278   0.05536   0.00637   0.00000  Uiso   1.00
H47    H     0.17343   0.19614   0.07467   0.00000  Uiso   1.00
H48    H     0.15926   0.23713   0.03724   0.00000  Uiso   1.00
H49    H     0.13181   0.27908   0.49659   0.00000  Uiso   1.00
H50    H     0.14636   0.11202   0.40235   0.00000  Uiso   1.00
H51    H     0.30496   0.09736   0.26769   0.00000  Uiso   1.00
H52    H     0.30098   0.08796   0.34444   0.00000  Uiso   1.00
N53    N     0.31467   0.12209   0.28815   0.00000  Uiso   1.00
N54    N     0.11987   0.33035   0.30410   0.00000  Uiso   1.00
N55    N     0.18659   0.05897   0.43188   0.00000  Uiso   1.00
N56    N     0.11782   0.26200   0.41622   0.00000  Uiso   1.00
O57    O     0.16667   0.16667   0.25000   0.00000  Uiso   1.00
O58    O     0.15451   0.12637   0.15458   0.00000  Uiso   1.00
O59    O     0.12940   0.20391   0.34968   0.00000  Uiso   1.00
O60    O     0.20824   0.17759   0.14606   0.00000  Uiso   1.00
O61    O     0.17451   0.15880   0.34968   0.00000  Uiso   1.00
O62    O     0.02210   0.20638   0.21259   0.00000  Uiso   1.00
O63    O     0.17930   0.08019   0.28213   0.00000  Uiso   1.00
O64    O     0.14632   0.26085   0.27013   0.00000  Uiso   1.00
O65    O     0.07412   0.13291   0.23413   0.00000  Uiso   1.00
O66    O     0.26693   0.19272   0.21360   0.00000  Uiso   1.00
O67    O     0.07071   0.18878   0.28213   0.00000  Uiso   1.00
O68    O     0.25491   0.15226   0.27013   0.00000  Uiso   1.00
O69    O     0.13760   0.06944   0.23413   0.00000  Uiso   1.00
O70    O     0.20345   0.25620   0.21360   0.00000  Uiso   1.00
Zn71   Zn    0.19338   0.13994   0.28734   0.00000  Uiso   1.00
Zn72   Zn    0.13379   0.12458   0.21875   0.00000  Uiso   1.00
Zn73   Zn    0.21056   0.19775   0.20657   0.00000  Uiso   1.00
Zn74   Zn    0.12893   0.20439   0.28733   0.00000  Uiso   1.00
C75    C     0.38632   0.15947   0.26001   0.00000  Uiso   1.00
C76    C     0.51436   0.16669   0.05703   0.00000  Uiso   1.00
C77    C     0.53395   0.09924   0.06240   0.00000  Uiso   1.00
C78    C     0.61406   0.17393   0.24042   0.00000  Uiso   1.00
C79    C     0.47620   0.19454   0.42019   0.00000  Uiso   1.00
C80    C     0.65990   0.17821   0.23891   0.00000  Uiso   1.00
C81    C     0.34106   0.15527   0.26420   0.00000  Uiso   1.00
C82    C     0.51184   0.32224   0.23738   0.00000  Uiso   1.00
C83    C     0.48419   0.01252   0.26585   0.00000  Uiso   1.00
C84    C     0.49003   0.05607   0.25974   0.00000  Uiso   1.00
C85    C     0.50965   0.27785   0.24056   0.00000  Uiso   1.00
C86    C     0.47176   0.24811   0.48210   0.00000  Uiso   1.00
C87    C     0.51860   0.14783   0.12951   0.00000  Uiso   1.00
C88    C     0.48143   0.18438   0.37119   0.00000  Uiso   1.00
C89    C     0.53073   0.08698   0.01896   0.00000  Uiso   1.00
C90    C     0.52522   0.13879   0.08150   0.00000  Uiso   1.00
C91    C     0.46577   0.23444   0.43971   0.00000  Uiso   1.00
C92    C     0.66035   0.10994   0.32595   0.00000  Uiso   1.00
C93    C     0.41741   0.02030   0.32425   0.00000  Uiso   1.00
C94    C     0.50812   0.04223   0.39088   0.00000  Uiso   1.00
C95    C     0.40533   0.25662   0.42208   0.00000  Uiso   1.00
C96    C     0.48725   0.22301   0.00576   0.00000  Uiso   1.00
C97    C     0.49495   0.18184   0.48897   0.00000  Uiso   1.00
C98    C     0.48749   0.16705   0.44651   0.00000  Uiso   1.00
C99    C     0.50939   0.15483   0.01327   0.00000  Uiso   1.00
C100   C     0.51751   0.11386   0.49413   0.00000  Uiso   1.00
C101   C     0.50949   0.09932   0.45213   0.00000  Uiso   1.00
C102   C     0.49132   0.12507   0.43105   0.00000  Uiso   1.00
H103   H     0.54142   0.07715   0.08190   0.00000  Uiso   1.00
H104   H     0.66578   0.13762   0.34922   0.00000  Uiso   1.00
H105   H     0.35646   0.09424   0.31431   0.00000  Uiso   1.00
H106   H     0.46636   0.32018   0.32717   0.00000  Uiso   1.00
H107   H     0.39421   0.00246   0.35035   0.00000  Uiso   1.00
H108   H     0.40090   0.02530   0.29852   0.00000  Uiso   1.00
H109   H     0.42843   0.05073   0.34022   0.00000  Uiso   1.00
H110   H     0.55011   0.05323   0.43212   0.00000  Uiso   1.00
H111   H     0.51791   0.01054   0.38133   0.00000  Uiso   1.00
H112   H     0.52473   0.06196   0.36318   0.00000  Uiso   1.00
H113   H     0.47294   0.03976   0.39593   0.00000  Uiso   1.00
H114   H     0.53635   0.00279   0.21034   0.00000  Uiso   1.00
H115   H     0.46266   0.29276   0.42193   0.00000  Uiso   1.00
H116   H     0.39682   0.27702   0.40032   0.00000  Uiso   1.00
H117   H     0.38908   0.26516   0.45754   0.00000  Uiso   1.00
H118   H     0.39386   0.22390   0.41256   0.00000  Uiso   1.00
H119   H     0.33996   0.22155   0.19724   0.00000  Uiso   1.00
H120   H     0.53611   0.05536   0.00637   0.00000  Uiso   1.00
H121   H     0.50677   0.19614   0.07467   0.00000  Uiso   1.00
H122   H     0.49260   0.23713   0.03724   0.00000  Uiso   1.00
H123   H     0.46514   0.27908   0.49659   0.00000  Uiso   1.00
H124   H     0.47969   0.11202   0.40235   0.00000  Uiso   1.00
H125   H     0.63829   0.09736   0.26769   0.00000  Uiso   1.00
H126   H     0.63431   0.08796   0.34444   0.00000  Uiso   1.00
N127   N     0.64800   0.12209   0.28815   0.00000  Uiso   1.00
N128   N     0.45321   0.33035   0.30410   0.00000  Uiso   1.00
N129   N     0.51993   0.05897   0.43188   0.00000  Uiso   1.00
N130   N     0.45116   0.26200   0.41622   0.00000  Uiso   1.00
O131   O     0.50000   0.16667   0.25000   0.00000  Uiso   1.00
O132   O     0.48784   0.12637   0.15458   0.00000  Uiso   1.00
O133   O     0.46274   0.20391   0.34968   0.00000  Uiso   1.00
O134   O     0.54157   0.17759   0.14606   0.00000  Uiso   1.00
O135   O     0.50785   0.15880   0.34968   0.00000  Uiso   1.00
O136   O     0.35543   0.20638   0.21259   0.00000  Uiso   1.00
O137   O     0.51264   0.08019   0.28213   0.00000  Uiso   1.00
O138   O     0.47965   0.26085   0.27013   0.00000  Uiso   1.00
O139   O     0.40745   0.13291   0.23413   0.00000  Uiso   1.00
O140   O     0.60026   0.19272   0.21360   0.00000  Uiso   1.00
O141   O     0.40405   0.18878   0.28213   0.00000  Uiso   1.00
O142   O     0.58824   0.15226   0.27013   0.00000  Uiso   1.00
O143   O     0.47093   0.06944   0.23413   0.00000  Uiso   1.00
O144   O     0.53678   0.25620   0.21360   0.00000  Uiso   1.00
Zn145  Zn    0.52672   0.13994   0.28734   0.00000  Uiso   1.00
Zn146  Zn    0.46713   0.12458   0.21875   0.00000  Uiso   1.00
Zn147  Zn    0.54389   0.19775   0.20657   0.00000  Uiso   1.00
Zn148  Zn    0.46226   0.20439   0.28733   0.00000  Uiso   1.00
C149   C     0.71966   0.15947   0.26001   0.00000  Uiso   1.00
C150   C     0.84769   0.16669   0.05703   0.00000  Uiso   1.00
C151   C     0.86728   0.09924   0.06240   0.00000  Uiso   1.00
C152   C     0.94739   0.17393   0.24042   0.00000  Uiso   1.00
C153   C     0.80953   0.19454   0.42019   0.00000  Uiso   1.00
C154   C     0.99323   0.17821   0.23891   0.00000  Uiso   1.00
C155   C     0.67440   0.15527   0.26420   0.00000  Uiso   1.00
C156   C     0.84517   0.32224   0.23738   0.00000  Uiso   1.00
C157   C     0.81752   0.01252   0.26585   0.00000  Uiso   1.00
C158   C     0.82336   0.05607   0.25974   0.00000  Uiso   1.00
C159   C     0.84298   0.27785   0.24056   0.00000  Uiso   1.00
C160   C     0.80509   0.24811   0.48210   0.00000  Uiso   1.00
C161   C     0.85193   0.14783   0.12951   0.00000  Uiso   1.00
C162   C     0.81476   0.18438   0.37119   0.00000  Uiso   1.00
C163   C     0.86406   0.08698   0.01896   0.00000  Uiso   1.00
C164   C     0.85855   0.13879   0.08150   0.00000  Uiso   1.00
C165   C     0.79910   0.23444   0.43971   0.00000  Uiso   1.00
C166   C     0.99368   0.10994   0.32595   0.00000  Uiso   1.00
C167   C     0.75074   0.02030   0.32425   0.00000  Uiso   1.00
C168   C     0.84145   0.04223   0.39088   0.00000  Uiso   1.00
C169   C     0.73866   0.25662   0.42208   0.00000  Uiso   1.00
C170   C     0.82058   0.22301   0.00576   0.00000  Uiso   1.00
C171   C     0.82828   0.18184   0.48897   0.00000  Uiso   1.00
C172   C     0.82082   0.16705   0.44651   0.00000  Uiso   1.00
C173   C     0.84273   0.15483   0.01327   0.00000  Uiso   1.00
C174   C     0.85085   0.11386   0.49413   0.00000  Uiso   1.00
C175   C     0.84282   0.09932   0.45213   0.00000  Uiso   1.00
C176   C     0.82465   0.12507   0.43105   0.00000  Uiso   1.00
H177   H     0.87475   0.07715   0.08190   0.00000  Uiso   1.00
H178   H     0.99912   0.13762   0.34922   0.00000  Uiso   1.00
H179   H     0.68979   0.09424   0.31431   0.00000  Uiso   1.00
H180   H     0.79970   0.32018   0.32717   0.00000  Uiso   1.00
H181   H     0.72755   0.00246   0.35035   0.00000  Uiso   1.00
H182   H     0.73423   0.02530   0.29852   0.00000  Uiso   1.00
H183   H     0.76177   0.05073   0.34022   0.00000  Uiso   1.00
H184   H     0.88344   0.05323   0.43212   0.00000  Uiso   1.00
H185   H     0.85124   0.01054   0.38133   0.00000  Uiso   1.00
H186   H     0.85806   0.06196   0.36318   0.00000  Uiso   1.00
H187   H     0.80627   0.03976   0.39593   0.00000  Uiso   1.00
H188   H     0.86968   0.00279   0.21034   0.00000  Uiso   1.00
H189   H     0.79600   0.29276   0.42193   0.00000  Uiso   1.00
H190   H     0.73016   0.27702   0.40032   0.00000  Uiso   1.00
H191   H     0.72241   0.26516   0.45754   0.00000  Uiso   1.00
H192   H     0.72719   0.22390   0.41256   0.00000  Uiso   1.00
H193   H     0.67330   0.22155   0.19724   0.00000  Uiso   1.00
H194   H     0.86944   0.05536   0.00637   0.00000  Uiso   1.00
H195   H     0.84010   0.19614   0.07467   0.00000  Uiso   1.00
H196   H     0.82593   0.23713   0.03724   0.00000  Uiso   1.00
H197   H     0.79848   0.27908   0.49659   0.00000  Uiso   1.00
H198   H     0.81303   0.11202   0.40235   0.00000  Uiso   1.00
H199   H     0.97163   0.09736   0.26769   0.00000  Uiso   1.00
H200   H     0.96764   0.08796   0.34444   0.00000  Uiso   1.00
N201   N     0.98134   0.12209   0.28815   0.00000  Uiso   1.00
N202   N     0.78654   0.33035   0.30410   0.00000  Uiso   1.00
N203   N     0.85326   0.05897   0.43188   0.00000  Uiso   1.00
N204   N     0.78449   0.26200   0.41622   0.00000  Uiso   1.00
O205   O     0.83333   0.16667   0.25000   0.00000  Uiso   1.00
O206   O     0.82118   0.12637   0.15458   0.00000  Uiso   1.00
O207   O     0.79607   0.20391   0.34968   0.00000  Uiso   1.00
O208   O     0.87491   0.17759   0.14606   0.00000  Uiso   1.00
O209   O     0.84118   0.15880   0.34968   0.00000  Uiso   1.00
O210   O     0.68877   0.20638   0.21259   0.00000  Uiso   1.00
O211   O     0.84597   0.08019   0.28213   0.00000  Uiso   1.00
O212   O     0.81298   0.26085   0.27013   0.00000  Uiso   1.00
O213   O     0.74078   0.13291   0.23413   0.00000  Uiso   1.00
O214   O     0.93360   0.19272   0.21360   0.00000  Uiso   1.00
O215   O     0.73738   0.18878   0.28213   0.00000  Uiso   1.00
O216   O     0.92158   0.15226   0.27013   0.00000  Uiso   1.00
O217   O     0.80426   0.06944   0.23413   0.00000  Uiso   1.00
O218   O     0.87012   0.25620   0.21360   0.00000  Uiso   1.00
Zn219  Zn    0.86005   0.13994   0.28734   0.00000  Uiso   1.00
Zn220  Zn    0.80046   0.12458   0.21875   0.00000  Uiso   1.00
Zn221  Zn    0.87723   0.19775   0.20657   0.00000  Uiso   1.00
Zn222  Zn    0.79560   0.20439   0.28733   0.00000  Uiso   1.00
C223   C     0.05299   0.49280   0.26001   0.00000  Uiso   1.00
C224   C     0.18102   0.50002   0.05703   0.00000  Uiso   1.00
C225   C     0.20062   0.43257   0.06240   0.00000  Uiso   1.00
C226   C     0.28072   0.50726   0.24042   0.00000  Uiso   1.00
C227   C     0.14287   0.52788   0.42019   0.00000  Uiso   1.00
C228   C     0.32656   0.51155   0.23891   0.00000  Uiso   1.00
C229   C     0.00773   0.48861   0.26420   0.00000  Uiso   1.00
C230   C     0.17850   0.65558   0.23738   0.00000  Uiso   1.00
C231   C     0.15085   0.34585   0.26585   0.00000  Uiso   1.00
C232   C     0.15670   0.38940   0.25974   0.00000  Uiso   1.00
C233   C     0.17631   0.61118   0.24056   0.00000  Uiso   1.00
C234   C     0.13842   0.58145   0.48210   0.00000  Uiso   1.00
C235   C     0.18526   0.48116   0.12951   0.00000  Uiso   1.00
C236   C     0.14810   0.51772   0.37119   0.00000  Uiso   1.00
C237   C     0.19740   0.42032   0.01896   0.00000  Uiso   1.00
C238   C     0.19189   0.47213   0.08150   0.00000  Uiso   1.00
C239   C     0.13244   0.56778   0.43971   0.00000  Uiso   1.00
C240   C     0.32702   0.44327   0.32595   0.00000  Uiso   1.00
C241   C     0.08407   0.35363   0.32425   0.00000  Uiso   1.00
C242   C     0.17478   0.37556   0.39088   0.00000  Uiso   1.00
C243   C     0.07200   0.58996   0.42208   0.00000  Uiso   1.00
C244   C     0.15392   0.55635   0.00576   0.00000  Uiso   1.00
C245   C     0.16162   0.51517   0.48897   0.00000  Uiso   1.00
C246   C     0.15416   0.50038   0.44651   0.00000  Uiso   1.00
C247   C     0.17606   0.48816   0.01327   0.00000  Uiso   1.00
C248   C     0.18418   0.44719   0.49413   0.00000  Uiso   1.00
C249   C     0.17615   0.43266   0.45213   0.00000  Uiso   1.00
C250   C     0.15799   0.45840   0.43105   0.00000  Uiso   1.00
H251   H     0.20809   0.41049   0.08190   0.00000  Uiso   1.00
H252   H     0.33245   0.47096   0.34922   0.00000  Uiso   1.00
H253   H     0.02313   0.42757   0.31431   0.00000  Uiso   1.00
H254   H     0.13303   0.65351   0.32717   0.00000  Uiso   1.00
H255   H     0.06088   0.33580   0.35035   0.00000  Uiso   1.00
H256   H     0.06757   0.35864   0.29852   0.00000  Uiso   1.00
H257   H     0.09510   0.38407   0.34022   0.00000  Uiso   1.00
H258   H     0.21677   0.38656   0.43212   0.00000  Uiso   1.00
H259   H     0.18458   0.34387   0.38133   0.00000  Uiso   1.00
H260   H     0.19140   0.39529   0.36318   0.00000  Uiso   1.00
H261   H     0.13961   0.37309   0.39593   0.00000  Uiso   1.00
H262   H     0.20301   0.33612   0.21034   0.00000  Uiso   1.00
H263   H     0.12933   0.62610   0.42193   0.00000  Uiso   1.00
H264   H     0.06349   0.61036   0.40032   0.00000  Uiso   1.00
H265   H     0.05574   0.59849   0.45754   0.00000  Uiso   1.00
H266   H     0.06053   0.55723   0.41256   0.00000  Uiso   1.00
H267   H     0.00663   0.55488   0.19724   0.00000  Uiso   1.00
H268   H     0.20278   0.38869   0.00637   0.00000  Uiso   1.00
H269   H     0.17343   0.52947   0.07467   0.00000  Uiso   1.00
H270   H     0.15926   0.57046   0.03724   0.00000  Uiso   1.00
H271   H     0.13181   0.61241   0.49659   0.00000  Uiso   1.00
H272   H     0.14636   0.44536   0.40235   0.00000  Uiso   1.00
H273   H     0.30496   0.43069   0.26769   0.00000  Uiso   1.00
H274   H     0.30098   0.42129   0.34444   0.00000  Uiso   1.00
N275   N     0.31467   0.45542   0.28815   0.00000  Uiso   1.00
N276   N     0.11987   0.66369   0.30410   0.00000  Uiso   1.00
N277   N     0.18659   0.39231   0.43188   0.00000  Uiso   1.00
N278   N     0.11782   0.59534   0.41622   0.00000  Uiso   1.00
O279   O     0.16667   0.50000   0.25000   0.00000  Uiso   1.00
O280   O     0.15451   0.45970   0.15458   0.00000  Uiso   1.00
O281   O     0.12940   0.53724   0.34968   0.00000  Uiso   1.00
O282   O     0.20824   0.51092   0.14606   0.00000  Uiso   1.00
O283   O     0.17451   0.49213   0.34968   0.00000  Uiso   1.00
O284   O     0.02210   0.53971   0.21259   0.00000  Uiso   1.00
O285   O     0.17930   0.41352   0.28213   0.00000  Uiso   1.00
O286   O     0.14632   0.59418   0.27013   0.00000  Uiso   1.00
O287   O     0.07412   0.46625   0.23413   0.00000  Uiso   1.00
O288   O     0.26693   0.52605   0.21360   0.00000  Uiso   1.00
O289   O     0.07071   0.52211   0.28213   0.00000  Uiso   1.00
O290   O     0.25491   0.48559   0.27013   0.00000  Uiso   1.00
O291   O     0.13760   0.40277   0.23413   0.00000  Uiso   1.00
O292   O     0.20345   0.58953   0.21360   0.00000  Uiso   1.00
Zn293  Zn    0.19338   0.47327   0.28734   0.00000  Uiso   1.00
Zn294  Zn    0.13379   0.45791   0.21875   0.00000  Uiso   1.00
Zn295  Zn    0.21056   0.53109   0.20657   0.00000  Uiso   1.00
Zn296  Zn    0.12893   0.53773   0.28733   0.00000  Uiso   1.00
C297   C     0.38632   0.49280   0.26001   0.00000  Uiso   1.00
C298   C     0.51436   0.50002   0.05703   0.00000  Uiso   1.00
C299   C     0.53395   0.43257   0.06240   0.00000  Uiso   1.00
C300   C     0.61406   0.50726   0.24042   0.00000  Uiso   1.00
C301   C     0.47620   0.52788   0.42019   0.00000  Uiso   1.00
C302   C     0.65990   0.51155   0.23891   0.00000  Uiso   1.00
C303   C     0.34106   0.48861   0.26420   0.00000  Uiso   1.00
C304   C     0.51184   0.65558   0.23738   0.00000  Uiso   1.00
C305   C     0.48419   0.34585   0.26585   0.00000  Uiso   1.00
C306   C     0.49003   0.38940   0.25974   0.00000  Uiso   1.00
C307   C     0.50965   0.61118   0.24056   0.00000  Uiso   1.00
C308   C     0.47176   0.58145   0.48210   0.00000  Uiso   1.00
C309   C     0.51860   0.48116   0.12951   0.00000  Uiso   1.00
C310   C     0.48143   0.51772   0.37119   0.00000  Uiso   1.00
C311   C     0.53073   0.42032   0.01896   0.00000  Uiso   1.00
C312   C     0.52522   0.47213   0.08150   0.00000  Uiso   1.00
C313   C     0.46577   0.56778   0.43971   0.00000  Uiso   1.00
C314   C     0.66035   0.44327   0.32595   0.00000  Uiso   1.00
C315   C     0.41741   0.35363   0.32425   0.00000  Uiso   1.00
C316   C     0.50812   0.37556   0.39088   0.00000  Uiso   1.00
C317   C     0.40533   0.58996   0.42208   0.00000  Uiso   1.00
C318   C     0.48725   0.55635   0.00576   0.00000  Uiso   1.00
C319   C     0.49495   0.51517   0.48897   0.00000  Uiso   1.00
C320   C     0.48749   0.50038   0.44651   0.00000  Uiso   1.00
C321   C     0.50939   0.48816   0.01327   0.00000  Uiso   1.00
C322   C     0.51751   0.44719   0.49413   0.00000  Uiso   1.00
C323   C     0.50949   0.43266   0.45213   0.00000  Uiso   1.00
C324   C     0.49132   0.45840   0.43105   0.00000  Uiso   1.00
H325   H     0.54142   0.41049   0.08190   0.00000  Uiso   1.00
H326   H     0.66578   0.47096   0.34922   0.00000  Uiso   1.00
H327   H     0.35646   0.42757   0.31431   0.00000  Uiso   1.00
H328   H     0.46636   0.65351   0.32717   0.00000  Uiso   1.00
H329   H     0.39421   0.33580   0.35035   0.00000  Uiso   1.00
H330   H     0.40090   0.35864   0.29852   0.00000  Uiso   1.00
H331   H     0.42843   0.38407   0.34022   0.00000  Uiso   1.00
H332   H     0.55011   0.38656   0.43212   0.00000  Uiso   1.00
H333   H     0.51791   0.34387   0.38133   0.00000  Uiso   1.00
H334   H     0.52473   0.39529   0.36318   0.00000  Uiso   1.00
H335   H     0.47294   0.37309   0.39593   0.00000  Uiso   1.00
H336   H     0.53635   0.33612   0.21034   0.00000  Uiso   1.00
H337   H     0.46266   0.62610   0.42193   0.00000  Uiso   1.00
H338   H     0.39682   0.61036   0.40032   0.00000  Uiso   1.00
H339   H     0.38908   0.59849   0.45754   0.00000  Uiso   1.00
H340   H     0.39386   0.55723   0.41256   0.00000  Uiso   1.00
H341   H     0.33996   0.55488   0.19724   0.00000  Uiso   1.00
H342   H     0.53611   0.38869   0.00637   0.00000  Uiso   1.00
H343   H     0.50677   0.52947   0.07467   0.00000  Uiso   1.00
H344   H     0.49260   0.57046   0.03724   0.00000  Uiso   1.00
H345   H     0.46514   0.61241   0.49659   0.00000  Uiso   1.00
H346   H     0.47969   0.44536   0.40235   0.00000  Uiso   1.00
H347   H     0.63829   0.43069   0.26769   0.00000  Uiso   1.00
H348   H     0.63431   0.42129   0.34444   0.00000  Uiso   1.00
N349   N     0.64800   0.45542   0.28815   0.00000  Uiso   1.00
N350   N     0.45321   0.66369   0.30410   0.00000  Uiso   1.00
N351   N     0.51993   0.39231   0.43188   0.00000  Uiso   1.00
N352   N     0.45116   0.59534   0.41622   0.00000  Uiso   1.00
O353   O     0.50000   0.50000   0.25000   0.00000  Uiso   1.00
O354   O     0.48784   0.45970   0.15458   0.00000  Uiso   1.00
O355   O     0.46274   0.53724   0.34968   0.00000  Uiso   1.00
O356   O     0.54157   0.51092   0.14606   0.00000  Uiso   1.00
O357   O     0.50785   0.49213   0.34968   0.00000  Uiso   1.00
O358   O     0.35543   0.53971   0.21259   0.00000  Uiso   1.00
O359   O     0.51264   0.41352   0.28213   0.00000  Uiso   1.00
O360   O     0.47965   0.59418   0.27013   0.00000  Uiso   1.00
O361   O     0.40745   0.46625   0.23413   0.00000  Uiso   1.00
O362   O     0.60026   0.52605   0.21360   0.00000  Uiso   1.00
O363   O     0.40405   0.52211   0.28213   0.00000  Uiso   1.00
O364   O     0.58824   0.48559   0.27013   0.00000  Uiso   1.00
O365   O     0.47093   0.40277   0.23413   0.00000  Uiso   1.00
O366   O     0.53678   0.58953   0.21360   0.00000  Uiso   1.00
Zn367  Zn    0.52672   0.47327   0.28734   0.00000  Uiso   1.00
Zn368  Zn    0.46713   0.45791   0.21875   0.00000  Uiso   1.00
Zn369  Zn    0.54389   0.53109   0.20657   0.00000  Uiso   1.00
Zn370  Zn    0.46226   0.53773   0.28733   0.00000  Uiso   1.00
C371   C     0.71966   0.49280   0.26001   0.00000  Uiso   1.00
C372   C     0.84769   0.50002   0.05703   0.00000  Uiso   1.00
C373   C     0.86728   0.43257   0.06240   0.00000  Uiso   1.00
C374   C     0.94739   0.50726   0.24042   0.00000  Uiso   1.00
C375   C     0.80953   0.52788   0.42019   0.00000  Uiso   1.00
C376   C     0.99323   0.51155   0.23891   0.00000  Uiso   1.00
C377   C     0.67440   0.48861   0.26420   0.00000  Uiso   1.00
C378   C     0.84517   0.65558   0.23738   0.00000  Uiso   1.00
C379   C     0.81752   0.34585   0.26585   0.00000  Uiso   1.00
C380   C     0.82336   0.38940   0.25974   0.00000  Uiso   1.00
C381   C     0.84298   0.61118   0.24056   0.00000  Uiso   1.00
C382   C     0.80509   0.58145   0.48210   0.00000  Uiso   1.00
C383   C     0.85193   0.48116   0.12951   0.00000  Uiso   1.00
C384   C     0.81476   0.51772   0.37119   0.00000  Uiso   1.00
C385   C     0.86406   0.42032   0.01896   0.00000  Uiso   1.00
C386   C     0.85855   0.47213   0.08150   0.00000  Uiso   1.00
C387   C     0.79910   0.56778   0.43971   0.00000  Uiso   1.00
C388   C     0.99368   0.44327   0.32595   0.00000  Uiso   1.00
C389   C     0.75074   0.35363   0.32425   0.00000  Uiso   1.00
C390   C     0.84145   0.37556   0.39088   0.00000  Uiso   1.00
C391   C     0.73866   0.58996   0.42208   0.00000  Uiso   1.00
C392   C     0.82058   0.55635   0.00576   0.00000  Uiso   1.00
C393   C     0.82828   0.51517   0.48897   0.00000  Uiso   1.00
C394   C     0.82082   0.50038   0.44651   0.00000  Uiso   1.00
C395   C     0.84273   0.48816   0.01327   0.00000  Uiso   1.00
C396   C     0.85085   0.44719   0.49413   0.00000  Uiso   1.00
C397   C     0.84282   0.43266   0.45213   0.00000  Uiso   1.00
C398   C     0.82465   0.45840   0.43105   0.00000  Uiso   1.00
H399   H     0.87475   0.41049   0.08190   0.00000  Uiso   1.00
H400   H     0.99912   0.47096   0.34922   0.00000  Uiso   1.00
H401   H     0.68979   0.42757   0.31431   0.00000  Uiso   1.00
H402   H     0.79970   0.65351   0.32717   0.00000  Uiso   1.00
H403   H     0.72755   0.33580   0.35035   0.00000  Uiso   1.00
H404   H     0.73423   0.35864   0.29852   0.00000  Uiso   1.00
H405   H     0.76177   0.38407   0.34022   0.00000  Uiso   1.00
H406   H     0.88344   0.38656   0.43212   0.00000  Uiso   1.00
H407   H     0.85124   0.34387   0.38133   0.00000  Uiso   1.00
H408   H     0.85806   0.39529   0.36318   0.00000  Uiso   1.00
H409   H     0.80627   0.37309   0.39593   0.00000  Uiso   1.00
H410   H     0.86968   0.33612   0.21034   0.00000  Uiso   1.00
H411   H     0.79600   0.62610   0.42193   0.00000  Uiso   1.00
H412   H     0.73016   0.61036   0.40032   0.00000  Uiso   1.00
H413   H     0.72241   0.59849   0.45754   0.00000  Uiso   1.00
H414   H     0.72719   0.55723   0.41256   0.00000  Uiso   1.00
H415   H     0.67330   0.55488   0.19724   0.00000  Uiso   1.00
H416   H     0.86944   0.38869   0.00637   0.00000  Uiso   1.00
H417   H     0.84010   0.52947   0.07467   0.00000  Uiso   1.00
H418   H     0.82593   0.57046   0.03724   0.00000  Uiso   1.00
H419   H     0.79848   0.61241   0.49659   0.00000  Uiso   1.00
H420   H     0.81303   0.44536   0.40235   0.00000  Uiso   1.00
H421   H     0.97163   0.43069   0.26769   0.00000  Uiso   1.00
H422   H     0.96764   0.42129   0.34444   0.00000  Uiso   1.00
N423   N     0.98134   0.45542   0.28815   0.00000  Uiso   1.00
N424   N     0.78654   0.66369   0.30410   0.00000  Uiso   1.00
N425   N     0.85326   0.39231   0.43188   0.00000  Uiso   1.00
N426   N     0.78449   0.59534   0.41622   0.00000  Uiso   1.00
O427   O     0.83333   0.50000   0.25000   0.00000  Uiso   1.00
O428   O     0.82118   0.45970   0.15458   0.00000  Uiso   1.00
O429   O     0.79607   0.53724   0.34968   0.00000  Uiso   1.00
O430   O     0.87491   0.51092   0.14606   0.00000  Uiso   1.00
O431   O     0.84118   0.49213   0.34968   0.00000  Uiso   1.00
O432   O     0.68877   0.53971   0.21259   0.00000  Uiso   1.00
O433   O     0.84597   0.41352   0.28213   0.00000  Uiso   1.00
O434   O     0.81298   0.59418   0.27013   0.00000  Uiso   1.00
O435   O     0.74078   0.46625   0.23413   0.00000  Uiso   1.00
O436   O     0.93360   0.52605   0.21360   0.00000  Uiso   1.00
O437   O     0.73738   0.52211   0.28213   0.00000  Uiso   1.00
O438   O     0.92158   0.48559   0.27013   0.00000  Uiso   1.00
O439   O     0.80426   0.40277   0.23413   0.00000  Uiso   1.00
O440   O     0.87012   0.58953   0.21360   0.00000  Uiso   1.00
Zn441  Zn    0.86005   0.47327   0.28734   0.00000  Uiso   1.00
Zn442  Zn    0.80046   0.45791   0.21875   0.00000  Uiso   1.00
Zn443  Zn    0.87723   0.53109   0.20657   0.00000  Uiso   1.00
Zn444  Zn    0.79560   0.53773   0.28733   0.00000  Uiso   1.00
C445   C     0.05299   0.82613   0.26001   0.00000  Uiso   1.00
C446   C     0.18102   0.83336   0.05703   0.00000  Uiso   1.00
C447   C     0.20062   0.76590   0.06240   0.00000  Uiso   1.00
C448   C     0.28072   0.84060   0.24042   0.00000  Uiso   1.00
C449   C     0.14287   0.86121   0.42019   0.00000  Uiso   1.00
C450   C     0.32656   0.84488   0.23891   0.00000  Uiso   1.00
C451   C     0.00773   0.82194   0.26420   0.00000  Uiso   1.00
C452   C     0.17850   0.98891   0.23738   0.00000  Uiso   1.00
C453   C     0.15085   0.67919   0.26585   0.00000  Uiso   1.00
C454   C     0.15670   0.72274   0.25974   0.00000  Uiso   1.00
C455   C     0.17631   0.94452   0.24056   0.00000  Uiso   1.00
C456   C     0.13842   0.91478   0.48210   0.00000  Uiso   1.00
C457   C     0.18526   0.81449   0.12951   0.00000  Uiso   1.00
C458   C     0.14810   0.85105   0.37119   0.00000  Uiso   1.00
C459   C     0.19740   0.75365   0.01896   0.00000  Uiso   1.00
C460   C     0.19189   0.80546   0.08150   0.00000  Uiso   1.00
C461   C     0.13244   0.90111   0.43971   0.00000  Uiso   1.00
C462   C     0.32702   0.77661   0.32595   0.00000  Uiso   1.00
C463   C     0.08407   0.68696   0.32425   0.00000  Uiso   1.00
C464   C     0.17478   0.70889   0.39088   0.00000  Uiso   1.00
C465   C     0.07200   0.92329   0.42208   0.00000  Uiso   1.00
C466   C     0.15392   0.88968   0.00576   0.00000  Uiso   1.00
C467   C     0.16162   0.84850   0.48897   0.00000  Uiso   1.00
C468   C     0.15416   0.83372   0.44651   0.00000  Uiso   1.00
C469   C     0.17606   0.82149   0.01327   0.00000  Uiso   1.00
C470   C     0.18418   0.78053   0.49413   0.00000  Uiso   1.00
C471   C     0.17615   0.76599   0.45213   0.00000  Uiso   1.00
C472   C     0.15799   0.79173   0.43105   0.00000  Uiso   1.00
H473   H     0.20809   0.74382   0.08190   0.00000  Uiso   1.00
H474   H     0.33245   0.80429   0.34922   0.00000  Uiso   1.00
H475   H     0.02313   0.76091   0.31431   0.00000  Uiso   1.00
H476   H     0.13303   0.98685   0.32717   0.00000  Uiso   1.00
H477   H     0.06088   0.66913   0.35035   0.00000  Uiso   1.00
H478   H     0.06757   0.69197   0.29852   0.00000  Uiso   1.00
H479   H     0.09510   0.71740   0.34022   0.00000  Uiso   1.00
H480   H     0.21677   0.71989   0.43212   0.00000  Uiso   1.00
H481   H     0.18458   0.67721   0.38133   0.00000  Uiso   1.00
H482   H     0.19140   0.72863   0.36318   0.00000  Uiso   1.00
H483   H     0.13961   0.70643   0.39593   0.00000  Uiso   1.00
H484   H     0.20301   0.66946   0.21034   0.00000  Uiso   1.00
H485   H     0.12933   0.95943   0.42193   0.00000  Uiso   1.00
H486   H     0.06349   0.94369   0.40032   0.00000  Uiso   1.00
H487   H     0.05574   0.93182   0.45754   0.00000  Uiso   1.00
H488   H     0.06053   0.89057   0.41256   0.00000  Uiso   1.00
H489   H     0.00663   0.88821   0.19724   0.00000  Uiso   1.00
H490   H     0.20278   0.72203   0.00637   0.00000  Uiso   1.00
H491   H     0.17343   0.86281   0.07467   0.00000  Uiso   1.00
H492   H     0.15926   0.90380   0.03724   0.00000  Uiso   1.00
H493   H     0.13181   0.94574   0.49659   0.00000  Uiso   1.00
H494   H     0.14636   0.77869   0.40235   0.00000  Uiso   1.00
H495   H     0.30496   0.76402   0.26769   0.00000  Uiso   1.00
H496   H     0.30098   0.75463   0.34444   0.00000  Uiso   1.00
N497   N     0.31467   0.78875   0.28815   0.00000  Uiso   1.00
N498   N     0.11987   0.99702   0.30410   0.00000  Uiso   1.00
N499   N     0.18659   0.72564   0.43188   0.00000  Uiso   1.00
N500   N     0.11782   0.92867   0.41622   0.00000  Uiso   1.00
O501   O     0.16667   0.83333   0.25000   0.00000  Uiso   1.00
O502   O     0.15451   0.79304   0.15458   0.00000  Uiso   1.00
O503   O     0.12940   0.87058   0.34968   0.00000  Uiso   1.00
O504   O     0.20824   0.84425   0.14606   0.00000  Uiso   1.00
O505   O     0.17451   0.82546   0.34968   0.00000  Uiso   1.00
O506   O     0.02210   0.87305   0.21259   0.00000  Uiso   1.00
O507   O     0.17930   0.74686   0.28213   0.00000  Uiso   1.00
O508   O     0.14632   0.92751   0.27013   0.00000  Uiso   1.00
O509   O     0.07412   0.79958   0.23413   0.00000  Uiso   1.00
O510   O     0.26693   0.85939   0.21360   0.00000  Uiso   1.00
O511   O     0.07071   0.85544   0.28213   0.00000  Uiso   1.00
O512   O     0.25491   0.81892   0.27013   0.00000  Uiso   1.00
O513   O     0.13760   0.73610   0.23413   0.00000  Uiso   1.00
O514   O     0.20345   0.92286   0.21360   0.00000  Uiso   1.00
Zn515  Zn    0.19338   0.80661   0.28734   0.00000  Uiso   1.00
Zn516  Zn    0.13379   0.79124   0.21875   0.00000  Uiso   1.00
Zn517  Zn    0.21056   0.86442   0.20657   0.00000  Uiso   1.00
Zn518  Zn    0.12893   0.87106   0.28733   0.00000  Uiso   1.00
C519   C     0.38632   0.82613   0.26001   0.00000  Uiso   1.00
C520   C     0.51436   0.83336   0.05703   0.00000  Uiso   1.00
C521   C     0.53395   0.76590   0.06240   0.00000  Uiso   1.00
C522   C     0.61406   0.84060   0.24042   0.00000  Uiso   1.00
C523   C     0.47620   0.86121   0.42019   0.00000  Uiso   1.00
C524   C     0.65990   0.84488   0.23891   0.00000  Uiso   1.00
C525   C     0.34106   0.82194   0.26420   0.00000  Uiso   1.00
C526   C     0.51184   0.98891   0.23738   0.00000  Uiso   1.00
C527   C     0.48419   0.67919   0.26585   0.00000  Uiso   1.00
C528   C     0.49003   0.72274   0.25974   0.00000  Uiso   1.00
C529   C     0.50965   0.94452   0.24056   0.00000  Uiso   1.00
C530   C     0.47176   0.91478   0.48210   0.00000  Uiso   1.00
C531   C     0.51860   0.81449   0.12951   0.00000  Uiso   1.00
C532   C     0.48143   0.85105   0.37119   0.00000  Uiso   1.00
C533   C     0.53073   0.75365   0.01896   0.00000  Uiso   1.00
C534   C     0.52522   0.80546   0.08150   0.00000  Uiso   1.00
C535   C     0.46577   0.90111   0.43971   0.00000  Uiso   1.00
C536   C     0.66035   0.77661   0.32595   0.00000  Uiso   1.00
C537   C     0.41741   0.68696   0.32425   0.00000  Uiso   1.00
C538   C     0.50812   0.70889   0.39088   0.00000  Uiso   1.00
C539   C     0.40533   0.92329   0.42208   0.00000  Uiso   1.00
C540   C     0.48725   0.88968   0.00576   0.00000  Uiso   1.00
C541   C     0.49495   0.84850   0.48897   0.00000  Uiso   1.00
C542   C     0.48749   0.83372   0.44651   0.00000  Uiso   1.00
C543   C     0.50939   0.82149   0.01327   0.00000  Uiso   1.00
C544   C     0.51751   0.78053   0.49413   0.00000  Uiso   1.00
C545   C     0.50949   0.76599   0.45213   0.00000  Uiso   1.00
C546   C     0.49132   0.79173   0.43105   0.00000  Uiso   1.00
H547   H     0.54142   0.74382   0.08190   0.00000  Uiso   1.00
H548   H     0.66578   0.80429   0.34922   0.00000  Uiso   1.00
H549   H     0.35646   0.76091   0.31431   0.00000  Uiso   1.00
H550   H     0.46636   0.98685   0.32717   0.00000  Uiso   1.00
H551   H     0.39421   0.66913   0.35035   0.00000  Uiso   1.00
H552   H     0.40090   0.69197   0.29852   0.00000  Uiso   1.00
H553   H     0.42843   0.71740   0.34022   0.00000  Uiso   1.00
H554   H     0.55011   0.71989   0.43212   0.00000  Uiso   1.00
H555   H     0.51791   0.67721   0.38133   0.00000  Uiso   1.00
H556   H     0.52473   0.72863   0.36318   0.00000  Uiso   1.00
H557   H     0.47294   0.70643   0.39593   0.00000  Uiso   1.00
H558   H     0.53635   0.66946   0.21034   0.00000  Uiso   1.00
H559   H     0.46266   0.95943   0.42193   0.00000  Uiso   1.00
H560   H     0.39682   0.94369   0.40032   0.00000  Uiso   1.00
H561   H     0.38908   0.93182   0.45754   0.00000  Uiso   1.00
H562   H     0.39386   0.89057   0.41256   0.00000  Uiso   1.00
H563   H     0.33996   0.88821   0.19724   0.00000  Uiso   1.00
H564   H     0.53611   0.72203   0.00637   0.00000  Uiso   1.00
H565   H     0.50677   0.86281   0.07467   0.00000  Uiso   1.00
H566   H     0.49260   0.90380   0.03724   0.00000  Uiso   1.00
H567   H     0.46514   0.94574   0.49659   0.00000  Uiso   1.00
H568   H     0.47969   0.77869   0.40235   0.00000  Uiso   1.00
H569   H     0.63829   0.76402   0.26769   0.00000  Uiso   1.00
H570   H     0.63431   0.75463   0.34444   0.00000  Uiso   1.00
N571   N     0.64800   0.78875   0.28815   0.00000  Uiso   1.00
N572   N     0.45321   0.99702   0.30410   0.00000  Uiso   1.00
N573   N     0.51993   0.72564   0.43188   0.00000  Uiso   1.00
N574   N     0.45116   0.92867   0.41622   0.00000  Uiso   1.00
O575   O     0.50000   0.83333   0.25000   0.00000  Uiso   1.00
O576   O     0.48784   0.79304   0.15458   0.00000  Uiso   1.00
O577   O     0.46274   0.87058   0.34968   0.00000  Uiso   1.00
O578   O     0.54157   0.84425   0.14606   0.00000  Uiso   1.00
O579   O     0.50785   0.82546   0.34968   0.00000  Uiso   1.00
O580   O     0.35543   0.87305   0.21259   0.00000  Uiso   1.00
O581   O     0.51264   0.74686   0.28213   0.00000  Uiso   1.00
O582   O     0.47965   0.92751   0.27013   0.00000  Uiso   1.00
O583   O     0.40745   0.79958   0.23413   0.00000  Uiso   1.00
O584   O     0.60026   0.85939   0.21360   0.00000  Uiso   1.00
O585   O     0.40405   0.85544   0.28213   0.00000  Uiso   1.00
O586   O     0.58824   0.81892   0.27013   0.00000  Uiso   1.00
O587   O     0.47093   0.73610   0.23413   0.00000  Uiso   1.00
O588   O     0.53678   0.92286   0.21360   0.00000  Uiso   1.00
Zn589  Zn    0.52672   0.80661   0.28734   0.00000  Uiso   1.00
Zn590  Zn    0.46713   0.79124   0.21875   0.00000  Uiso   1.00
Zn591  Zn    0.54389   0.86442   0.20657   0.00000  Uiso   1.00
Zn592  Zn    0.46226   0.87106   0.28733   0.00000  Uiso   1.00
C593   C     0.71966   0.82613   0.26001   0.00000  Uiso   1.00
C594   C     0.84769   0.83336   0.05703   0.00000  Uiso   1.00
C595   C     0.86728   0.76590   0.06240   0.00000  Uiso   1.00
C596   C     0.94739   0.84060   0.24042   0.00000  Uiso   1.00
C597   C     0.80953   0.86121   0.42019   0.00000  Uiso   1.00
C598   C     0.99323   0.84488   0.23891   0.00000  Uiso   1.00
C599   C     0.67440   0.82194   0.26420   0.00000  Uiso   1.00
C600   C     0.84517   0.98891   0.23738   0.00000  Uiso   1.00
C601   C     0.81752   0.67919   0.26585   0.00000  Uiso   1.00
C602   C     0.82336   0.72274   0.25974   0.00000  Uiso   1.00
C603   C     0.84298   0.94452   0.24056   0.00000  Uiso   1.00
C604   C     0.80509   0.91478   0.48210   0.00000  Uiso   1.00
C605   C     0.85193   0.81449   0.12951   0.00000  Uiso   1.00
C606   C     0.81476   0.85105   0.37119   0.00000  Uiso   1.00
C607   C     0.86406   0.75365   0.01896   0.00000  Uiso   1.00
C608   C     0.85855   0.80546   0.08150   0.00000  Uiso   1.00
C609   C     0.79910   0.90111   0.43971   0.00000  Uiso   1.00
C610   C     0.99368   0.77661   0.32595   0.00000  Uiso   1.00
C611   C     0.75074   0.68696   0.32425   0.00000  Uiso   1.00
C612   C     0.84145   0.70889   0.39088   0.00000  Uiso   1.00
C613   C     0.73866   0.92329   0.42208   0.00000  Uiso   1.00
C614   C     0.82058   0.88968   0.00576   0.00000  Uiso   1.00
C615   C     0.82828   0.84850   0.48897   0.00000  Uiso   1.00
C616   C     0.82082   0.83372   0.44651   0.00000  Uiso   1.00
C617   C     0.84273   0.82149   0.01327   0.00000  Uiso   1.00
C618   C     0.85085   0.78053   0.49413   0.00000  Uiso   1.00
C619   C     0.84282   0.76599   0.45213   0.00000  Uiso   1.00
C620   C     0.82465   0.79173   0.43105   0.00000  Uiso   1.00
H621   H     0.87475   0.74382   0.08190   0.00000  Uiso   1.00
H622   H     0.99912   0.80429   0.34922   0.00000  Uiso   1.00
H623   H     0.68979   0.76091   0.31431   0.00000  Uiso   1.00
H624   H     0.79970   0.98685   0.32717   0.00000  Uiso   1.00
H625   H     0.72755   0.66913   0.35035   0.00000  Uiso   1.00
H626   H     0.73423   0.69197   0.29852   0.00000  Uiso   1.00
H627   H     0.76177   0.71740   0.34022   0.00000  Uiso   1.00
H628   H     0.88344   0.71989   0.43212   0.00000  Uiso   1.00
H629   H     0.85124   0.67721   0.38133   0.00000  Uiso   1.00
H630   H     0.85806   0.72863   0.36318   0.00000  Uiso   1.00
H631   H     0.80627   0.70643   0.39593   0.00000  Uiso   1.00
H632   H     0.86968   0.66946   0.21034   0.00000  Uiso   1.00
H633   H     0.79600   0.95943   0.42193   0.00000  Uiso   1.00
H634   H     0.73016   0.94369   0.40032   0.00000  Uiso   1.00
H635   H     0.72241   0.93182   0.45754   0.00000  Uiso   1.00
H636   H     0.72719   0.89057   0.41256   0.00000  Uiso   1.00
H637   H     0.67330   0.88821   0.19724   0.00000  Uiso   1.00
H638   H     0.86944   0.72203   0.00637   0.00000  Uiso   1.00
H639   H     0.84010   0.86281   0.07467   0.00000  Uiso   1.00
H640   H     0.82593   0.90380   0.03724   0.00000  Uiso   1.00
H641   H     0.79848   0.94574   0.49659   0.00000  Uiso   1.00
H642   H     0.81303   0.77869   0.40235   0.00000  Uiso   1.00
H643   H     0.97163   0.76402   0.26769   0.00000  Uiso   1.00
H644   H     0.96764   0.75463   0.34444   0.00000  Uiso   1.00
N645   N     0.98134   0.78875   0.28815   0.00000  Uiso   1.00
N646   N     0.78654   0.99702   0.30410   0.00000  Uiso   1.00
N647   N     0.85326   0.72564   0.43188   0.00000  Uiso   1.00
N648   N     0.78449   0.92867   0.41622   0.00000  Uiso   1.00
O649   O     0.83333   0.83333   0.25000   0.00000  Uiso   1.00
O650   O     0.82118   0.79304   0.15458   0.00000  Uiso   1.00
O651   O     0.79607   0.87058   0.34968   0.00000  Uiso   1.00
O652   O     0.87491   0.84425   0.14606   0.00000  Uiso   1.00
O653   O     0.84118   0.82546   0.34968   0.00000  Uiso   1.00
O654   O     0.68877   0.87305   0.21259   0.00000  Uiso   1.00
O655   O     0.84597   0.74686   0.28213   0.00000  Uiso   1.00
O656   O     0.81298   0.92751   0.27013   0.00000  Uiso   1.00
O657   O     0.74078   0.79958   0.23413   0.00000  Uiso   1.00
O658   O     0.93360   0.85939   0.21360   0.00000  Uiso   1.00
O659   O     0.73738   0.85544   0.28213   0.00000  Uiso   1.00
O660   O     0.92158   0.81892   0.27013   0.00000  Uiso   1.00
O661   O     0.80426   0.73610   0.23413   0.00000  Uiso   1.00
O662   O     0.87012   0.92286   0.21360   0.00000  Uiso   1.00
Zn663  Zn    0.86005   0.80661   0.28734   0.00000  Uiso   1.00
Zn664  Zn    0.80046   0.79124   0.21875   0.00000  Uiso   1.00
Zn665  Zn    0.87723   0.86442   0.20657   0.00000  Uiso   1.00
Zn666  Zn    0.79560   0.87106   0.28733   0.00000  Uiso   1.00
C667   C     0.05299   0.15947   0.76001   0.00000  Uiso   1.00
C668   C     0.18102   0.16669   0.55703   0.00000  Uiso   1.00
C669   C     0.20062   0.09924   0.56240   0.00000  Uiso   1.00
C670   C     0.28072   0.17393   0.74042   0.00000  Uiso   1.00
C671   C     0.14287   0.19454   0.92019   0.00000  Uiso   1.00
C672   C     0.32656   0.17821   0.73891   0.00000  Uiso   1.00
C673   C     0.00773   0.15527   0.76420   0.00000  Uiso   1.00
C674   C     0.17850   0.32224   0.73738   0.00000  Uiso   1.00
C675   C     0.15085   0.01252   0.76585   0.00000  Uiso   1.00
C676   C     0.15670   0.05607   0.75974   0.00000  Uiso   1.00
C677   C     0.17631   0.27785   0.74056   0.00000  Uiso   1.00
C678   C     0.13842   0.24811   0.98210   0.00000  Uiso   1.00
C679   C     0.18526   0.14783   0.62951   0.00000  Uiso   1.00
C680   C     0.14810   0.18438   0.87119   0.00000  Uiso   1.00
C681   C     0.19740   0.08698   0.51896   0.00000  Uiso   1.00
C682   C     0.19189   0.13879   0.58150   0.00000  Uiso   1.00
C683   C     0.13244   0.23444   0.93971   0.00000  Uiso   1.00
C684   C     0.32702   0.10994   0.82595   0.00000  Uiso   1.00
C685   C     0.08407   0.02030   0.82425   0.00000  Uiso   1.00
C686   C     0.17478   0.04223   0.89088   0.00000  Uiso   1.00
C687   C     0.07200   0.25662   0.92208   0.00000  Uiso   1.00
C688   C     0.15392   0.22301   0.50576   0.00000  Uiso   1.00
C689   C     0.16162   0.18184   0.98897   0.00000  Uiso   1.00
C690   C     0.15416   0.16705   0.94651   0.00000  Uiso   1.00
C691   C     0.17606   0.15483   0.51327   0.00000  Uiso   1.00
C692   C     0.18418   0.11386   0.99413   0.00000  Uiso   1.00
C693   C     0.17615   0.09932   0.95213   0.00000  Uiso   1.00
C694   C     0.15799   0.12507   0.93105   0.00000  Uiso   1.00
H695   H     0.20809   0.07715   0.58190   0.00000  Uiso   1.00
H696   H     0.33245   0.13762   0.84922   0.00000  Uiso   1.00
H697   H     0.02313   0.09424   0.81431   0.00000  Uiso   1.00
H698   H     0.13303   0.32018   0.82717   0.00000  Uiso   1.00
H699   H     0.06088   0.00246   0.85035   0.00000  Uiso   1.00
H700   H     0.06757   0.02530   0.79852   0.00000  Uiso   1.00
H701   H     0.09510   0.05073   0.84022   0.00000  Uiso   1.00
H702   H     0.21677   0.05323   0.93212   0.00000  Uiso   1.00
H703   H     0.18458   0.01054   0.88133   0.00000  Uiso   1.00
H704   H     0.19140   0.06196   0.86318   0.00000  Uiso   1.00
H705   H     0.13961   0.03976   0.89593   0.00000  Uiso   1.00
H706   H     0.20301   0.00279   0.71034   0.00000  Uiso   1.00
H707   H     0.12933   0.29276   0.92193   0.00000  Uiso   1.00
H708   H     0.06349   0.27702   0.90032   0.00000  Uiso   1.00
H709   H     0.05574   0.26516   0.95754   0.00000  Uiso   1.00
H710   H     0.06053   0.22390   0.91256   0.00000  Uiso   1.00
H711   H     0.00663   0.22155   0.69724   0.00000  Uiso   1.00
H712   H     0.20278   0.05536   0.50637   0.00000  Uiso   1.00
H713   H     0.17343   0.19614   0.57467   0.00000  Uiso   1.00
H714   H     0.15926   0.23713   0.53724   0.00000  Uiso   1.00
H715   H     0.13181   0.27908   0.99659   0.00000  Uiso   1.00
H716   H     0.14636   0.11202   0.90235   0.00000  Uiso   1.00
H717   H     0.30496   0.09736   0.76769   0.00000  Uiso   1.00
H718   H     0.30098   0.08796   0.84444   0.00000  Uiso   1.00
N719   N     0.31467   0.12209   0.78815   0.00000  Uiso   1.00
N720   N     0.11987   0.33035   0.80410   0.00000  Uiso   1.00
N721   N     0.18659   0.05897   0.93188   0.00000  Uiso   1.00
N722   N     0.11782   0.26200   0.91622   0.00000  Uiso   1.00
O723   O     0.16667   0.16667   0.75000   0.00000  Uiso   1.00
O724   O     0.15451   0.12637   0.65458   0.00000  Uiso   1.00
O725   O     0.12940   0.20391   0.84968   0.00000  Uiso   1.00
O726   O     0.20824   0.17759   0.64606   0.00000  Uiso   1.00
O727   O     0.17451   0.15880   0.84968   0.00000  Uiso   1.00
O728   O     0.02210   0.20638   0.71259   0.00000  Uiso   1.00
O729   O     0.17930   0.08019   0.78213   0.00000  Uiso   1.00
O730   O     0.14632   0.26085   0.77013   0.00000  Uiso   1.00
O731   O     0.07412   0.13291   0.73413   0.00000  Uiso   1.00
O732   O     0.26693   0.19272   0.71360   0.00000  Uiso   1.00
O733   O     0.07071   0.18878   0.78213   0.00000  Uiso   1.00
O734   O     0.25491   0.15226   0.77013   0.00000  Uiso   1.00
O735   O     0.13760   0.06944   0.73413   0.00000  Uiso   1.00
O736   O     0.20345   0.25620   0.71360   0.00000  Uiso   1.00
Zn737  Zn    0.19338   0.13994   0.78734   0.00000  Uiso   1.00
Zn738  Zn    0.13379   0.12458   0.71875   0.00000  Uiso   1.00
Zn739  Zn    0.21056   0.19775   0.70657   0.00000  Uiso   1.00
Zn740  Zn    0.12893   0.20439   0.78733   0.00000  Uiso   1.00
C741   C     0.38632   0.15947   0.76001   0.00000  Uiso   1.00
C742   C     0.51436   0.16669   0.55703   0.00000  Uiso   1.00
C743   C     0.53395   0.09924   0.56240   0.00000  Uiso   1.00
C744   C     0.61406   0.17393   0.74042   0.00000  Uiso   1.00
C745   C     0.47620   0.19454   0.92019   0.00000  Uiso   1.00
C746   C     0.65990   0.17821   0.73891   0.00000  Uiso   1.00
C747   C     0.34106   0.15527   0.76420   0.00000  Uiso   1.00
C748   C     0.51184   0.32224   0.73738   0.00000  Uiso   1.00
C749   C     0.48419   0.01252   0.76585   0.00000  Uiso   1.00
C750   C     0.49003   0.05607   0.75974   0.00000  Uiso   1.00
C751   C     0.50965   0.27785   0.74056   0.00000  Uiso   1.00
C752   C     0.47176   0.24811   0.98210   0.00000  Uiso   1.00
C753   C     0.51860   0.14783   0.62951   0.00000  Uiso   1.00
C754   C     0.48143   0.18438   0.87119   0.00000  Uiso   1.00
C755   C     0.53073   0.08698   0.51896   0.00000  Uiso   1.00
C756   C     0.52522   0.13879   0.58150   0.00000  Uiso   1.00
C757   C     0.46577   0.23444   0.93971   0.00000  Uiso   1.00
C758   C     0.66035   0.10994   0.82595   0.00000  Uiso   1.00
C759   C     0.41741   0.02030   0.82425   0.00000  Uiso   1.00
C760   C     0.50812   0.04223   0.89088   0.00000  Uiso   1.00
C761   C     0.40533   0.25662   0.92208   0.00000  Uiso   1.00
C762   C     0.48725   0.22301   0.50576   0.00000  Uiso   1.00
C763   C     0.49495   0.18184   0.98897   0.00000  Uiso   1.00
C764   C     0.48749   0.16705   0.94651   0.00000  Uiso   1.00
C765   C     0.50939   0.15483   0.51327   0.00000  Uiso   1.00
C766   C     0.51751   0.11386   0.99413   0.00000  Uiso   1.00
C767   C     0.50949   0.09932   0.95213   0.00000  Uiso   1.00
C768   C     0.49132   0.12507   0.93105   0.00000  Uiso   1.00
H769   H     0.54142   0.07715   0.58190   0.00000  Uiso   1.00
H770   H     0.66578   0.13762   0.84922   0.00000  Uiso   1.00
H771   H     0.35646   0.09424   0.81431   0.00000  Uiso   1.00
H772   H     0.46636   0.32018   0.82717   0.00000  Uiso   1.00
H773   H     0.39421   0.00246   0.85035   0.00000  Uiso   1.00
H774   H     0.40090   0.02530   0.79852   0.00000  Uiso   1.00
H775   H     0.42843   0.05073   0.84022   0.00000  Uiso   1.00
H776   H     0.55011   0.05323   0.93212   0.00000  Uiso   1.00
H777   H     0.51791   0.01054   0.88133   0.00000  Uiso   1.00
H778   H     0.52473   0.06196   0.86318   0.00000  Uiso   1.00
H779   H     0.47294   0.03976   0.89593   0.00000  Uiso   1.00
H780   H     0.53635   0.00279   0.71034   0.00000  Uiso   1.00
H781   H     0.46266   0.29276   0.92193   0.00000  Uiso   1.00
H782   H     0.39682   0.27702   0.90032   0.00000  Uiso   1.00
H783   H     0.38908   0.26516   0.95754   0.00000  Uiso   1.00
H784   H     0.39386   0.22390   0.91256   0.00000  Uiso   1.00
H785   H     0.33996   0.22155   0.69724   0.00000  Uiso   1.00
H786   H     0.53611   0.05536   0.50637   0.00000  Uiso   1.00
H787   H     0.50677   0.19614   0.57467   0.00000  Uiso   1.00
H788   H     0.49260   0.23713   0.53724   0.00000  Uiso   1.00
H789   H     0.46514   0.27908   0.99659   0.00000  Uiso   1.00
H790   H     0.47969   0.11202   0.90235   0.00000  Uiso   1.00
H791   H     0.63829   0.09736   0.76769   0.00000  Uiso   1.00
H792   H     0.63431   0.08796   0.84444   0.00000  Uiso   1.00
N793   N     0.64800   0.12209   0.78815   0.00000  Uiso   1.00
N794   N     0.45321   0.33035   0.80410   0.00000  Uiso   1.00
N795   N     0.51993   0.05897   0.93188   0.00000  Uiso   1.00
N796   N     0.45116   0.26200   0.91622   0.00000  Uiso   1.00
O797   O     0.50000   0.16667   0.75000   0.00000  Uiso   1.00
O798   O     0.48784   0.12637   0.65458   0.00000  Uiso   1.00
O799   O     0.46274   0.20391   0.84968   0.00000  Uiso   1.00
O800   O     0.54157   0.17759   0.64606   0.00000  Uiso   1.00
O801   O     0.50785   0.15880   0.84968   0.00000  Uiso   1.00
O802   O     0.35543   0.20638   0.71259   0.00000  Uiso   1.00
O803   O     0.51264   0.08019   0.78213   0.00000  Uiso   1.00
O804   O     0.47965   0.26085   0.77013   0.00000  Uiso   1.00
O805   O     0.40745   0.13291   0.73413   0.00000  Uiso   1.00
O806   O     0.60026   0.19272   0.71360   0.00000  Uiso   1.00
O807   O     0.40405   0.18878   0.78213   0.00000  Uiso   1.00
O808   O     0.58824   0.15226   0.77013   0.00000  Uiso   1.00
O809   O     0.47093   0.06944   0.73413   0.00000  Uiso   1.00
O810   O     0.53678   0.25620   0.71360   0.00000  Uiso   1.00
Zn811  Zn    0.52672   0.13994   0.78734   0.00000  Uiso   1.00
Zn812  Zn    0.46713   0.12458   0.71875   0.00000  Uiso   1.00
Zn813  Zn    0.54389   0.19775   0.70657   0.00000  Uiso   1.00
Zn814  Zn    0.46226   0.20439   0.78733   0.00000  Uiso   1.00
C815   C     0.71966   0.15947   0.76001   0.00000  Uiso   1.00
C816   C     0.84769   0.16669   0.55703   0.00000  Uiso   1.00
C817   C     0.86728   0.09924   0.56240   0.00000  Uiso   1.00
C818   C     0.94739   0.17393   0.74042   0.00000  Uiso   1.00
C819   C     0.80953   0.19454   0.92019   0.00000  Uiso   1.00
C820   C     0.99323   0.17821   0.73891   0.00000  Uiso   1.00
C821   C     0.67440   0.15527   0.76420   0.00000  Uiso   1.00
C822   C     0.84517   0.32224   0.73738   0.00000  Uiso   1.00
C823   C     0.81752   0.01252   0.76585   0.00000  Uiso   1.00
C824   C     0.82336   0.05607   0.75974   0.00000  Uiso   1.00
C825   C     0.84298   0.27785   0.74056   0.00000  Uiso   1.00
C826   C     0.80509   0.24811   0.98210   0.00000  Uiso   1.00
C827   C     0.85193   0.14783   0.62951   0.00000  Uiso   1.00
C828   C     0.81476   0.18438   0.87119   0.00000  Uiso   1.00
C829   C     0.86406   0.08698   0.51896   0.00000  Uiso   1.00
C830   C     0.85855   0.13879   0.58150   0.00000  Uiso   1.00
C831   C     0.79910   0.23444   0.93971   0.00000  Uiso   1.00
C832   C     0.99368   0.10994   0.82595   0.00000  Uiso   1.00
C833   C     0.75074   0.02030   0.82425   0.00000  Uiso   1.00
C834   C     0.84145   0.04223   0.89088   0.00000  Uiso   1.00
C835   C     0.73866   0.25662   0.92208   0.00000  Uiso   1.00
C836   C     0.82058   0.22301   0.50576   0.00000  Uiso   1.00
C837   C     0.82828   0.18184   0.98897   0.00000  Uiso   1.00
C838   C     0.82082   0.16705   0.94651   0.00000  Uiso   1.00
C839   C     0.84273   0.15483   0.51327   0.00000  Uiso   1.00
C840   C     0.85085   0.11386   0.99413   0.00000  Uiso   1.00
C841   C     0.84282   0.09932   0.95213   0.00000  Uiso   1.00
C842   C     0.82465   0.12507   0.93105   0.00000  Uiso   1.00
H843   H     0.87475   0.07715   0.58190   0.00000  Uiso   1.00
H844   H     0.99912   0.13762   0.84922   0.00000  Uiso   1.00
H845   H     0.68979   0.09424   0.81431   0.00000  Uiso   1.00
H846   H     0.79970   0.32018   0.82717   0.00000  Uiso   1.00
H847   H     0.72755   0.00246   0.85035   0.00000  Uiso   1.00
H848   H     0.73423   0.02530   0.79852   0.00000  Uiso   1.00
H849   H     0.76177   0.05073   0.84022   0.00000  Uiso   1.00
H850   H     0.88344   0.05323   0.93212   0.00000  Uiso   1.00
H851   H     0.85124   0.01054   0.88133   0.00000  Uiso   1.00
H852   H     0.85806   0.06196   0.86318   0.00000  Uiso   1.00
H853   H     0.80627   0.03976   0.89593   0.00000  Uiso   1.00
H854   H     0.86968   0.00279   0.71034   0.00000  Uiso   1.00
H855   H     0.79600   0.29276   0.92193   0.00000  Uiso   1.00
H856   H     0.73016   0.27702   0.90032   0.00000  Uiso   1.00
H857   H     0.72241   0.26516   0.95754   0.00000  Uiso   1.00
H858   H     0.72719   0.22390   0.91256   0.00000  Uiso   1.00
H859   H     0.67330   0.22155   0.69724   0.00000  Uiso   1.00
H860   H     0.86944   0.05536   0.50637   0.00000  Uiso   1.00
H861   H     0.84010   0.19614   0.57467   0.00000  Uiso   1.00
H862   H     0.82593   0.23713   0.53724   0.00000  Uiso   1.00
H863   H     0.79848   0.27908   0.99659   0.00000  Uiso   1.00
H864   H     0.81303   0.11202   0.90235   0.00000  Uiso   1.00
H865   H     0.97163   0.09736   0.76769   0.00000  Uiso   1.00
H866   H     0.96764   0.08796   0.84444   0.00000  Uiso   1.00
N867   N     0.98134   0.12209   0.78815   0.00000  Uiso   1.00
N868   N     0.78654   0.33035   0.80410   0.00000  Uiso   1.00
N869   N     0.85326   0.05897   0.93188   0.00000  Uiso   1.00
N870   N     0.78449   0.26200   0.91622   0.00000  Uiso   1.00
O871   O     0.83333   0.16667   0.75000   0.00000  Uiso   1.00
O872   O     0.82118   0.12637   0.65458   0.00000  Uiso   1.00
O873   O     0.79607   0.20391   0.84968   0.00000  Uiso   1.00
O874   O     0.87491   0.17759   0.64606   0.00000  Uiso   1.00
O875   O     0.84118   0.15880   0.84968   0.00000  Uiso   1.00
O876   O     0.68877   0.20638   0.71259   0.00000  Uiso   1.00
O877   O     0.84597   0.08019   0.78213   0.00000  Uiso   1.00
O878   O     0.81298   0.26085   0.77013   0.00000  Uiso   1.00
O879   O     0.74078   0.13291   0.73413   0.00000  Uiso   1.00
O880   O     0.93360   0.19272   0.71360   0.00000  Uiso   1.00
O881   O     0.73738   0.18878   0.78213   0.00000  Uiso   1.00
O882   O     0.92158   0.15226   0.77013   0.00000  Uiso   1.00
O883   O     0.80426   0.06944   0.73413   0.00000  Uiso   1.00
O884   O     0.87012   0.25620   0.71360   0.00000  Uiso   1.00
Zn885  Zn    0.86005   0.13994   0.78734   0.00000  Uiso   1.00
Zn886  Zn    0.80046   0.12458   0.71875   0.00000  Uiso   1.00
Zn887  Zn    0.87723   0.19775   0.70657   0.00000  Uiso   1.00
Zn888  Zn    0.79560   0.20439   0.78733   0.00000  Uiso   1.00
C889   C     0.05299   0.49280   0.76001   0.00000  Uiso   1.00
C890   C     0.18102   0.50002   0.55703   0.00000  Uiso   1.00
C891   C     0.20062   0.43257   0.56240   0.00000  Uiso   1.00
C892   C     0.28072   0.50726   0.74042   0.00000  Uiso   1.00
C893   C     0.14287   0.52788   0.92019   0.00000  Uiso   1.00
C894   C     0.32656   0.51155   0.73891   0.00000  Uiso   1.00
C895   C     0.00773   0.48861   0.76420   0.00000  Uiso   1.00
C896   C     0.17850   0.65558   0.73738   0.00000  Uiso   1.00
C897   C     0.15085   0.34585   0.76585   0.00000  Uiso   1.00
C898   C     0.15670   0.38940   0.75974   0.00000  Uiso   1.00
C899   C     0.17631   0.61118   0.74056   0.00000  Uiso   1.00
C900   C     0.13842   0.58145   0.98210   0.00000  Uiso   1.00
C901   C     0.18526   0.48116   0.62951   0.00000  Uiso   1.00
C902   C     0.14810   0.51772   0.87119   0.00000  Uiso   1.00
C903   C     0.19740   0.42032   0.51896   0.00000  Uiso   1.00
C904   C     0.19189   0.47213   0.58150   0.00000  Uiso   1.00
C905   C     0.13244   0.56778   0.93971   0.00000  Uiso   1.00
C906   C     0.32702   0.44327   0.82595   0.00000  Uiso   1.00
C907   C     0.08407   0.35363   0.82425   0.00000  Uiso   1.00
C908   C     0.17478   0.37556   0.89088   0.00000  Uiso   1.00
C909   C     0.07200   0.58996   0.92208   0.00000  Uiso   1.00
C910   C     0.15392   0.55635   0.50576   0.00000  Uiso   1.00
C911   C     0.16162   0.51517   0.98897   0.00000  Uiso   1.00
C912   C     0.15416   0.50038   0.94651   0.00000  Uiso   1.00
C913   C     0.17606   0.48816   0.51327   0.00000  Uiso   1.00
C914   C     0.18418   0.44719   0.99413   0.00000  Uiso   1.00
C915   C     0.17615   0.43266   0.95213   0.00000  Uiso   1.00
C916   C     0.15799   0.45840   0.93105   0.00000  Uiso   1.00
H917   H     0.20809   0.41049   0.58190   0.00000  Uiso   1.00
H918   H     0.33245   0.47096   0.84922   0.00000  Uiso   1.00
H919   H     0.02313   0.42757   0.81431   0.00000  Uiso   1.00
H920   H     0.13303   0.65351   0.82717   0.00000  Uiso   1.00
H921   H     0.06088   0.33580   0.85035   0.00000  Uiso   1.00
H922   H     0.06757   0.35864   0.79852   0.00000  Uiso   1.00
H923   H     0.09510   0.38407   0.84022   0.00000  Uiso   1.00
H924   H     0.21677   0.38656   0.93212   0.00000  Uiso   1.00
H925   H     0.18458   0.34387   0.88133   0.00000  Uiso   1.00
H926   H     0.19140   0.39529   0.86318   0.00000  Uiso   1.00
H927   H     0.13961   0.37309   0.89593   0.00000  Uiso   1.00
H928   H     0.20301   0.33612   0.71034   0.00000  Uiso   1.00
H929   H     0.12933   0.62610   0.92193   0.00000  Uiso   1.00
H930   H     0.06349   0.61036   0.90032   0.00000  Uiso   1.00
H931   H     0.05574   0.59849   0.95754   0.00000  Uiso   1.00
H932   H     0.06053   0.55723   0.91256   0.00000  Uiso   1.00
H933   H     0.00663   0.55488   0.69724   0.00000  Uiso   1.00
H934   H     0.20278   0.38869   0.50637   0.00000  Uiso   1.00
H935   H     0.17343   0.52947   0.57467   0.00000  Uiso   1.00
H936   H     0.15926   0.57046   0.53724   0.00000  Uiso   1.00
H937   H     0.13181   0.61241   0.99659   0.00000  Uiso   1.00
H938   H     0.14636   0.44536   0.90235   0.00000  Uiso   1.00
H939   H     0.30496   0.43069   0.76769   0.00000  Uiso   1.00
H940   H     0.30098   0.42129   0.84444   0.00000  Uiso   1.00
N941   N     0.31467   0.45542   0.78815   0.00000  Uiso   1.00
N942   N     0.11987   0.66369   0.80410   0.00000  Uiso   1.00
N943   N     0.18659   0.39231   0.93188   0.00000  Uiso   1.00
N944   N     0.11782   0.59534   0.91622   0.00000  Uiso   1.00
O945   O     0.16667   0.50000   0.75000   0.00000  Uiso   1.00
O946   O     0.15451   0.45970   0.65458   0.00000  Uiso   1.00
O947   O     0.12940   0.53724   0.84968   0.00000  Uiso   1.00
O948   O     0.20824   0.51092   0.64606   0.00000  Uiso   1.00
O949   O     0.17451   0.49213   0.84968   0.00000  Uiso   1.00
O950   O     0.02210   0.53971   0.71259   0.00000  Uiso   1.00
O951   O     0.17930   0.41352   0.78213   0.00000  Uiso   1.00
O952   O     0.14632   0.59418   0.77013   0.00000  Uiso   1.00
O953   O     0.07412   0.46625   0.73413   0.00000  Uiso   1.00
O954   O     0.26693   0.52605   0.71360   0.00000  Uiso   1.00
O955   O     0.07071   0.52211   0.78213   0.00000  Uiso   1.00
O956   O     0.25491   0.48559   0.77013   0.00000  Uiso   1.00
O957   O     0.13760   0.40277   0.73413   0.00000  Uiso   1.00
O958   O     0.20345   0.58953   0.71360   0.00000  Uiso   1.00
Zn959  Zn    0.19338   0.47327   0.78734   0.00000  Uiso   1.00
Zn960  Zn    0.13379   0.45791   0.71875   0.00000  Uiso   1.00
Zn961  Zn    0.21056   0.53109   0.70657   0.00000  Uiso   1.00
Zn962  Zn    0.12893   0.53773   0.78733   0.00000  Uiso   1.00
C963   C     0.38632   0.49280   0.76001   0.00000  Uiso   1.00
C964   C     0.51436   0.50002   0.55703   0.00000  Uiso   1.00
C965   C     0.53395   0.43257   0.56240   0.00000  Uiso   1.00
C966   C     0.61406   0.50726   0.74042   0.00000  Uiso   1.00
C967   C     0.47620   0.52788   0.92019   0.00000  Uiso   1.00
C968   C     0.65990   0.51155   0.73891   0.00000  Uiso   1.00
C969   C     0.34106   0.48861   0.76420   0.00000  Uiso   1.00
C970   C     0.51184   0.65558   0.73738   0.00000  Uiso   1.00
C971   C     0.48419   0.34585   0.76585   0.00000  Uiso   1.00
C972   C     0.49003   0.38940   0.75974   0.00000  Uiso   1.00
C973   C     0.50965   0.61118   0.74056   0.00000  Uiso   1.00
C974   C     0.47176   0.58145   0.98210   0.00000  Uiso   1.00
C975   C     0.51860   0.48116   0.62951   0.00000  Uiso   1.00
C976   C     0.48143   0.51772   0.87119   0.00000  Uiso   1.00
C977   C     0.53073   0.42032   0.51896   0.00000  Uiso   1.00
C978   C     0.52522   0.47213   0.58150   0.00000  Uiso   1.00
C979   C     0.46577   0.56778   0.93971   0.00000  Uiso   1.00
C980   C     0.66035   0.44327   0.82595   0.00000  Uiso   1.00
C981   C     0.41741   0.35363   0.82425   0.00000  Uiso   1.00
C982   C     0.50812   0.37556   0.89088   0.00000  Uiso   1.00
C983   C     0.40533   0.58996   0.92208   0.00000  Uiso   1.00
C984   C     0.48725   0.55635   0.50576   0.00000  Uiso   1.00
C985   C     0.49495   0.51517   0.98897   0.00000  Uiso   1.00
C986   C     0.48749   0.50038   0.94651   0.00000  Uiso   1.00
C987   C     0.50939   0.48816   0.51327   0.00000  Uiso   1.00
C988   C     0.51751   0.44719   0.99413   0.00000  Uiso   1.00
C989   C     0.50949   0.43266   0.95213   0.00000  Uiso   1.00
C990   C     0.49132   0.45840   0.93105   0.00000  Uiso   1.00
H991   H     0.54142   0.41049   0.58190   0.00000  Uiso   1.00
H992   H     0.66578   0.47096   0.84922   0.00000  Uiso   1.00
H993   H     0.35646   0.42757   0.81431   0.00000  Uiso   1.00
H994   H     0.46636   0.65351   0.82717   0.00000  Uiso   1.00
H995   H     0.39421   0.33580   0.85035   0.00000  Uiso   1.00
H996   H     0.40090   0.35864   0.79852   0.00000  Uiso   1.00
H997   H     0.42843   0.38407   0.84022   0.00000  Uiso   1.00
H998   H     0.55011   0.38656   0.93212   0.00000  Uiso   1.00
H999   H     0.51791   0.34387   0.88133   0.00000  Uiso   1.00
H1000  H     0.52473   0.39529   0.86318   0.00000  Uiso   1.00
H1001  H     0.47294   0.37309   0.89593   0.00000  Uiso   1.00
H1002  H     0.53635   0.33612   0.71034   0.00000  Uiso   1.00
H1003  H     0.46266   0.62610   0.92193   0.00000  Uiso   1.00
H1004  H     0.39682   0.61036   0.90032   0.00000  Uiso   1.00
H1005  H     0.38908   0.59849   0.95754   0.00000  Uiso   1.00
H1006  H     0.39386   0.55723   0.91256   0.00000  Uiso   1.00
H1007  H     0.33996   0.55488   0.69724   0.00000  Uiso   1.00
H1008  H     0.53611   0.38869   0.50637   0.00000  Uiso   1.00
H1009  H     0.50677   0.52947   0.57467   0.00000  Uiso   1.00
H1010  H     0.49260   0.57046   0.53724   0.00000  Uiso   1.00
H1011  H     0.46514   0.61241   0.99659   0.00000  Uiso   1.00
H1012  H     0.47969   0.44536   0.90235   0.00000  Uiso   1.00
H1013  H     0.63829   0.43069   0.76769   0.00000  Uiso   1.00
H1014  H     0.63431   0.42129   0.84444   0.00000  Uiso   1.00
N1015  N     0.64800   0.45542   0.78815   0.00000  Uiso   1.00
N1016  N     0.45321   0.66369   0.80410   0.00000  Uiso   1.00
N1017  N     0.51993   0.39231   0.93188   0.00000  Uiso   1.00
N1018  N     0.45116   0.59534   0.91622   0.00000  Uiso   1.00
O1019  O     0.50000   0.50000   0.75000   0.00000  Uiso   1.00
O1020  O     0.48784   0.45970   0.65458   0.00000  Uiso   1.00
O1021  O     0.46274   0.53724   0.84968   0.00000  Uiso   1.00
O1022  O     0.54157   0.51092   0.64606   0.00000  Uiso   1.00
O1023  O     0.50785   0.49213   0.84968   0.00000  Uiso   1.00
O1024  O     0.35543   0.53971   0.71259   0.00000  Uiso   1.00
O1025  O     0.51264   0.41352   0.78213   0.00000  Uiso   1.00
O1026  O     0.47965   0.59418   0.77013   0.00000  Uiso   1.00
O1027  O     0.40745   0.46625   0.73413   0.00000  Uiso   1.00
O1028  O     0.60026   0.52605   0.71360   0.00000  Uiso   1.00
O1029  O     0.40405   0.52211   0.78213   0.00000  Uiso   1.00
O1030  O     0.58824   0.48559   0.77013   0.00000  Uiso   1.00
O1031  O     0.47093   0.40277   0.73413   0.00000  Uiso   1.00
O1032  O     0.53678   0.58953   0.71360   0.00000  Uiso   1.00
Zn1033 Zn    0.52672   0.47327   0.78734   0.00000  Uiso   1.00
Zn1034 Zn    0.46713   0.45791   0.71875   0.00000  Uiso   1.00
Zn1035 Zn    0.54389   0.53109   0.70657   0.00000  Uiso   1.00
Zn1036 Zn    0.46226   0.53773   0.78733   0.00000  Uiso   1.00
C1037  C     0.71966   0.49280   0.76001   0.00000  Uiso   1.00
C1038  C     0.84769   0.50002   0.55703   0.00000  Uiso   1.00
C1039  C     0.86728   0.43257   0.56240   0.00000  Uiso   1.00
C1040  C     0.94739   0.50726   0.74042   0.00000  Uiso   1.00
C1041  C     0.80953   0.52788   0.92019   0.00000  Uiso   1.00
C1042  C     0.99323   0.51155   0.73891   0.00000  Uiso   1.00
C1043  C     0.67440   0.48861   0.76420   0.00000  Uiso   1.00
C1044  C     0.84517   0.65558   0.73738   0.00000  Uiso   1.00
C1045  C     0.81752   0.34585   0.76585   0.00000  Uiso   1.00
C1046  C     0.82336   0.38940   0.75974   0.00000  Uiso   1.00
C1047  C     0.84298   0.61118   0.74056   0.00000  Uiso   1.00
C1048  C     0.80509   0.58145   0.98210   0.00000  Uiso   1.00
C1049  C     0.85193   0.48116   0.62951   0.00000  Uiso   1.00
C1050  C     0.81476   0.51772   0.87119   0.00000  Uiso   1.00
C1051  C     0.86406   0.42032   0.51896   0.00000  Uiso   1.00
C1052  C     0.85855   0.47213   0.58150   0.00000  Uiso   1.00
C1053  C     0.79910   0.56778   0.93971   0.00000  Uiso   1.00
C1054  C     0.99368   0.44327   0.82595   0.00000  Uiso   1.00
C1055  C     0.75074   0.35363   0.82425   0.00000  Uiso   1.00
C1056  C     0.84145   0.37556   0.89088   0.00000  Uiso   1.00
C1057  C     0.73866   0.58996   0.92208   0.00000  Uiso   1.00
C1058  C     0.82058   0.55635   0.50576   0.00000  Uiso   1.00
C1059  C     0.82828   0.51517   0.98897   0.00000  Uiso   1.00
C1060  C     0.82082   0.50038   0.94651   0.00000  Uiso   1.00
C1061  C     0.84273   0.48816   0.51327   0.00000  Uiso   1.00
C1062  C     0.85085   0.44719   0.99413   0.00000  Uiso   1.00
C1063  C     0.84282   0.43266   0.95213   0.00000  Uiso   1.00
C1064  C     0.82465   0.45840   0.93105   0.00000  Uiso   1.00
H1065  H     0.87475   0.41049   0.58190   0.00000  Uiso   1.00
H1066  H     0.99912   0.47096   0.84922   0.00000  Uiso   1.00
H1067  H     0.68979   0.42757   0.81431   0.00000  Uiso   1.00
H1068  H     0.79970   0.65351   0.82717   0.00000  Uiso   1.00
H1069  H     0.72755   0.33580   0.85035   0.00000  Uiso   1.00
H1070  H     0.73423   0.35864   0.79852   0.00000  Uiso   1.00
H1071  H     0.76177   0.38407   0.84022   0.00000  Uiso   1.00
H1072  H     0.88344   0.38656   0.93212   0.00000  Uiso   1.00
H1073  H     0.85124   0.34387   0.88133   0.00000  Uiso   1.00
H1074  H     0.85806   0.39529   0.86318   0.00000  Uiso   1.00
H1075  H     0.80627   0.37309   0.89593   0.00000  Uiso   1.00
H1076  H     0.86968   0.33612   0.71034   0.00000  Uiso   1.00
H1077  H     0.79600   0.62610   0.92193   0.00000  Uiso   1.00
H1078  H     0.73016   0.61036   0.90032   0.00000  Uiso   1.00
H1079  H     0.72241   0.59849   0.95754   0.00000  Uiso   1.00
H1080  H     0.72719   0.55723   0.91256   0.00000  Uiso   1.00
H1081  H     0.67330   0.55488   0.69724   0.00000  Uiso   1.00
H1082  H     0.86944   0.38869   0.50637   0.00000  Uiso   1.00
H1083  H     0.84010   0.52947   0.57467   0.00000  Uiso   1.00
H1084  H     0.82593   0.57046   0.53724   0.00000  Uiso   1.00
H1085  H     0.79848   0.61241   0.99659   0.00000  Uiso   1.00
H1086  H     0.81303   0.44536   0.90235   0.00000  Uiso   1.00
H1087  H     0.97163   0.43069   0.76769   0.00000  Uiso   1.00
H1088  H     0.96764   0.42129   0.84444   0.00000  Uiso   1.00
N1089  N     0.98134   0.45542   0.78815   0.00000  Uiso   1.00
N1090  N     0.78654   0.66369   0.80410   0.00000  Uiso   1.00
N1091  N     0.85326   0.39231   0.93188   0.00000  Uiso   1.00
N1092  N     0.78449   0.59534   0.91622   0.00000  Uiso   1.00
O1093  O     0.83333   0.50000   0.75000   0.00000  Uiso   1.00
O1094  O     0.82118   0.45970   0.65458   0.00000  Uiso   1.00
O1095  O     0.79607   0.53724   0.84968   0.00000  Uiso   1.00
O1096  O     0.87491   0.51092   0.64606   0.00000  Uiso   1.00
O1097  O     0.84118   0.49213   0.84968   0.00000  Uiso   1.00
O1098  O     0.68877   0.53971   0.71259   0.00000  Uiso   1.00
O1099  O     0.84597   0.41352   0.78213   0.00000  Uiso   1.00
O1100  O     0.81298   0.59418   0.77013   0.00000  Uiso   1.00
O1101  O     0.74078   0.46625   0.73413   0.00000  Uiso   1.00
O1102  O     0.93360   0.52605   0.71360   0.00000  Uiso   1.00
O1103  O     0.73738   0.52211   0.78213   0.00000  Uiso   1.00
O1104  O     0.92158   0.48559   0.77013   0.00000  Uiso   1.00
O1105  O     0.80426   0.40277   0.73413   0.00000  Uiso   1.00
O1106  O     0.87012   0.58953   0.71360   0.00000  Uiso   1.00
Zn1107 Zn    0.86005   0.47327   0.78734   0.00000  Uiso   1.00
Zn1108 Zn    0.80046   0.45791   0.71875   0.00000  Uiso   1.00
Zn1109 Zn    0.87723   0.53109   0.70657   0.00000  Uiso   1.00
Zn1110 Zn    0.79560   0.53773   0.78733   0.00000  Uiso   1.00
C1111  C     0.05299   0.82613   0.76001   0.00000  Uiso   1.00
C1112  C     0.18102   0.83336   0.55703   0.00000  Uiso   1.00
C1113  C     0.20062   0.76590   0.56240   0.00000  Uiso   1.00
C1114  C     0.28072   0.84060   0.74042   0.00000  Uiso   1.00
C1115  C     0.14287   0.86121   0.92019   0.00000  Uiso   1.00
C1116  C     0.32656   0.84488   0.73891   0.00000  Uiso   1.00
C1117  C     0.00773   0.82194   0.76420   0.00000  Uiso   1.00
C1118  C     0.17850   0.98891   0.73738   0.00000  Uiso   1.00
C1119  C     0.15085   0.67919   0.76585   0.00000  Uiso   1.00
C1120  C     0.15670   0.72274   0.75974   0.00000  Uiso   1.00
C1121  C     0.17631   0.94452   0.74056   0.00000  Uiso   1.00
C1122  C     0.13842   0.91478   0.98210   0.00000  Uiso   1.00
C1123  C     0.18526   0.81449   0.62951   0.00000  Uiso   1.00
C1124  C     0.14810   0.85105   0.87119   0.00000  Uiso   1.00
C1125  C     0.19740   0.75365   0.51896   0.00000  Uiso   1.00
C1126  C     0.19189   0.80546   0.58150   0.00000  Uiso   1.00
C1127  C     0.13244   0.90111   0.93971   0.00000  Uiso   1.00
C1128  C     0.32702   0.77661   0.82595   0.00000  Uiso   1.00
C1129  C     0.08407   0.68696   0.82425   0.00000  Uiso   1.00
C1130  C     0.17478   0.70889   0.89088   0.00000  Uiso   1.00
C1131  C     0.07200   0.92329   0.92208   0.00000  Uiso   1.00
C1132  C     0.15392   0.88968   0.50576   0.00000  Uiso   1.00
C1133  C     0.16162   0.84850   0.98897   0.00000  Uiso   1.00
C1134  C     0.15416   0.83372   0.94651   0.00000  Uiso   1.00
C1135  C     0.17606   0.82149   0.51327   0.00000  Uiso   1.00
C1136  C     0.18418   0.78053   0.99413   0.00000  Uiso   1.00
C1137  C     0.17615   0.76599   0.95213   0.00000  Uiso   1.00
C1138  C     0.15799   0.79173   0.93105   0.00000  Uiso   1.00
H1139  H     0.20809   0.74382   0.58190   0.00000  Uiso   1.00
H1140  H     0.33245   0.80429   0.84922   0.00000  Uiso   1.00
H1141  H     0.02313   0.76091   0.81431   0.00000  Uiso   1.00
H1142  H     0.13303   0.98685   0.82717   0.00000  Uiso   1.00
H1143  H     0.06088   0.66913   0.85035   0.00000  Uiso   1.00
H1144  H     0.06757   0.69197   0.79852   0.00000  Uiso   1.00
H1145  H     0.09510   0.71740   0.84022   0.00000  Uiso   1.00
H1146  H     0.21677   0.71989   0.93212   0.00000  Uiso   1.00
H1147  H     0.18458   0.67721   0.88133   0.00000  Uiso   1.00
H1148  H     0.19140   0.72863   0.86318   0.00000  Uiso   1.00
H1149  H     0.13961   0.70643   0.89593   0.00000  Uiso   1.00
H1150  H     0.20301   0.66946   0.71034   0.00000  Uiso   1.00
H1151  H     0.12933   0.95943   0.92193   0.00000  Uiso   1.00
H1152  H     0.06349   0.94369   0.90032   0.00000  Uiso   1.00
H1153  H     0.05574   0.93182   0.95754   0.00000  Uiso   1.00
H1154  H     0.06053   0.89057   0.91256   0.00000  Uiso   1.00
H1155  H     0.00663   0.88821   0.69724   0.00000  Uiso   1.00
H1156  H     0.20278   0.72203   0.50637   0.00000  Uiso   1.00
H1157  H     0.17343   0.86281   0.57467   0.00000  Uiso   1.00
H1158  H     0.15926   0.90380   0.53724   0.00000  Uiso   1.00
H1159  H     0.13181   0.94574   0.99659   0.00000  Uiso   1.00
H1160  H     0.14636   0.77869   0.90235   0.00000  Uiso   1.00
H1161  H     0.30496   0.76402   0.76769   0.00000  Uiso   1.00
H1162  H     0.30098   0.75463   0.84444   0.00000  Uiso   1.00
N1163  N     0.31467   0.78875   0.78815   0.00000  Uiso   1.00
N1164  N     0.11987   0.99702   0.80410   0.00000  Uiso   1.00
N1165  N     0.18659   0.72564   0.93188   0.00000  Uiso   1.00
N1166  N     0.11782   0.92867   0.91622   0.00000  Uiso   1.00
O1167  O     0.16667   0.83333   0.75000   0.00000  Uiso   1.00
O1168  O     0.15451   0.79304   0.65458   0.00000  Uiso   1.00
O1169  O     0.12940   0.87058   0.84968   0.00000  Uiso   1.00
O1170  O     0.20824   0.84425   0.64606   0.00000  Uiso   1.00
O1171  O     0.17451   0.82546   0.84968   0.00000  Uiso   1.00
O1172  O     0.02210   0.87305   0.71259   0.00000  Uiso   1.00
O1173  O     0.17930   0.74686   0.78213   0.00000  Uiso   1.00
O1174  O     0.14632   0.92751   0.77013   0.00000  Uiso   1.00
O1175  O     0.07412   0.79958   0.73413   0.00000  Uiso   1.00
O1176  O     0.26693   0.85939   0.71360   0.00000  Uiso   1.00
O1177  O     0.07071   0.85544   0.78213   0.00000  Uiso   1.00
O1178  O     0.25491   0.81892   0.77013   0.00000  Uiso   1.00
O1179  O     0.13760   0.73610   0.73413   0.00000  Uiso   1.00
O1180  O     0.20345   0.92286   0.71360   0.00000  Uiso   1.00
Zn1181 Zn    0.19338   0.80661   0.78734   0.00000  Uiso   1.00
Zn1182 Zn    0.13379   0.79124   0.71875   0.00000  Uiso   1.00
Zn1183 Zn    0.21056   0.86442   0.70657   0.00000  Uiso   1.00
Zn1184 Zn    0.12893   0.87106   0.78733   0.00000  Uiso   1.00
C1185  C     0.38632   0.82613   0.76001   0.00000  Uiso   1.00
C1186  C     0.51436   0.83336   0.55703   0.00000  Uiso   1.00
C1187  C     0.53395   0.76590   0.56240   0.00000  Uiso   1.00
C1188  C     0.61406   0.84060   0.74042   0.00000  Uiso   1.00
C1189  C     0.47620   0.86121   0.92019   0.00000  Uiso   1.00
C1190  C     0.65990   0.84488   0.73891   0.00000  Uiso   1.00
C1191  C     0.34106   0.82194   0.76420   0.00000  Uiso   1.00
C1192  C     0.51184   0.98891   0.73738   0.00000  Uiso   1.00
C1193  C     0.48419   0.67919   0.76585   0.00000  Uiso   1.00
C1194  C     0.49003   0.72274   0.75974   0.00000  Uiso   1.00
C1195  C     0.50965   0.94452   0.74056   0.00000  Uiso   1.00
C1196  C     0.47176   0.91478   0.98210   0.00000  Uiso   1.00
C1197  C     0.51860   0.81449   0.62951   0.00000  Uiso   1.00
C1198  C     0.48143   0.85105   0.87119   0.00000  Uiso   1.00
C1199  C     0.53073   0.75365   0.51896   0.00000  Uiso   1.00
C1200  C     0.52522   0.80546   0.58150   0.00000  Uiso   1.00
C1201  C     0.46577   0.90111   0.93971   0.00000  Uiso   1.00
C1202  C     0.66035   0.77661   0.82595   0.00000  Uiso   1.00
C1203  C     0.41741   0.68696   0.82425   0.00000  Uiso   1.00
C1204  C     0.50812   0.70889   0.89088   0.00000  Uiso   1.00
C1205  C     0.40533   0.92329   0.92208   0.00000  Uiso   1.00
C1206  C     0.48725   0.88968   0.50576   0.00000  Uiso   1.00
C1207  C     0.49495   0.84850   0.98897   0.00000  Uiso   1.00
C1208  C     0.48749   0.83372   0.94651   0.00000  Uiso   1.00
C1209  C     0.50939   0.82149   0.51327   0.00000  Uiso   1.00
C1210  C     0.51751   0.78053   0.99413   0.00000  Uiso   1.00
C1211  C     0.50949   0.76599   0.95213   0.00000  Uiso   1.00
C1212  C     0.49132   0.79173   0.93105   0.00000  Uiso   1.00
H1213  H     0.54142   0.74382   0.58190   0.00000  Uiso   1.00
H1214  H     0.66578   0.80429   0.84922   0.00000  Uiso   1.00
H1215  H     0.35646   0.76091   0.81431   0.00000  Uiso   1.00
H1216  H     0.46636   0.98685   0.82717   0.00000  Uiso   1.00
H1217  H     0.39421   0.66913   0.85035   0.00000  Uiso   1.00
H1218  H     0.40090   0.69197   0.79852   0.00000  Uiso   1.00
H1219  H     0.42843   0.71740   0.84022   0.00000  Uiso   1.00
H1220  H     0.55011   0.71989   0.93212   0.00000  Uiso   1.00
H1221  H     0.51791   0.67721   0.88133   0.00000  Uiso   1.00
H1222  H     0.52473   0.72863   0.86318   0.00000  Uiso   1.00
H1223  H     0.47294   0.70643   0.89593   0.00000  Uiso   1.00
H1224  H     0.53635   0.66946   0.71034   0.00000  Uiso   1.00
H1225  H     0.46266   0.95943   0.92193   0.00000  Uiso   1.00
H1226  H     0.39682   0.94369   0.90032   0.00000  Uiso   1.00
H1227  H     0.38908   0.93182   0.95754   0.00000  Uiso   1.00
H1228  H     0.39386   0.89057   0.91256   0.00000  Uiso   1.00
H1229  H     0.33996   0.88821   0.69724   0.00000  Uiso   1.00
H1230  H     0.53611   0.72203   0.50637   0.00000  Uiso   1.00
H1231  H     0.50677   0.86281   0.57467   0.00000  Uiso   1.00
H1232  H     0.49260   0.90380   0.53724   0.00000  Uiso   1.00
H1233  H     0.46514   0.94574   0.99659   0.00000  Uiso   1.00
H1234  H     0.47969   0.77869   0.90235   0.00000  Uiso   1.00
H1235  H     0.63829   0.76402   0.76769   0.00000  Uiso   1.00
H1236  H     0.63431   0.75463   0.84444   0.00000  Uiso   1.00
N1237  N     0.64800   0.78875   0.78815   0.00000  Uiso   1.00
N1238  N     0.45321   0.99702   0.80410   0.00000  Uiso   1.00
N1239  N     0.51993   0.72564   0.93188   0.00000  Uiso   1.00
N1240  N     0.45116   0.92867   0.91622   0.00000  Uiso   1.00
O1241  O     0.50000   0.83333   0.75000   0.00000  Uiso   1.00
O1242  O     0.48784   0.79304   0.65458   0.00000  Uiso   1.00
O1243  O     0.46274   0.87058   0.84968   0.00000  Uiso   1.00
O1244  O     0.54157   0.84425   0.64606   0.00000  Uiso   1.00
O1245  O     0.50785   0.82546   0.84968   0.00000  Uiso   1.00
O1246  O     0.35543   0.87305   0.71259   0.00000  Uiso   1.00
O1247  O     0.51264   0.74686   0.78213   0.00000  Uiso   1.00
O1248  O     0.47965   0.92751   0.77013   0.00000  Uiso   1.00
O1249  O     0.40745   0.79958   0.73413   0.00000  Uiso   1.00
O1250  O     0.60026   0.85939   0.71360   0.00000  Uiso   1.00
O1251  O     0.40405   0.85544   0.78213   0.00000  Uiso   1.00
O1252  O     0.58824   0.81892   0.77013   0.00000  Uiso   1.00
O1253  O     0.47093   0.73610   0.73413   0.00000  Uiso   1.00
O1254  O     0.53678   0.92286   0.71360   0.00000  Uiso   1.00
Zn1255 Zn    0.52672   0.80661   0.78734   0.00000  Uiso   1.00
Zn1256 Zn    0.46713   0.79124   0.71875   0.00000  Uiso   1.00
Zn1257 Zn    0.54389   0.86442   0.70657   0.00000  Uiso   1.00
Zn1258 Zn    0.46226   0.87106   0.78733   0.00000  Uiso   1.00
C1259  C     0.71966   0.82613   0.76001   0.00000  Uiso   1.00
C1260  C     0.84769   0.83336   0.55703   0.00000  Uiso   1.00
C1261  C     0.86728   0.76590   0.56240   0.00000  Uiso   1.00
C1262  C     0.94739   0.84060   0.74042   0.00000  Uiso   1.00
C1263  C     0.80953   0.86121   0.92019   0.00000  Uiso   1.00
C1264  C     0.99323   0.84488   0.73891   0.00000  Uiso   1.00
C1265  C     0.67440   0.82194   0.76420   0.00000  Uiso   1.00
C1266  C     0.84517   0.98891   0.73738   0.00000  Uiso   1.00
C1267  C     0.81752   0.67919   0.76585   0.00000  Uiso   1.00
C1268  C     0.82336   0.72274   0.75974   0.00000  Uiso   1.00
C1269  C     0.84298   0.94452   0.74056   0.00000  Uiso   1.00
C1270  C     0.80509   0.91478   0.98210   0.00000  Uiso   1.00
C1271  C     0.85193   0.81449   0.62951   0.00000  Uiso   1.00
C1272  C     0.81476   0.85105   0.87119   0.00000  Uiso   1.00
C1273  C     0.86406   0.75365   0.51896   0.00000  Uiso   1.00
C1274  C     0.85855   0.80546   0.58150   0.00000  Uiso   1.00
C1275  C     0.79910   0.90111   0.93971   0.00000  Uiso   1.00
C1276  C     0.99368   0.77661   0.82595   0.00000  Uiso   1.00
C1277  C     0.75074   0.68696   0.82425   0.00000  Uiso   1.00
C1278  C     0.84145   0.70889   0.89088   0.00000  Uiso   1.00
C1279  C     0.73866   0.92329   0.92208   0.00000  Uiso   1.00
C1280  C     0.82058   0.88968   0.50576   0.00000  Uiso   1.00
C1281  C     0.82828   0.84850   0.98897   0.00000  Uiso   1.00
C1282  C     0.82082   0.83372   0.94651   0.00000  Uiso   1.00
C1283  C     0.84273   0.82149   0.51327   0.00000  Uiso   1.00
C1284  C     0.85085   0.78053   0.99413   0.00000  Uiso   1.00
C1285  C     0.84282   0.76599   0.95213   0.00000  Uiso   1.00
C1286  C     0.82465   0.79173   0.93105   0.00000  Uiso   1.00
H1287  H     0.87475   0.74382   0.58190   0.00000  Uiso   1.00
H1288  H     0.99912   0.80429   0.84922   0.00000  Uiso   1.00
H1289  H     0.68979   0.76091   0.81431   0.00000  Uiso   1.00
H1290  H     0.79970   0.98685   0.82717   0.00000  Uiso   1.00
H1291  H     0.72755   0.66913   0.85035   0.00000  Uiso   1.00
H1292  H     0.73423   0.69197   0.79852   0.00000  Uiso   1.00
H1293  H     0.76177   0.71740   0.84022   0.00000  Uiso   1.00
H1294  H     0.88344   0.71989   0.93212   0.00000  Uiso   1.00
H1295  H     0.85124   0.67721   0.88133   0.00000  Uiso   1.00
H1296  H     0.85806   0.72863   0.86318   0.00000  Uiso   1.00
H1297  H     0.80627   0.70643   0.89593   0.00000  Uiso   1.00
H1298  H     0.86968   0.66946   0.71034   0.00000  Uiso   1.00
H1299  H     0.79600   0.95943   0.92193   0.00000  Uiso   1.00
H1300  H     0.73016   0.94369   0.90032   0.00000  Uiso   1.00
H1301  H     0.72241   0.93182   0.95754   0.00000  Uiso   1.00
H1302  H     0.72719   0.89057   0.91256   0.00000  Uiso   1.00
H1303  H     0.67330   0.88821   0.69724   0.00000  Uiso   1.00
H1304  H     0.86944   0.72203   0.50637   0.00000  Uiso   1.00
H1305  H     0.84010   0.86281   0.57467   0.00000  Uiso   1.00
H1306  H     0.82593   0.90380   0.53724   0.00000  Uiso   1.00
H1307  H     0.79848   0.94574   0.99659   0.00000  Uiso   1.00
H1308  H     0.81303   0.77869   0.90235   0.00000  Uiso   1.00
H1309  H     0.97163   0.76402   0.76769   0.00000  Uiso   1.00
H1310  H     0.96764   0.75463   0.84444   0.00000  Uiso   1.00
N1311  N     0.98134   0.78875   0.78815   0.00000  Uiso   1.00
N1312  N     0.78654   0.99702   0.80410   0.00000  Uiso   1.00
N1313  N     0.85326   0.72564   0.93188   0.00000  Uiso   1.00
N1314  N     0.78449   0.92867   0.91622   0.00000  Uiso   1.00
O1315  O     0.83333   0.83333   0.75000   0.00000  Uiso   1.00
O1316  O     0.82118   0.79304   0.65458   0.00000  Uiso   1.00
O1317  O     0.79607   0.87058   0.84968   0.00000  Uiso   1.00
O1318  O     0.87491   0.84425   0.64606   0.00000  Uiso   1.00
O1319  O     0.84118   0.82546   0.84968   0.00000  Uiso   1.00
O1320  O     0.68877   0.87305   0.71259   0.00000  Uiso   1.00
O1321  O     0.84597   0.74686   0.78213   0.00000  Uiso   1.00
O1322  O     0.81298   0.92751   0.77013   0.00000  Uiso   1.00
O1323  O     0.74078   0.79958   0.73413   0.00000  Uiso   1.00
O1324  O     0.93360   0.85939   0.71360   0.00000  Uiso   1.00
O1325  O     0.73738   0.85544   0.78213   0.00000  Uiso   1.00
O1326  O     0.92158   0.81892   0.77013   0.00000  Uiso   1.00
O1327  O     0.80426   0.73610   0.73413   0.00000  Uiso   1.00
O1328  O     0.87012   0.92286   0.71360   0.00000  Uiso   1.00
Zn1329 Zn    0.86005   0.80661   0.78734   0.00000  Uiso   1.00
Zn1330 Zn    0.80046   0.79124   0.71875   0.00000  Uiso   1.00
Zn1331 Zn    0.87723   0.86442   0.70657   0.00000  Uiso   1.00
Zn1332 Zn    0.79560   0.87106   0.78733   0.00000  Uiso   1.00
loop_
_geom_bond_atom_site_label_1
_geom_bond_atom_site_label_2
_geom_bond_distance
_geom_bond_site_symmetry_2
_ccdc_geom_bond_type
C1     O65     1.261   .     A
C1     O67     1.270   .     A
C1     C7      1.437   .     S
C2     H47     1.076   .     S
C2     C25     1.411   .     A
C2     C16     1.388   .     A
C3     H29     1.084   .     S
C3     C15     1.386   .     A
C3     C16     1.391   .     A
C4     O66     1.290   .     A
C4     C6      1.472   .     S
C4     O68     1.279   .     A
C5     C14     1.487   .     S
C5     C17     1.418   .     A
C5     C24     1.425   .     A
C6     C81     1.354   .     S
C6     O136    1.388   .     S
C7     C154    1.354   1_455 S
C7     N201    1.433   1_455 S
C8     C11     1.453   .     S
C8     C231    1.347   .     S
C8     H262    1.088   .     S
C9     C10     1.434   .     S
C9     C452    1.347   1_545 S
C9     N498    1.434   1_545 S
C10    O63     1.272   .     A
C10    O69     1.276   .     A
C11    O70     1.280   .     A
C11    O64     1.266   .     A
C12    C17     1.392   .     A
C12    H49     1.084   .     S
C12    C688    1.385   .     S
C13    C16     1.449   .     S
C13    O58     1.273   .     A
C13    O60     1.281   .     A
C14    O59     1.284   .     A
C14    O61     1.290   .     A
C15    H46     1.081   .     S
C15    C692    1.411   1_554 S
C17    N56     1.423   .     S
C18    H52     1.110   .     S
C18    H30     1.111   .     S
C18    N53     1.448   .     S
C18    H105    1.111   .     S
C19    H35     1.111   .     S
C19    H33     1.110   .     S
C19    H34     1.111   .     S
C19    N498    1.448   1_545 S
C20    H38     1.111   .     S
C20    H37     1.110   .     S
C20    N55     1.448   .     S
C20    H39     1.110   .     S
C21    N56     1.447   .     S
C21    H42     1.110   .     S
C21    H44     1.111   .     S
C21    H43     1.112   .     S
C22    H48     1.075   .     S
C22    C678    1.385   1_554 S
C22    C689    1.415   1_554 S
C23    C24     1.418   .     A
C23    C688    1.415   .     S
C23    C691    1.424   .     S
C24    C28     1.409   .     A
C25    C689    1.424   1_554 S
C25    C692    1.429   1_554 S
C26    C27     1.410   .     A
C26    C691    1.429   .     S
C26    C681    1.411   .     S
C27    N55     1.438   .     S
C27    C28     1.400   .     A
C28    H50     1.076   .     S
H31    C166    1.111   1_455 S
H32    N54     1.031   .     S
H36    N55     1.031   .     S
H40    C452    1.088   1_545 S
H41    N56     1.031   .     S
H45    O62     0.990   .     S
H51    N53     1.032   .     S
N53    C81     1.433   .     S
N54    C241    1.448   .     S
N54    C231    1.434   .     S
O57    Zn74    1.932   .     S
O57    Zn71    1.961   .     S
O57    Zn72    1.944   .     S
O57    Zn73    1.948   .     S
O58    Zn72    1.934   .     S
O59    Zn74    1.940   .     S
O60    Zn73    1.932   .     S
O61    Zn71    1.926   .     S
O62    C154    1.388   1_455 S
O63    Zn71    1.934   .     S
O64    Zn74    1.942   .     S
O65    Zn72    1.933   .     S
O66    Zn73    1.941   .     S
O67    Zn74    1.939   .     S
O68    Zn71    1.934   .     S
O69    Zn72    1.943   .     S
O70    Zn73    1.934   .     S
C75    O139    1.261   .     A
C75    O141    1.270   .     A
C75    C81     1.437   .     S
C76    H121    1.076   .     S
C76    C99     1.411   .     A
C76    C90     1.388   .     A
C77    H103    1.084   .     S
C77    C89     1.386   .     A
C77    C90     1.391   .     A
C78    O140    1.290   .     A
C78    C80     1.472   .     S
C78    O142    1.279   .     A
C79    C88     1.487   .     S
C79    C91     1.418   .     A
C79    C98     1.425   .     A
C80    C155    1.354   .     S
C80    O210    1.388   .     S
C82    C85     1.453   .     S
C82    C305    1.347   .     S
C82    H336    1.088   .     S
C83    C84     1.434   .     S
C83    C526    1.347   1_545 S
C83    N572    1.434   1_545 S
C84    O137    1.272   .     A
C84    O143    1.276   .     A
C85    O144    1.280   .     A
C85    O138    1.266   .     A
C86    C91     1.392   .     A
C86    H123    1.084   .     S
C86    C762    1.385   .     S
C87    C90     1.449   .     S
C87    O132    1.273   .     A
C87    O134    1.281   .     A
C88    O133    1.284   .     A
C88    O135    1.290   .     A
C89    H120    1.081   .     S
C89    C766    1.411   1_554 S
C91    N130    1.423   .     S
C92    H126    1.110   .     S
C92    H104    1.111   .     S
C92    N127    1.448   .     S
C92    H179    1.111   .     S
C93    H109    1.111   .     S
C93    H107    1.110   .     S
C93    H108    1.111   .     S
C93    N572    1.448   1_545 S
C94    H112    1.111   .     S
C94    H111    1.110   .     S
C94    N129    1.448   .     S
C94    H113    1.110   .     S
C95    N130    1.447   .     S
C95    H116    1.110   .     S
C95    H118    1.111   .     S
C95    H117    1.112   .     S
C96    H122    1.075   .     S
C96    C752    1.385   1_554 S
C96    C763    1.415   1_554 S
C97    C98     1.418   .     A
C97    C762    1.415   .     S
C97    C765    1.424   .     S
C98    C102    1.409   .     A
C99    C763    1.424   1_554 S
C99    C766    1.429   1_554 S
C100   C101    1.410   .     A
C100   C765    1.429   .     S
C100   C755    1.411   .     S
C101   N129    1.438   .     S
C101   C102    1.400   .     A
C102   H124    1.076   .     S
H106   N128    1.031   .     S
H110   N129    1.031   .     S
H114   C526    1.088   1_545 S
H115   N130    1.031   .     S
H119   O136    0.990   .     S
H125   N127    1.032   .     S
N127   C155    1.433   .     S
N128   C315    1.448   .     S
N128   C305    1.434   .     S
O131   Zn148   1.932   .     S
O131   Zn145   1.961   .     S
O131   Zn146   1.944   .     S
O131   Zn147   1.948   .     S
O132   Zn146   1.934   .     S
O133   Zn148   1.940   .     S
O134   Zn147   1.932   .     S
O135   Zn145   1.926   .     S
O137   Zn145   1.934   .     S
O138   Zn148   1.942   .     S
O139   Zn146   1.933   .     S
O140   Zn147   1.941   .     S
O141   Zn148   1.939   .     S
O142   Zn145   1.934   .     S
O143   Zn146   1.943   .     S
O144   Zn147   1.934   .     S
C149   O213    1.261   .     A
C149   O215    1.270   .     A
C149   C155    1.437   .     S
C150   H195    1.076   .     S
C150   C173    1.411   .     A
C150   C164    1.388   .     A
C151   H177    1.084   .     S
C151   C163    1.386   .     A
C151   C164    1.391   .     A
C152   O214    1.290   .     A
C152   C154    1.472   .     S
C152   O216    1.279   .     A
C153   C162    1.487   .     S
C153   C165    1.418   .     A
C153   C172    1.425   .     A
C154   C7      1.354   1_655 S
C154   O62     1.388   1_655 S
C156   C159    1.453   .     S
C156   C379    1.347   .     S
C156   H410    1.088   .     S
C157   C158    1.434   .     S
C157   C600    1.347   1_545 S
C157   N646    1.434   1_545 S
C158   O211    1.272   .     A
C158   O217    1.276   .     A
C159   O218    1.280   .     A
C159   O212    1.266   .     A
C160   C165    1.392   .     A
C160   H197    1.084   .     S
C160   C836    1.385   .     S
C161   C164    1.449   .     S
C161   O206    1.273   .     A
C161   O208    1.281   .     A
C162   O207    1.284   .     A
C162   O209    1.290   .     A
C163   H194    1.081   .     S
C163   C840    1.411   1_554 S
C165   N204    1.423   .     S
C166   H200    1.110   .     S
C166   H178    1.111   .     S
C166   N201    1.448   .     S
C166   H31     1.111   1_655 S
C167   H183    1.111   .     S
C167   H181    1.110   .     S
C167   H182    1.111   .     S
C167   N646    1.448   1_545 S
C168   H186    1.111   .     S
C168   H185    1.110   .     S
C168   N203    1.448   .     S
C168   H187    1.110   .     S
C169   N204    1.447   .     S
C169   H190    1.110   .     S
C169   H192    1.111   .     S
C169   H191    1.112   .     S
C170   H196    1.075   .     S
C170   C826    1.385   1_554 S
C170   C837    1.415   1_554 S
C171   C172    1.418   .     A
C171   C836    1.415   .     S
C171   C839    1.424   .     S
C172   C176    1.409   .     A
C173   C837    1.424   1_554 S
C173   C840    1.429   1_554 S
C174   C175    1.410   .     A
C174   C839    1.429   .     S
C174   C829    1.411   .     S
C175   N203    1.438   .     S
C175   C176    1.400   .     A
C176   H198    1.076   .     S
H180   N202    1.031   .     S
H184   N203    1.031   .     S
H188   C600    1.088   1_545 S
H189   N204    1.031   .     S
H193   O210    0.990   .     S
H199   N201    1.032   .     S
N201   C7      1.433   1_655 S
N202   C389    1.448   .     S
N202   C379    1.434   .     S
O205   Zn222   1.932   .     S
O205   Zn219   1.961   .     S
O205   Zn220   1.944   .     S
O205   Zn221   1.948   .     S
O206   Zn220   1.934   .     S
O207   Zn222   1.940   .     S
O208   Zn221   1.932   .     S
O209   Zn219   1.926   .     S
O211   Zn219   1.934   .     S
O212   Zn222   1.942   .     S
O213   Zn220   1.933   .     S
O214   Zn221   1.941   .     S
O215   Zn222   1.939   .     S
O216   Zn219   1.934   .     S
O217   Zn220   1.943   .     S
O218   Zn221   1.934   .     S
C223   O287    1.261   .     A
C223   O289    1.270   .     A
C223   C229    1.437   .     S
C224   H269    1.076   .     S
C224   C247    1.411   .     A
C224   C238    1.388   .     A
C225   H251    1.084   .     S
C225   C237    1.386   .     A
C225   C238    1.391   .     A
C226   O288    1.290   .     A
C226   C228    1.472   .     S
C226   O290    1.279   .     A
C227   C236    1.487   .     S
C227   C239    1.418   .     A
C227   C246    1.425   .     A
C228   C303    1.354   .     S
C228   O358    1.388   .     S
C229   C376    1.354   1_455 S
C229   N423    1.433   1_455 S
C230   C233    1.453   .     S
C230   C453    1.347   .     S
C230   H484    1.088   .     S
C231   C232    1.434   .     S
C232   O285    1.272   .     A
C232   O291    1.276   .     A
C233   O292    1.280   .     A
C233   O286    1.266   .     A
C234   C239    1.392   .     A
C234   H271    1.084   .     S
C234   C910    1.385   .     S
C235   C238    1.449   .     S
C235   O280    1.273   .     A
C235   O282    1.281   .     A
C236   O281    1.284   .     A
C236   O283    1.290   .     A
C237   H268    1.081   .     S
C237   C914    1.411   1_554 S
C239   N278    1.423   .     S
C240   H274    1.110   .     S
C240   H252    1.111   .     S
C240   N275    1.448   .     S
C240   H327    1.111   .     S
C241   H257    1.111   .     S
C241   H255    1.110   .     S
C241   H256    1.111   .     S
C242   H260    1.111   .     S
C242   H259    1.110   .     S
C242   N277    1.448   .     S
C242   H261    1.110   .     S
C243   N278    1.447   .     S
C243   H264    1.110   .     S
C243   H266    1.111   .     S
C243   H265    1.112   .     S
C244   H270    1.075   .     S
C244   C900    1.385   1_554 S
C244   C911    1.415   1_554 S
C245   C246    1.418   .     A
C245   C910    1.415   .     S
C245   C913    1.424   .     S
C246   C250    1.409   .     A
C247   C911    1.424   1_554 S
C247   C914    1.429   1_554 S
C248   C249    1.410   .     A
C248   C913    1.429   .     S
C248   C903    1.411   .     S
C249   N277    1.438   .     S
C249   C250    1.400   .     A
C250   H272    1.076   .     S
H253   C388    1.111   1_455 S
H254   N276    1.031   .     S
H258   N277    1.031   .     S
H263   N278    1.031   .     S
H267   O284    0.990   .     S
H273   N275    1.032   .     S
N275   C303    1.433   .     S
N276   C463    1.448   .     S
N276   C453    1.434   .     S
O279   Zn296   1.932   .     S
O279   Zn293   1.961   .     S
O279   Zn294   1.944   .     S
O279   Zn295   1.948   .     S
O280   Zn294   1.934   .     S
O281   Zn296   1.940   .     S
O282   Zn295   1.932   .     S
O283   Zn293   1.926   .     S
O284   C376    1.388   1_455 S
O285   Zn293   1.934   .     S
O286   Zn296   1.942   .     S
O287   Zn294   1.933   .     S
O288   Zn295   1.941   .     S
O289   Zn296   1.939   .     S
O290   Zn293   1.934   .     S
O291   Zn294   1.943   .     S
O292   Zn295   1.934   .     S
C297   O361    1.261   .     A
C297   O363    1.270   .     A
C297   C303    1.437   .     S
C298   H343    1.076   .     S
C298   C321    1.411   .     A
C298   C312    1.388   .     A
C299   H325    1.084   .     S
C299   C311    1.386   .     A
C299   C312    1.391   .     A
C300   O362    1.290   .     A
C300   C302    1.472   .     S
C300   O364    1.279   .     A
C301   C310    1.487   .     S
C301   C313    1.418   .     A
C301   C320    1.425   .     A
C302   C377    1.354   .     S
C302   O432    1.388   .     S
C304   C307    1.453   .     S
C304   C527    1.347   .     S
C304   H558    1.088   .     S
C305   C306    1.434   .     S
C306   O359    1.272   .     A
C306   O365    1.276   .     A
C307   O366    1.280   .     A
C307   O360    1.266   .     A
C308   C313    1.392   .     A
C308   H345    1.084   .     S
C308   C984    1.385   .     S
C309   C312    1.449   .     S
C309   O354    1.273   .     A
C309   O356    1.281   .     A
C310   O355    1.284   .     A
C310   O357    1.290   .     A
C311   H342    1.081   .     S
C311   C988    1.411   1_554 S
C313   N352    1.423   .     S
C314   H348    1.110   .     S
C314   H326    1.111   .     S
C314   N349    1.448   .     S
C314   H401    1.111   .     S
C315   H331    1.111   .     S
C315   H329    1.110   .     S
C315   H330    1.111   .     S
C316   H334    1.111   .     S
C316   H333    1.110   .     S
C316   N351    1.448   .     S
C316   H335    1.110   .     S
C317   N352    1.447   .     S
C317   H338    1.110   .     S
C317   H340    1.111   .     S
C317   H339    1.112   .     S
C318   H344    1.075   .     S
C318   C974    1.385   1_554 S
C318   C985    1.415   1_554 S
C319   C320    1.418   .     A
C319   C984    1.415   .     S
C319   C987    1.424   .     S
C320   C324    1.409   .     A
C321   C985    1.424   1_554 S
C321   C988    1.429   1_554 S
C322   C323    1.410   .     A
C322   C987    1.429   .     S
C322   C977    1.411   .     S
C323   N351    1.438   .     S
C323   C324    1.400   .     A
C324   H346    1.076   .     S
H328   N350    1.031   .     S
H332   N351    1.031   .     S
H337   N352    1.031   .     S
H341   O358    0.990   .     S
H347   N349    1.032   .     S
N349   C377    1.433   .     S
N350   C537    1.448   .     S
N350   C527    1.434   .     S
O353   Zn370   1.932   .     S
O353   Zn367   1.961   .     S
O353   Zn368   1.944   .     S
O353   Zn369   1.948   .     S
O354   Zn368   1.934   .     S
O355   Zn370   1.940   .     S
O356   Zn369   1.932   .     S
O357   Zn367   1.926   .     S
O359   Zn367   1.934   .     S
O360   Zn370   1.942   .     S
O361   Zn368   1.933   .     S
O362   Zn369   1.941   .     S
O363   Zn370   1.939   .     S
O364   Zn367   1.934   .     S
O365   Zn368   1.943   .     S
O366   Zn369   1.934   .     S
C371   O435    1.261   .     A
C371   O437    1.270   .     A
C371   C377    1.437   .     S
C372   H417    1.076   .     S
C372   C395    1.411   .     A
C372   C386    1.388   .     A
C373   H399    1.084   .     S
C373   C385    1.386   .     A
C373   C386    1.391   .     A
C374   O436    1.290   .     A
C374   C376    1.472   .     S
C374   O438    1.279   .     A
C375   C384    1.487   .     S
C375   C387    1.418   .     A
C375   C394    1.425   .     A
C376   C229    1.354   1_655 S
C376   O284    1.388   1_655 S
C378   C381    1.453   .     S
C378   C601    1.347   .     S
C378   H632    1.088   .     S
C379   C380    1.434   .     S
C380   O433    1.272   .     A
C380   O439    1.276   .     A
C381   O440    1.280   .     A
C381   O434    1.266   .     A
C382   C387    1.392   .     A
C382   H419    1.084   .     S
C382   C1058   1.385   .     S
C383   C386    1.449   .     S
C383   O428    1.273   .     A
C383   O430    1.281   .     A
C384   O429    1.284   .     A
C384   O431    1.290   .     A
C385   H416    1.081   .     S
C385   C1062   1.411   1_554 S
C387   N426    1.423   .     S
C388   H422    1.110   .     S
C388   H400    1.111   .     S
C388   N423    1.448   .     S
C388   H253    1.111   1_655 S
C389   H405    1.111   .     S
C389   H403    1.110   .     S
C389   H404    1.111   .     S
C390   H408    1.111   .     S
C390   H407    1.110   .     S
C390   N425    1.448   .     S
C390   H409    1.110   .     S
C391   N426    1.447   .     S
C391   H412    1.110   .     S
C391   H414    1.111   .     S
C391   H413    1.112   .     S
C392   H418    1.075   .     S
C392   C1048   1.385   1_554 S
C392   C1059   1.415   1_554 S
C393   C394    1.418   .     A
C393   C1058   1.415   .     S
C393   C1061   1.424   .     S
C394   C398    1.409   .     A
C395   C1059   1.424   1_554 S
C395   C1062   1.429   1_554 S
C396   C397    1.410   .     A
C396   C1061   1.429   .     S
C396   C1051   1.411   .     S
C397   N425    1.438   .     S
C397   C398    1.400   .     A
C398   H420    1.076   .     S
H402   N424    1.031   .     S
H406   N425    1.031   .     S
H411   N426    1.031   .     S
H415   O432    0.990   .     S
H421   N423    1.032   .     S
N423   C229    1.433   1_655 S
N424   C611    1.448   .     S
N424   C601    1.434   .     S
O427   Zn444   1.932   .     S
O427   Zn441   1.961   .     S
O427   Zn442   1.944   .     S
O427   Zn443   1.948   .     S
O428   Zn442   1.934   .     S
O429   Zn444   1.940   .     S
O430   Zn443   1.932   .     S
O431   Zn441   1.926   .     S
O433   Zn441   1.934   .     S
O434   Zn444   1.942   .     S
O435   Zn442   1.933   .     S
O436   Zn443   1.941   .     S
O437   Zn444   1.939   .     S
O438   Zn441   1.934   .     S
O439   Zn442   1.943   .     S
O440   Zn443   1.934   .     S
C445   O509    1.261   .     A
C445   O511    1.270   .     A
C445   C451    1.437   .     S
C446   H491    1.076   .     S
C446   C469    1.411   .     A
C446   C460    1.388   .     A
C447   H473    1.084   .     S
C447   C459    1.386   .     A
C447   C460    1.391   .     A
C448   O510    1.290   .     A
C448   C450    1.472   .     S
C448   O512    1.279   .     A
C449   C458    1.487   .     S
C449   C461    1.418   .     A
C449   C468    1.425   .     A
C450   C525    1.354   .     S
C450   O580    1.388   .     S
C451   C598    1.354   1_455 S
C451   N645    1.433   1_455 S
C452   C455    1.453   .     S
C452   C9      1.347   1_565 S
C452   H40     1.088   1_565 S
C453   C454    1.434   .     S
C454   O507    1.272   .     A
C454   O513    1.276   .     A
C455   O514    1.280   .     A
C455   O508    1.266   .     A
C456   C461    1.392   .     A
C456   H493    1.084   .     S
C456   C1132   1.385   .     S
C457   C460    1.449   .     S
C457   O502    1.273   .     A
C457   O504    1.281   .     A
C458   O503    1.284   .     A
C458   O505    1.290   .     A
C459   H490    1.081   .     S
C459   C1136   1.411   1_554 S
C461   N500    1.423   .     S
C462   H496    1.110   .     S
C462   H474    1.111   .     S
C462   N497    1.448   .     S
C462   H549    1.111   .     S
C463   H479    1.111   .     S
C463   H477    1.110   .     S
C463   H478    1.111   .     S
C464   H482    1.111   .     S
C464   H481    1.110   .     S
C464   N499    1.448   .     S
C464   H483    1.110   .     S
C465   N500    1.447   .     S
C465   H486    1.110   .     S
C465   H488    1.111   .     S
C465   H487    1.112   .     S
C466   H492    1.075   .     S
C466   C1122   1.385   1_554 S
C466   C1133   1.415   1_554 S
C467   C468    1.418   .     A
C467   C1132   1.415   .     S
C467   C1135   1.424   .     S
C468   C472    1.409   .     A
C469   C1133   1.424   1_554 S
C469   C1136   1.429   1_554 S
C470   C471    1.410   .     A
C470   C1135   1.429   .     S
C470   C1125   1.411   .     S
C471   N499    1.438   .     S
C471   C472    1.400   .     A
C472   H494    1.076   .     S
H475   C610    1.111   1_455 S
H476   N498    1.031   .     S
H480   N499    1.031   .     S
H485   N500    1.031   .     S
H489   O506    0.990   .     S
H495   N497    1.032   .     S
N497   C525    1.433   .     S
N498   C19     1.448   1_565 S
N498   C9      1.434   1_565 S
O501   Zn518   1.932   .     S
O501   Zn515   1.961   .     S
O501   Zn516   1.944   .     S
O501   Zn517   1.948   .     S
O502   Zn516   1.934   .     S
O503   Zn518   1.940   .     S
O504   Zn517   1.932   .     S
O505   Zn515   1.926   .     S
O506   C598    1.388   1_455 S
O507   Zn515   1.934   .     S
O508   Zn518   1.942   .     S
O509   Zn516   1.933   .     S
O510   Zn517   1.941   .     S
O511   Zn518   1.939   .     S
O512   Zn515   1.934   .     S
O513   Zn516   1.943   .     S
O514   Zn517   1.934   .     S
C519   O583    1.261   .     A
C519   O585    1.270   .     A
C519   C525    1.437   .     S
C520   H565    1.076   .     S
C520   C543    1.411   .     A
C520   C534    1.388   .     A
C521   H547    1.084   .     S
C521   C533    1.386   .     A
C521   C534    1.391   .     A
C522   O584    1.290   .     A
C522   C524    1.472   .     S
C522   O586    1.279   .     A
C523   C532    1.487   .     S
C523   C535    1.418   .     A
C523   C542    1.425   .     A
C524   C599    1.354   .     S
C524   O654    1.388   .     S
C526   C529    1.453   .     S
C526   C83     1.347   1_565 S
C526   H114    1.088   1_565 S
C527   C528    1.434   .     S
C528   O581    1.272   .     A
C528   O587    1.276   .     A
C529   O588    1.280   .     A
C529   O582    1.266   .     A
C530   C535    1.392   .     A
C530   H567    1.084   .     S
C530   C1206   1.385   .     S
C531   C534    1.449   .     S
C531   O576    1.273   .     A
C531   O578    1.281   .     A
C532   O577    1.284   .     A
C532   O579    1.290   .     A
C533   H564    1.081   .     S
C533   C1210   1.411   1_554 S
C535   N574    1.423   .     S
C536   H570    1.110   .     S
C536   H548    1.111   .     S
C536   N571    1.448   .     S
C536   H623    1.111   .     S
C537   H553    1.111   .     S
C537   H551    1.110   .     S
C537   H552    1.111   .     S
C538   H556    1.111   .     S
C538   H555    1.110   .     S
C538   N573    1.448   .     S
C538   H557    1.110   .     S
C539   N574    1.447   .     S
C539   H560    1.110   .     S
C539   H562    1.111   .     S
C539   H561    1.112   .     S
C540   H566    1.075   .     S
C540   C1196   1.385   1_554 S
C540   C1207   1.415   1_554 S
C541   C542    1.418   .     A
C541   C1206   1.415   .     S
C541   C1209   1.424   .     S
C542   C546    1.409   .     A
C543   C1207   1.424   1_554 S
C543   C1210   1.429   1_554 S
C544   C545    1.410   .     A
C544   C1209   1.429   .     S
C544   C1199   1.411   .     S
C545   N573    1.438   .     S
C545   C546    1.400   .     A
C546   H568    1.076   .     S
H550   N572    1.031   .     S
H554   N573    1.031   .     S
H559   N574    1.031   .     S
H563   O580    0.990   .     S
H569   N571    1.032   .     S
N571   C599    1.433   .     S
N572   C93     1.448   1_565 S
N572   C83     1.434   1_565 S
O575   Zn592   1.932   .     S
O575   Zn589   1.961   .     S
O575   Zn590   1.944   .     S
O575   Zn591   1.948   .     S
O576   Zn590   1.934   .     S
O577   Zn592   1.940   .     S
O578   Zn591   1.932   .     S
O579   Zn589   1.926   .     S
O581   Zn589   1.934   .     S
O582   Zn592   1.942   .     S
O583   Zn590   1.933   .     S
O584   Zn591   1.941   .     S
O585   Zn592   1.939   .     S
O586   Zn589   1.934   .     S
O587   Zn590   1.943   .     S
O588   Zn591   1.934   .     S
C593   O657    1.261   .     A
C593   O659    1.270   .     A
C593   C599    1.437   .     S
C594   H639    1.076   .     S
C594   C617    1.411   .     A
C594   C608    1.388   .     A
C595   H621    1.084   .     S
C595   C607    1.386   .     A
C595   C608    1.391   .     A
C596   O658    1.290   .     A
C596   C598    1.472   .     S
C596   O660    1.279   .     A
C597   C606    1.487   .     S
C597   C609    1.418   .     A
C597   C616    1.425   .     A
C598   C451    1.354   1_655 S
C598   O506    1.388   1_655 S
C600   C603    1.453   .     S
C600   C157    1.347   1_565 S
C600   H188    1.088   1_565 S
C601   C602    1.434   .     S
C602   O655    1.272   .     A
C602   O661    1.276   .     A
C603   O662    1.280   .     A
C603   O656    1.266   .     A
C604   C609    1.392   .     A
C604   H641    1.084   .     S
C604   C1280   1.385   .     S
C605   C608    1.449   .     S
C605   O650    1.273   .     A
C605   O652    1.281   .     A
C606   O651    1.284   .     A
C606   O653    1.290   .     A
C607   H638    1.081   .     S
C607   C1284   1.411   1_554 S
C609   N648    1.423   .     S
C610   H644    1.110   .     S
C610   H622    1.111   .     S
C610   N645    1.448   .     S
C610   H475    1.111   1_655 S
C611   H627    1.111   .     S
C611   H625    1.110   .     S
C611   H626    1.111   .     S
C612   H630    1.111   .     S
C612   H629    1.110   .     S
C612   N647    1.448   .     S
C612   H631    1.110   .     S
C613   N648    1.447   .     S
C613   H634    1.110   .     S
C613   H636    1.111   .     S
C613   H635    1.112   .     S
C614   H640    1.075   .     S
C614   C1270   1.385   1_554 S
C614   C1281   1.415   1_554 S
C615   C616    1.418   .     A
C615   C1280   1.415   .     S
C615   C1283   1.424   .     S
C616   C620    1.409   .     A
C617   C1281   1.424   1_554 S
C617   C1284   1.429   1_554 S
C618   C619    1.410   .     A
C618   C1283   1.429   .     S
C618   C1273   1.411   .     S
C619   N647    1.438   .     S
C619   C620    1.400   .     A
C620   H642    1.076   .     S
H624   N646    1.031   .     S
H628   N647    1.031   .     S
H633   N648    1.031   .     S
H637   O654    0.990   .     S
H643   N645    1.032   .     S
N645   C451    1.433   1_655 S
N646   C167    1.448   1_565 S
N646   C157    1.434   1_565 S
O649   Zn666   1.932   .     S
O649   Zn663   1.961   .     S
O649   Zn664   1.944   .     S
O649   Zn665   1.948   .     S
O650   Zn664   1.934   .     S
O651   Zn666   1.940   .     S
O652   Zn665   1.932   .     S
O653   Zn663   1.926   .     S
O655   Zn663   1.934   .     S
O656   Zn666   1.942   .     S
O657   Zn664   1.933   .     S
O658   Zn665   1.941   .     S
O659   Zn666   1.939   .     S
O660   Zn663   1.934   .     S
O661   Zn664   1.943   .     S
O662   Zn665   1.934   .     S
C667   O731    1.261   .     A
C667   O733    1.270   .     A
C667   C673    1.437   .     S
C668   H713    1.076   .     S
C668   C691    1.411   .     A
C668   C682    1.388   .     A
C669   H695    1.084   .     S
C669   C681    1.386   .     A
C669   C682    1.391   .     A
C670   O732    1.290   .     A
C670   C672    1.472   .     S
C670   O734    1.279   .     A
C671   C680    1.487   .     S
C671   C683    1.418   .     A
C671   C690    1.425   .     A
C672   C747    1.354   .     S
C672   O802    1.388   .     S
C673   C820    1.354   1_455 S
C673   N867    1.433   1_455 S
C674   C677    1.453   .     S
C674   C897    1.347   .     S
C674   H928    1.088   .     S
C675   C676    1.434   .     S
C675   C1118   1.347   1_545 S
C675   N1164   1.434   1_545 S
C676   O729    1.272   .     A
C676   O735    1.276   .     A
C677   O736    1.280   .     A
C677   O730    1.266   .     A
C678   C683    1.392   .     A
C678   H715    1.084   .     S
C678   C22     1.385   1_556 S
C679   C682    1.449   .     S
C679   O724    1.273   .     A
C679   O726    1.281   .     A
C680   O725    1.284   .     A
C680   O727    1.290   .     A
C681   H712    1.081   .     S
C683   N722    1.423   .     S
C684   H718    1.110   .     S
C684   H696    1.111   .     S
C684   N719    1.448   .     S
C684   H771    1.111   .     S
C685   H701    1.111   .     S
C685   H699    1.110   .     S
C685   H700    1.111   .     S
C685   N1164   1.448   1_545 S
C686   H704    1.111   .     S
C686   H703    1.110   .     S
C686   N721    1.448   .     S
C686   H705    1.110   .     S
C687   N722    1.447   .     S
C687   H708    1.110   .     S
C687   H710    1.111   .     S
C687   H709    1.112   .     S
C688   H714    1.075   .     S
C689   C690    1.418   .     A
C689   C22     1.415   1_556 S
C689   C25     1.424   1_556 S
C690   C694    1.409   .     A
C692   C693    1.410   .     A
C692   C25     1.429   1_556 S
C692   C15     1.411   1_556 S
C693   N721    1.438   .     S
C693   C694    1.400   .     A
C694   H716    1.076   .     S
H697   C832    1.111   1_455 S
H698   N720    1.031   .     S
H702   N721    1.031   .     S
H706   C1118   1.088   1_545 S
H707   N722    1.031   .     S
H711   O728    0.990   .     S
H717   N719    1.032   .     S
N719   C747    1.433   .     S
N720   C907    1.448   .     S
N720   C897    1.434   .     S
O723   Zn740   1.932   .     S
O723   Zn737   1.961   .     S
O723   Zn738   1.944   .     S
O723   Zn739   1.948   .     S
O724   Zn738   1.934   .     S
O725   Zn740   1.940   .     S
O726   Zn739   1.932   .     S
O727   Zn737   1.926   .     S
O728   C820    1.388   1_455 S
O729   Zn737   1.934   .     S
O730   Zn740   1.942   .     S
O731   Zn738   1.933   .     S
O732   Zn739   1.941   .     S
O733   Zn740   1.939   .     S
O734   Zn737   1.934   .     S
O735   Zn738   1.943   .     S
O736   Zn739   1.934   .     S
C741   O805    1.261   .     A
C741   O807    1.270   .     A
C741   C747    1.437   .     S
C742   H787    1.076   .     S
C742   C765    1.411   .     A
C742   C756    1.388   .     A
C743   H769    1.084   .     S
C743   C755    1.386   .     A
C743   C756    1.391   .     A
C744   O806    1.290   .     A
C744   C746    1.472   .     S
C744   O808    1.279   .     A
C745   C754    1.487   .     S
C745   C757    1.418   .     A
C745   C764    1.425   .     A
C746   C821    1.354   .     S
C746   O876    1.388   .     S
C748   C751    1.453   .     S
C748   C971    1.347   .     S
C748   H1002   1.088   .     S
C749   C750    1.434   .     S
C749   C1192   1.347   1_545 S
C749   N1238   1.434   1_545 S
C750   O803    1.272   .     A
C750   O809    1.276   .     A
C751   O810    1.280   .     A
C751   O804    1.266   .     A
C752   C757    1.392   .     A
C752   H789    1.084   .     S
C752   C96     1.385   1_556 S
C753   C756    1.449   .     S
C753   O798    1.273   .     A
C753   O800    1.281   .     A
C754   O799    1.284   .     A
C754   O801    1.290   .     A
C755   H786    1.081   .     S
C757   N796    1.423   .     S
C758   H792    1.110   .     S
C758   H770    1.111   .     S
C758   N793    1.448   .     S
C758   H845    1.111   .     S
C759   H775    1.111   .     S
C759   H773    1.110   .     S
C759   H774    1.111   .     S
C759   N1238   1.448   1_545 S
C760   H778    1.111   .     S
C760   H777    1.110   .     S
C760   N795    1.448   .     S
C760   H779    1.110   .     S
C761   N796    1.447   .     S
C761   H782    1.110   .     S
C761   H784    1.111   .     S
C761   H783    1.112   .     S
C762   H788    1.075   .     S
C763   C764    1.418   .     A
C763   C96     1.415   1_556 S
C763   C99     1.424   1_556 S
C764   C768    1.409   .     A
C766   C767    1.410   .     A
C766   C99     1.429   1_556 S
C766   C89     1.411   1_556 S
C767   N795    1.438   .     S
C767   C768    1.400   .     A
C768   H790    1.076   .     S
H772   N794    1.031   .     S
H776   N795    1.031   .     S
H780   C1192   1.088   1_545 S
H781   N796    1.031   .     S
H785   O802    0.990   .     S
H791   N793    1.032   .     S
N793   C821    1.433   .     S
N794   C981    1.448   .     S
N794   C971    1.434   .     S
O797   Zn814   1.932   .     S
O797   Zn811   1.961   .     S
O797   Zn812   1.944   .     S
O797   Zn813   1.948   .     S
O798   Zn812   1.934   .     S
O799   Zn814   1.940   .     S
O800   Zn813   1.932   .     S
O801   Zn811   1.926   .     S
O803   Zn811   1.934   .     S
O804   Zn814   1.942   .     S
O805   Zn812   1.933   .     S
O806   Zn813   1.941   .     S
O807   Zn814   1.939   .     S
O808   Zn811   1.934   .     S
O809   Zn812   1.943   .     S
O810   Zn813   1.934   .     S
C815   O879    1.261   .     A
C815   O881    1.270   .     A
C815   C821    1.437   .     S
C816   H861    1.076   .     S
C816   C839    1.411   .     A
C816   C830    1.388   .     A
C817   H843    1.084   .     S
C817   C829    1.386   .     A
C817   C830    1.391   .     A
C818   O880    1.290   .     A
C818   C820    1.472   .     S
C818   O882    1.279   .     A
C819   C828    1.487   .     S
C819   C831    1.418   .     A
C819   C838    1.425   .     A
C820   C673    1.354   1_655 S
C820   O728    1.388   1_655 S
C822   C825    1.453   .     S
C822   C1045   1.347   .     S
C822   H1076   1.088   .     S
C823   C824    1.434   .     S
C823   C1266   1.347   1_545 S
C823   N1312   1.434   1_545 S
C824   O877    1.272   .     A
C824   O883    1.276   .     A
C825   O884    1.280   .     A
C825   O878    1.266   .     A
C826   C831    1.392   .     A
C826   H863    1.084   .     S
C826   C170    1.385   1_556 S
C827   C830    1.449   .     S
C827   O872    1.273   .     A
C827   O874    1.281   .     A
C828   O873    1.284   .     A
C828   O875    1.290   .     A
C829   H860    1.081   .     S
C831   N870    1.423   .     S
C832   H866    1.110   .     S
C832   H844    1.111   .     S
C832   N867    1.448   .     S
C832   H697    1.111   1_655 S
C833   H849    1.111   .     S
C833   H847    1.110   .     S
C833   H848    1.111   .     S
C833   N1312   1.448   1_545 S
C834   H852    1.111   .     S
C834   H851    1.110   .     S
C834   N869    1.448   .     S
C834   H853    1.110   .     S
C835   N870    1.447   .     S
C835   H856    1.110   .     S
C835   H858    1.111   .     S
C835   H857    1.112   .     S
C836   H862    1.075   .     S
C837   C838    1.418   .     A
C837   C170    1.415   1_556 S
C837   C173    1.424   1_556 S
C838   C842    1.409   .     A
C840   C841    1.410   .     A
C840   C173    1.429   1_556 S
C840   C163    1.411   1_556 S
C841   N869    1.438   .     S
C841   C842    1.400   .     A
C842   H864    1.076   .     S
H846   N868    1.031   .     S
H850   N869    1.031   .     S
H854   C1266   1.088   1_545 S
H855   N870    1.031   .     S
H859   O876    0.990   .     S
H865   N867    1.032   .     S
N867   C673    1.433   1_655 S
N868   C1055   1.448   .     S
N868   C1045   1.434   .     S
O871   Zn888   1.932   .     S
O871   Zn885   1.961   .     S
O871   Zn886   1.944   .     S
O871   Zn887   1.948   .     S
O872   Zn886   1.934   .     S
O873   Zn888   1.940   .     S
O874   Zn887   1.932   .     S
O875   Zn885   1.926   .     S
O877   Zn885   1.934   .     S
O878   Zn888   1.942   .     S
O879   Zn886   1.933   .     S
O880   Zn887   1.941   .     S
O881   Zn888   1.939   .     S
O882   Zn885   1.934   .     S
O883   Zn886   1.943   .     S
O884   Zn887   1.934   .     S
C889   O953    1.261   .     A
C889   O955    1.270   .     A
C889   C895    1.437   .     S
C890   H935    1.076   .     S
C890   C913    1.411   .     A
C890   C904    1.388   .     A
C891   H917    1.084   .     S
C891   C903    1.386   .     A
C891   C904    1.391   .     A
C892   O954    1.290   .     A
C892   C894    1.472   .     S
C892   O956    1.279   .     A
C893   C902    1.487   .     S
C893   C905    1.418   .     A
C893   C912    1.425   .     A
C894   C969    1.354   .     S
C894   O1024   1.388   .     S
C895   C1042   1.354   1_455 S
C895   N1089   1.433   1_455 S
C896   C899    1.453   .     S
C896   C1119   1.347   .     S
C896   H1150   1.088   .     S
C897   C898    1.434   .     S
C898   O951    1.272   .     A
C898   O957    1.276   .     A
C899   O958    1.280   .     A
C899   O952    1.266   .     A
C900   C905    1.392   .     A
C900   H937    1.084   .     S
C900   C244    1.385   1_556 S
C901   C904    1.449   .     S
C901   O946    1.273   .     A
C901   O948    1.281   .     A
C902   O947    1.284   .     A
C902   O949    1.290   .     A
C903   H934    1.081   .     S
C905   N944    1.423   .     S
C906   H940    1.110   .     S
C906   H918    1.111   .     S
C906   N941    1.448   .     S
C906   H993    1.111   .     S
C907   H923    1.111   .     S
C907   H921    1.110   .     S
C907   H922    1.111   .     S
C908   H926    1.111   .     S
C908   H925    1.110   .     S
C908   N943    1.448   .     S
C908   H927    1.110   .     S
C909   N944    1.447   .     S
C909   H930    1.110   .     S
C909   H932    1.111   .     S
C909   H931    1.112   .     S
C910   H936    1.075   .     S
C911   C912    1.418   .     A
C911   C244    1.415   1_556 S
C911   C247    1.424   1_556 S
C912   C916    1.409   .     A
C914   C915    1.410   .     A
C914   C247    1.429   1_556 S
C914   C237    1.411   1_556 S
C915   N943    1.438   .     S
C915   C916    1.400   .     A
C916   H938    1.076   .     S
H919   C1054   1.111   1_455 S
H920   N942    1.031   .     S
H924   N943    1.031   .     S
H929   N944    1.031   .     S
H933   O950    0.990   .     S
H939   N941    1.032   .     S
N941   C969    1.433   .     S
N942   C1129   1.448   .     S
N942   C1119   1.434   .     S
O945   Zn962   1.932   .     S
O945   Zn959   1.961   .     S
O945   Zn960   1.944   .     S
O945   Zn961   1.948   .     S
O946   Zn960   1.934   .     S
O947   Zn962   1.940   .     S
O948   Zn961   1.932   .     S
O949   Zn959   1.926   .     S
O950   C1042   1.388   1_455 S
O951   Zn959   1.934   .     S
O952   Zn962   1.942   .     S
O953   Zn960   1.933   .     S
O954   Zn961   1.941   .     S
O955   Zn962   1.939   .     S
O956   Zn959   1.934   .     S
O957   Zn960   1.943   .     S
O958   Zn961   1.934   .     S
C963   O1027   1.261   .     A
C963   O1029   1.270   .     A
C963   C969    1.437   .     S
C964   H1009   1.076   .     S
C964   C987    1.411   .     A
C964   C978    1.388   .     A
C965   H991    1.084   .     S
C965   C977    1.386   .     A
C965   C978    1.391   .     A
C966   O1028   1.290   .     A
C966   C968    1.472   .     S
C966   O1030   1.279   .     A
C967   C976    1.487   .     S
C967   C979    1.418   .     A
C967   C986    1.425   .     A
C968   C1043   1.354   .     S
C968   O1098   1.388   .     S
C970   C973    1.453   .     S
C970   C1193   1.347   .     S
C970   H1224   1.088   .     S
C971   C972    1.434   .     S
C972   O1025   1.272   .     A
C972   O1031   1.276   .     A
C973   O1032   1.280   .     A
C973   O1026   1.266   .     A
C974   C979    1.392   .     A
C974   H1011   1.084   .     S
C974   C318    1.385   1_556 S
C975   C978    1.449   .     S
C975   O1020   1.273   .     A
C975   O1022   1.281   .     A
C976   O1021   1.284   .     A
C976   O1023   1.290   .     A
C977   H1008   1.081   .     S
C979   N1018   1.423   .     S
C980   H1014   1.110   .     S
C980   H992    1.111   .     S
C980   N1015   1.448   .     S
C980   H1067   1.111   .     S
C981   H997    1.111   .     S
C981   H995    1.110   .     S
C981   H996    1.111   .     S
C982   H1000   1.111   .     S
C982   H999    1.110   .     S
C982   N1017   1.448   .     S
C982   H1001   1.110   .     S
C983   N1018   1.447   .     S
C983   H1004   1.110   .     S
C983   H1006   1.111   .     S
C983   H1005   1.112   .     S
C984   H1010   1.075   .     S
C985   C986    1.418   .     A
C985   C318    1.415   1_556 S
C985   C321    1.424   1_556 S
C986   C990    1.409   .     A
C988   C989    1.410   .     A
C988   C321    1.429   1_556 S
C988   C311    1.411   1_556 S
C989   N1017   1.438   .     S
C989   C990    1.400   .     A
C990   H1012   1.076   .     S
H994   N1016   1.031   .     S
H998   N1017   1.031   .     S
H1003  N1018   1.031   .     S
H1007  O1024   0.990   .     S
H1013  N1015   1.032   .     S
N1015  C1043   1.433   .     S
N1016  C1203   1.448   .     S
N1016  C1193   1.434   .     S
O1019  Zn1036  1.932   .     S
O1019  Zn1033  1.961   .     S
O1019  Zn1034  1.944   .     S
O1019  Zn1035  1.948   .     S
O1020  Zn1034  1.934   .     S
O1021  Zn1036  1.940   .     S
O1022  Zn1035  1.932   .     S
O1023  Zn1033  1.926   .     S
O1025  Zn1033  1.934   .     S
O1026  Zn1036  1.942   .     S
O1027  Zn1034  1.933   .     S
O1028  Zn1035  1.941   .     S
O1029  Zn1036  1.939   .     S
O1030  Zn1033  1.934   .     S
O1031  Zn1034  1.943   .     S
O1032  Zn1035  1.934   .     S
C1037  O1101   1.261   .     A
C1037  O1103   1.270   .     A
C1037  C1043   1.437   .     S
C1038  H1083   1.076   .     S
C1038  C1061   1.411   .     A
C1038  C1052   1.388   .     A
C1039  H1065   1.084   .     S
C1039  C1051   1.386   .     A
C1039  C1052   1.391   .     A
C1040  O1102   1.290   .     A
C1040  C1042   1.472   .     S
C1040  O1104   1.279   .     A
C1041  C1050   1.487   .     S
C1041  C1053   1.418   .     A
C1041  C1060   1.425   .     A
C1042  C895    1.354   1_655 S
C1042  O950    1.388   1_655 S
C1044  C1047   1.453   .     S
C1044  C1267   1.347   .     S
C1044  H1298   1.088   .     S
C1045  C1046   1.434   .     S
C1046  O1099   1.272   .     A
C1046  O1105   1.276   .     A
C1047  O1106   1.280   .     A
C1047  O1100   1.266   .     A
C1048  C1053   1.392   .     A
C1048  H1085   1.084   .     S
C1048  C392    1.385   1_556 S
C1049  C1052   1.449   .     S
C1049  O1094   1.273   .     A
C1049  O1096   1.281   .     A
C1050  O1095   1.284   .     A
C1050  O1097   1.290   .     A
C1051  H1082   1.081   .     S
C1053  N1092   1.423   .     S
C1054  H1088   1.110   .     S
C1054  H1066   1.111   .     S
C1054  N1089   1.448   .     S
C1054  H919    1.111   1_655 S
C1055  H1071   1.111   .     S
C1055  H1069   1.110   .     S
C1055  H1070   1.111   .     S
C1056  H1074   1.111   .     S
C1056  H1073   1.110   .     S
C1056  N1091   1.448   .     S
C1056  H1075   1.110   .     S
C1057  N1092   1.447   .     S
C1057  H1078   1.110   .     S
C1057  H1080   1.111   .     S
C1057  H1079   1.112   .     S
C1058  H1084   1.075   .     S
C1059  C1060   1.418   .     A
C1059  C392    1.415   1_556 S
C1059  C395    1.424   1_556 S
C1060  C1064   1.409   .     A
C1062  C1063   1.410   .     A
C1062  C395    1.429   1_556 S
C1062  C385    1.411   1_556 S
C1063  N1091   1.438   .     S
C1063  C1064   1.400   .     A
C1064  H1086   1.076   .     S
H1068  N1090   1.031   .     S
H1072  N1091   1.031   .     S
H1077  N1092   1.031   .     S
H1081  O1098   0.990   .     S
H1087  N1089   1.032   .     S
N1089  C895    1.433   1_655 S
N1090  C1277   1.448   .     S
N1090  C1267   1.434   .     S
O1093  Zn1110  1.932   .     S
O1093  Zn1107  1.961   .     S
O1093  Zn1108  1.944   .     S
O1093  Zn1109  1.948   .     S
O1094  Zn1108  1.934   .     S
O1095  Zn1110  1.940   .     S
O1096  Zn1109  1.932   .     S
O1097  Zn1107  1.926   .     S
O1099  Zn1107  1.934   .     S
O1100  Zn1110  1.942   .     S
O1101  Zn1108  1.933   .     S
O1102  Zn1109  1.941   .     S
O1103  Zn1110  1.939   .     S
O1104  Zn1107  1.934   .     S
O1105  Zn1108  1.943   .     S
O1106  Zn1109  1.934   .     S
C1111  O1175   1.261   .     A
C1111  O1177   1.270   .     A
C1111  C1117   1.437   .     S
C1112  H1157   1.076   .     S
C1112  C1135   1.411   .     A
C1112  C1126   1.388   .     A
C1113  H1139   1.084   .     S
C1113  C1125   1.386   .     A
C1113  C1126   1.391   .     A
C1114  O1176   1.290   .     A
C1114  C1116   1.472   .     S
C1114  O1178   1.279   .     A
C1115  C1124   1.487   .     S
C1115  C1127   1.418   .     A
C1115  C1134   1.425   .     A
C1116  C1191   1.354   .     S
C1116  O1246   1.388   .     S
C1117  C1264   1.354   1_455 S
C1117  N1311   1.433   1_455 S
C1118  C1121   1.453   .     S
C1118  C675    1.347   1_565 S
C1118  H706    1.088   1_565 S
C1119  C1120   1.434   .     S
C1120  O1173   1.272   .     A
C1120  O1179   1.276   .     A
C1121  O1180   1.280   .     A
C1121  O1174   1.266   .     A
C1122  C1127   1.392   .     A
C1122  H1159   1.084   .     S
C1122  C466    1.385   1_556 S
C1123  C1126   1.449   .     S
C1123  O1168   1.273   .     A
C1123  O1170   1.281   .     A
C1124  O1169   1.284   .     A
C1124  O1171   1.290   .     A
C1125  H1156   1.081   .     S
C1127  N1166   1.423   .     S
C1128  H1162   1.110   .     S
C1128  H1140   1.111   .     S
C1128  N1163   1.448   .     S
C1128  H1215   1.111   .     S
C1129  H1145   1.111   .     S
C1129  H1143   1.110   .     S
C1129  H1144   1.111   .     S
C1130  H1148   1.111   .     S
C1130  H1147   1.110   .     S
C1130  N1165   1.448   .     S
C1130  H1149   1.110   .     S
C1131  N1166   1.447   .     S
C1131  H1152   1.110   .     S
C1131  H1154   1.111   .     S
C1131  H1153   1.112   .     S
C1132  H1158   1.075   .     S
C1133  C1134   1.418   .     A
C1133  C466    1.415   1_556 S
C1133  C469    1.424   1_556 S
C1134  C1138   1.409   .     A
C1136  C1137   1.410   .     A
C1136  C469    1.429   1_556 S
C1136  C459    1.411   1_556 S
C1137  N1165   1.438   .     S
C1137  C1138   1.400   .     A
C1138  H1160   1.076   .     S
H1141  C1276   1.111   1_455 S
H1142  N1164   1.031   .     S
H1146  N1165   1.031   .     S
H1151  N1166   1.031   .     S
H1155  O1172   0.990   .     S
H1161  N1163   1.032   .     S
N1163  C1191   1.433   .     S
N1164  C685    1.448   1_565 S
N1164  C675    1.434   1_565 S
O1167  Zn1184  1.932   .     S
O1167  Zn1181  1.961   .     S
O1167  Zn1182  1.944   .     S
O1167  Zn1183  1.948   .     S
O1168  Zn1182  1.934   .     S
O1169  Zn1184  1.940   .     S
O1170  Zn1183  1.932   .     S
O1171  Zn1181  1.926   .     S
O1172  C1264   1.388   1_455 S
O1173  Zn1181  1.934   .     S
O1174  Zn1184  1.942   .     S
O1175  Zn1182  1.933   .     S
O1176  Zn1183  1.941   .     S
O1177  Zn1184  1.939   .     S
O1178  Zn1181  1.934   .     S
O1179  Zn1182  1.943   .     S
O1180  Zn1183  1.934   .     S
C1185  O1249   1.261   .     A
C1185  O1251   1.270   .     A
C1185  C1191   1.437   .     S
C1186  H1231   1.076   .     S
C1186  C1209   1.411   .     A
C1186  C1200   1.388   .     A
C1187  H1213   1.084   .     S
C1187  C1199   1.386   .     A
C1187  C1200   1.391   .     A
C1188  O1250   1.290   .     A
C1188  C1190   1.472   .     S
C1188  O1252   1.279   .     A
C1189  C1198   1.487   .     S
C1189  C1201   1.418   .     A
C1189  C1208   1.425   .     A
C1190  C1265   1.354   .     S
C1190  O1320   1.388   .     S
C1192  C1195   1.453   .     S
C1192  C749    1.347   1_565 S
C1192  H780    1.088   1_565 S
C1193  C1194   1.434   .     S
C1194  O1247   1.272   .     A
C1194  O1253   1.276   .     A
C1195  O1254   1.280   .     A
C1195  O1248   1.266   .     A
C1196  C1201   1.392   .     A
C1196  H1233   1.084   .     S
C1196  C540    1.385   1_556 S
C1197  C1200   1.449   .     S
C1197  O1242   1.273   .     A
C1197  O1244   1.281   .     A
C1198  O1243   1.284   .     A
C1198  O1245   1.290   .     A
C1199  H1230   1.081   .     S
C1201  N1240   1.423   .     S
C1202  H1236   1.110   .     S
C1202  H1214   1.111   .     S
C1202  N1237   1.448   .     S
C1202  H1289   1.111   .     S
C1203  H1219   1.111   .     S
C1203  H1217   1.110   .     S
C1203  H1218   1.111   .     S
C1204  H1222   1.111   .     S
C1204  H1221   1.110   .     S
C1204  N1239   1.448   .     S
C1204  H1223   1.110   .     S
C1205  N1240   1.447   .     S
C1205  H1226   1.110   .     S
C1205  H1228   1.111   .     S
C1205  H1227   1.112   .     S
C1206  H1232   1.075   .     S
C1207  C1208   1.418   .     A
C1207  C540    1.415   1_556 S
C1207  C543    1.424   1_556 S
C1208  C1212   1.409   .     A
C1210  C1211   1.410   .     A
C1210  C543    1.429   1_556 S
C1210  C533    1.411   1_556 S
C1211  N1239   1.438   .     S
C1211  C1212   1.400   .     A
C1212  H1234   1.076   .     S
H1216  N1238   1.031   .     S
H1220  N1239   1.031   .     S
H1225  N1240   1.031   .     S
H1229  O1246   0.990   .     S
H1235  N1237   1.032   .     S
N1237  C1265   1.433   .     S
N1238  C759    1.448   1_565 S
N1238  C749    1.434   1_565 S
O1241  Zn1258  1.932   .     S
O1241  Zn1255  1.961   .     S
O1241  Zn1256  1.944   .     S
O1241  Zn1257  1.948   .     S
O1242  Zn1256  1.934   .     S
O1243  Zn1258  1.940   .     S
O1244  Zn1257  1.932   .     S
O1245  Zn1255  1.926   .     S
O1247  Zn1255  1.934   .     S
O1248  Zn1258  1.942   .     S
O1249  Zn1256  1.933   .     S
O1250  Zn1257  1.941   .     S
O1251  Zn1258  1.939   .     S
O1252  Zn1255  1.934   .     S
O1253  Zn1256  1.943   .     S
O1254  Zn1257  1.934   .     S
C1259  O1323   1.261   .     A
C1259  O1325   1.270   .     A
C1259  C1265   1.437   .     S
C1260  H1305   1.076   .     S
C1260  C1283   1.411   .     A
C1260  C1274   1.388   .     A
C1261  H1287   1.084   .     S
C1261  C1273   1.386   .     A
C1261  C1274   1.391   .     A
C1262  O1324   1.290   .     A
C1262  C1264   1.472   .     S
C1262  O1326   1.279   .     A
C1263  C1272   1.487   .     S
C1263  C1275   1.418   .     A
C1263  C1282   1.425   .     A
C1264  C1117   1.354   1_655 S
C1264  O1172   1.388   1_655 S
C1266  C1269   1.453   .     S
C1266  C823    1.347   1_565 S
C1266  H854    1.088   1_565 S
C1267  C1268   1.434   .     S
C1268  O1321   1.272   .     A
C1268  O1327   1.276   .     A
C1269  O1328   1.280   .     A
C1269  O1322   1.266   .     A
C1270  C1275   1.392   .     A
C1270  H1307   1.084   .     S
C1270  C614    1.385   1_556 S
C1271  C1274   1.449   .     S
C1271  O1316   1.273   .     A
C1271  O1318   1.281   .     A
C1272  O1317   1.284   .     A
C1272  O1319   1.290   .     A
C1273  H1304   1.081   .     S
C1275  N1314   1.423   .     S
C1276  H1310   1.110   .     S
C1276  H1288   1.111   .     S
C1276  N1311   1.448   .     S
C1276  H1141   1.111   1_655 S
C1277  H1293   1.111   .     S
C1277  H1291   1.110   .     S
C1277  H1292   1.111   .     S
C1278  H1296   1.111   .     S
C1278  H1295   1.110   .     S
C1278  N1313   1.448   .     S
C1278  H1297   1.110   .     S
C1279  N1314   1.447   .     S
C1279  H1300   1.110   .     S
C1279  H1302   1.111   .     S
C1279  H1301   1.112   .     S
C1280  H1306   1.075   .     S
C1281  C1282   1.418   .     A
C1281  C614    1.415   1_556 S
C1281  C617    1.424   1_556 S
C1282  C1286   1.409   .     A
C1284  C1285   1.410   .     A
C1284  C617    1.429   1_556 S
C1284  C607    1.411   1_556 S
C1285  N1313   1.438   .     S
C1285  C1286   1.400   .     A
C1286  H1308   1.076   .     S
H1290  N1312   1.031   .     S
H1294  N1313   1.031   .     S
H1299  N1314   1.031   .     S
H1303  O1320   0.990   .     S
H1309  N1311   1.032   .     S
N1311  C1117   1.433   1_655 S
N1312  C833    1.448   1_565 S
N1312  C823    1.434   1_565 S
O1315  Zn1332  1.932   .     S
O1315  Zn1329  1.961   .     S
O1315  Zn1330  1.944   .     S
O1315  Zn1331  1.948   .     S
O1316  Zn1330  1.934   .     S
O1317  Zn1332  1.940   .     S
O1318  Zn1331  1.932   .     S
O1319  Zn1329  1.926   .     S
O1321  Zn1329  1.934   .     S
O1322  Zn1332  1.942   .     S
O1323  Zn1330  1.933   .     S
O1324  Zn1331  1.941   .     S
O1325  Zn1332  1.939   .     S
O1326  Zn1329  1.934   .     S
O1327  Zn1330  1.943   .     S
O1328  Zn1331  1.934   .     S
