data_str_m2_o1_o2_pcu_sym.48
_audit_creation_date              2020-01-03
_audit_creation_method            'Materials Studio'
_symmetry_space_group_name_H-M    'P1'
_symmetry_Int_Tables_number       1
_symmetry_cell_setting            triclinic
loop_
_symmetry_equiv_pos_as_xyz
  x,y,z
_cell_length_a                    32.8248
_cell_length_b                    28.6920
_cell_length_c                    30.2919
_cell_angle_alpha                 90.0000
_cell_angle_beta                  92.4909
_cell_angle_gamma                 90.0000
loop_
_atom_site_label
_atom_site_type_symbol
_atom_site_fract_x
_atom_site_fract_y
_atom_site_fract_z
_atom_site_U_iso_or_equiv
_atom_site_adp_type
_atom_site_occupancy
C1     C     0.08752   0.16668   0.25280   0.00000  Uiso   1.00
C2     C     0.31230   0.20934   0.24593   0.00000  Uiso   1.00
C3     C     0.31233   0.12414   0.24581   0.00000  Uiso   1.00
C4     C     0.02103   0.20934   0.25407   0.00000  Uiso   1.00
C5     C     0.17851   0.20726   0.04834   0.00000  Uiso   1.00
C6     C     0.17855   0.12719   0.45303   0.00000  Uiso   1.00
C7     C     0.15482   0.20726   0.45166   0.00000  Uiso   1.00
C8     C     0.15478   0.12719   0.04697   0.00000  Uiso   1.00
C9     C     0.17824   0.20716   0.09423   0.00000  Uiso   1.00
C10    C     0.17804   0.12683   0.40716   0.00000  Uiso   1.00
C11    C     0.15509   0.20716   0.40577   0.00000  Uiso   1.00
C12    C     0.24581   0.16668   0.24720   0.00000  Uiso   1.00
C13    C     0.15529   0.12683   0.09284   0.00000  Uiso   1.00
C14    C     0.16676   0.16686   0.11676   0.00000  Uiso   1.00
C15    C     0.16657   0.16686   0.38324   0.00000  Uiso   1.00
C16    C     0.16662   0.16731   0.02429   0.00000  Uiso   1.00
C17    C     0.16671   0.16731   0.47571   0.00000  Uiso   1.00
C18    C     0.29055   0.16672   0.24494   0.00000  Uiso   1.00
C19    C     0.04279   0.16672   0.25506   0.00000  Uiso   1.00
C20    C     0.16667   0.16669   0.16501   0.00000  Uiso   1.00
C21    C     0.16667   0.16669   0.33499   0.00000  Uiso   1.00
C22    C     0.14144   0.02471   0.22115   0.00000  Uiso   1.00
C23    C     0.19173   0.30860   0.27902   0.00000  Uiso   1.00
C24    C     0.19189   0.02471   0.27885   0.00000  Uiso   1.00
C25    C     0.14161   0.30860   0.22098   0.00000  Uiso   1.00
C26    C     0.02101   0.12414   0.25419   0.00000  Uiso   1.00
Cl27   Cl    0.10795   0.05395   0.18352   0.00000  Uiso   1.00
Cl28   Cl    0.22444   0.27930   0.31749   0.00000  Uiso   1.00
Cl29   Cl    0.22539   0.05395   0.31648   0.00000  Uiso   1.00
Cl30   Cl    0.10890   0.27930   0.18250   0.00000  Uiso   1.00
Cl31   Cl    0.04416   0.06979   0.26814   0.00000  Uiso   1.00
Cl32   Cl    0.28903   0.26379   0.23255   0.00000  Uiso   1.00
Cl33   Cl    0.28917   0.06979   0.23186   0.00000  Uiso   1.00
Cl34   Cl    0.04430   0.26379   0.26745   0.00000  Uiso   1.00
Cu35   Cu    0.16667   0.21355   0.25000   0.00000  Uiso   1.00
Cu36   Cu    0.16667   0.11978   0.25000   0.00000  Uiso   1.00
H37    H     0.18852   0.23839   0.03176   0.00000  Uiso   1.00
H38    H     0.18863   0.09619   0.47071   0.00000  Uiso   1.00
H39    H     0.14481   0.23839   0.46824   0.00000  Uiso   1.00
H40    H     0.14470   0.09619   0.02929   0.00000  Uiso   1.00
H41    H     0.18758   0.23837   0.11208   0.00000  Uiso   1.00
H42    H     0.18713   0.09538   0.39055   0.00000  Uiso   1.00
H43    H     0.14576   0.23837   0.38792   0.00000  Uiso   1.00
H44    H     0.14620   0.09538   0.10944   0.00000  Uiso   1.00
N45    N     0.16667   0.28402   0.25000   0.00000  Uiso   1.00
N46    N     0.16667   0.04931   0.25000   0.00000  Uiso   1.00
O47    O     0.10655   0.20625   0.24999   0.00000  Uiso   1.00
O48    O     0.22679   0.12709   0.25000   0.00000  Uiso   1.00
O49    O     0.22679   0.20625   0.25000   0.00000  Uiso   1.00
O50    O     0.10655   0.12709   0.24999   0.00000  Uiso   1.00
O51    O     0.16666   0.20626   0.18573   0.00000  Uiso   1.00
O52    O     0.16667   0.12707   0.31427   0.00000  Uiso   1.00
O53    O     0.16667   0.20626   0.31427   0.00000  Uiso   1.00
O54    O     0.16666   0.12707   0.18573   0.00000  Uiso   1.00
C55    C     0.42086   0.16668   0.25280   0.00000  Uiso   1.00
C56    C     0.64564   0.20934   0.24593   0.00000  Uiso   1.00
C57    C     0.64566   0.12414   0.24581   0.00000  Uiso   1.00
C58    C     0.35436   0.20934   0.25407   0.00000  Uiso   1.00
C59    C     0.51184   0.20726   0.04834   0.00000  Uiso   1.00
C60    C     0.51189   0.12719   0.45303   0.00000  Uiso   1.00
C61    C     0.48815   0.20726   0.45166   0.00000  Uiso   1.00
C62    C     0.48811   0.12719   0.04697   0.00000  Uiso   1.00
C63    C     0.51158   0.20716   0.09423   0.00000  Uiso   1.00
C64    C     0.51138   0.12683   0.40716   0.00000  Uiso   1.00
C65    C     0.48842   0.20716   0.40577   0.00000  Uiso   1.00
C66    C     0.57914   0.16668   0.24720   0.00000  Uiso   1.00
C67    C     0.48862   0.12683   0.09284   0.00000  Uiso   1.00
C68    C     0.50010   0.16686   0.11676   0.00000  Uiso   1.00
C69    C     0.49990   0.16686   0.38324   0.00000  Uiso   1.00
C70    C     0.49995   0.16731   0.02429   0.00000  Uiso   1.00
C71    C     0.50005   0.16731   0.47571   0.00000  Uiso   1.00
C72    C     0.62388   0.16672   0.24494   0.00000  Uiso   1.00
C73    C     0.37612   0.16672   0.25506   0.00000  Uiso   1.00
C74    C     0.50000   0.16669   0.16501   0.00000  Uiso   1.00
C75    C     0.50000   0.16669   0.33499   0.00000  Uiso   1.00
C76    C     0.47478   0.02471   0.22115   0.00000  Uiso   1.00
C77    C     0.52506   0.30860   0.27902   0.00000  Uiso   1.00
C78    C     0.52522   0.02471   0.27885   0.00000  Uiso   1.00
C79    C     0.47494   0.30860   0.22098   0.00000  Uiso   1.00
C80    C     0.35434   0.12414   0.25419   0.00000  Uiso   1.00
Cl81   Cl    0.44128   0.05395   0.18352   0.00000  Uiso   1.00
Cl82   Cl    0.55777   0.27930   0.31749   0.00000  Uiso   1.00
Cl83   Cl    0.55872   0.05395   0.31648   0.00000  Uiso   1.00
Cl84   Cl    0.44223   0.27930   0.18250   0.00000  Uiso   1.00
Cl85   Cl    0.37749   0.06979   0.26814   0.00000  Uiso   1.00
Cl86   Cl    0.62236   0.26379   0.23255   0.00000  Uiso   1.00
Cl87   Cl    0.62251   0.06979   0.23186   0.00000  Uiso   1.00
Cl88   Cl    0.37763   0.26379   0.26745   0.00000  Uiso   1.00
Cu89   Cu    0.50000   0.21355   0.25000   0.00000  Uiso   1.00
Cu90   Cu    0.50000   0.11978   0.25000   0.00000  Uiso   1.00
H91    H     0.52186   0.23839   0.03176   0.00000  Uiso   1.00
H92    H     0.52196   0.09619   0.47071   0.00000  Uiso   1.00
H93    H     0.47814   0.23839   0.46824   0.00000  Uiso   1.00
H94    H     0.47804   0.09619   0.02929   0.00000  Uiso   1.00
H95    H     0.52091   0.23837   0.11208   0.00000  Uiso   1.00
H96    H     0.52047   0.09538   0.39055   0.00000  Uiso   1.00
H97    H     0.47909   0.23837   0.38792   0.00000  Uiso   1.00
H98    H     0.47953   0.09538   0.10944   0.00000  Uiso   1.00
N99    N     0.50000   0.28402   0.25000   0.00000  Uiso   1.00
N100   N     0.50000   0.04931   0.25000   0.00000  Uiso   1.00
O101   O     0.43988   0.20625   0.24999   0.00000  Uiso   1.00
O102   O     0.56012   0.12709   0.25000   0.00000  Uiso   1.00
O103   O     0.56012   0.20625   0.25000   0.00000  Uiso   1.00
O104   O     0.43988   0.12709   0.24999   0.00000  Uiso   1.00
O105   O     0.50000   0.20626   0.18573   0.00000  Uiso   1.00
O106   O     0.50000   0.12707   0.31427   0.00000  Uiso   1.00
O107   O     0.50000   0.20626   0.31427   0.00000  Uiso   1.00
O108   O     0.50000   0.12707   0.18573   0.00000  Uiso   1.00
C109   C     0.75419   0.16668   0.25280   0.00000  Uiso   1.00
C110   C     0.97897   0.20934   0.24593   0.00000  Uiso   1.00
C111   C     0.97899   0.12414   0.24581   0.00000  Uiso   1.00
C112   C     0.68770   0.20934   0.25407   0.00000  Uiso   1.00
C113   C     0.84518   0.20726   0.04834   0.00000  Uiso   1.00
C114   C     0.84522   0.12719   0.45303   0.00000  Uiso   1.00
C115   C     0.82149   0.20726   0.45166   0.00000  Uiso   1.00
C116   C     0.82145   0.12719   0.04697   0.00000  Uiso   1.00
C117   C     0.84491   0.20716   0.09423   0.00000  Uiso   1.00
C118   C     0.84471   0.12683   0.40716   0.00000  Uiso   1.00
C119   C     0.82176   0.20716   0.40577   0.00000  Uiso   1.00
C120   C     0.91248   0.16668   0.24720   0.00000  Uiso   1.00
C121   C     0.82196   0.12683   0.09284   0.00000  Uiso   1.00
C122   C     0.83343   0.16686   0.11676   0.00000  Uiso   1.00
C123   C     0.83324   0.16686   0.38324   0.00000  Uiso   1.00
C124   C     0.83329   0.16731   0.02429   0.00000  Uiso   1.00
C125   C     0.83338   0.16731   0.47571   0.00000  Uiso   1.00
C126   C     0.95721   0.16672   0.24494   0.00000  Uiso   1.00
C127   C     0.70945   0.16672   0.25506   0.00000  Uiso   1.00
C128   C     0.83333   0.16669   0.16501   0.00000  Uiso   1.00
C129   C     0.83333   0.16669   0.33499   0.00000  Uiso   1.00
C130   C     0.80811   0.02471   0.22115   0.00000  Uiso   1.00
C131   C     0.85839   0.30860   0.27902   0.00000  Uiso   1.00
C132   C     0.85856   0.02471   0.27885   0.00000  Uiso   1.00
C133   C     0.80827   0.30860   0.22098   0.00000  Uiso   1.00
C134   C     0.68767   0.12414   0.25419   0.00000  Uiso   1.00
Cl135  Cl    0.77461   0.05395   0.18352   0.00000  Uiso   1.00
Cl136  Cl    0.89110   0.27930   0.31749   0.00000  Uiso   1.00
Cl137  Cl    0.89205   0.05395   0.31648   0.00000  Uiso   1.00
Cl138  Cl    0.77556   0.27930   0.18250   0.00000  Uiso   1.00
Cl139  Cl    0.71082   0.06979   0.26814   0.00000  Uiso   1.00
Cl140  Cl    0.95570   0.26379   0.23255   0.00000  Uiso   1.00
Cl141  Cl    0.95584   0.06979   0.23186   0.00000  Uiso   1.00
Cl142  Cl    0.71097   0.26379   0.26745   0.00000  Uiso   1.00
Cu143  Cu    0.83333   0.21355   0.25000   0.00000  Uiso   1.00
Cu144  Cu    0.83333   0.11978   0.25000   0.00000  Uiso   1.00
H145   H     0.85519   0.23839   0.03176   0.00000  Uiso   1.00
H146   H     0.85530   0.09619   0.47071   0.00000  Uiso   1.00
H147   H     0.81148   0.23839   0.46824   0.00000  Uiso   1.00
H148   H     0.81137   0.09619   0.02929   0.00000  Uiso   1.00
H149   H     0.85424   0.23837   0.11208   0.00000  Uiso   1.00
H150   H     0.85380   0.09538   0.39055   0.00000  Uiso   1.00
H151   H     0.81242   0.23837   0.38792   0.00000  Uiso   1.00
H152   H     0.81287   0.09538   0.10944   0.00000  Uiso   1.00
N153   N     0.83333   0.28402   0.25000   0.00000  Uiso   1.00
N154   N     0.83333   0.04931   0.25000   0.00000  Uiso   1.00
O155   O     0.77321   0.20625   0.24999   0.00000  Uiso   1.00
O156   O     0.89345   0.12709   0.25000   0.00000  Uiso   1.00
O157   O     0.89345   0.20625   0.25000   0.00000  Uiso   1.00
O158   O     0.77321   0.12709   0.24999   0.00000  Uiso   1.00
O159   O     0.83333   0.20626   0.18573   0.00000  Uiso   1.00
O160   O     0.83334   0.12707   0.31427   0.00000  Uiso   1.00
O161   O     0.83334   0.20626   0.31427   0.00000  Uiso   1.00
O162   O     0.83333   0.12707   0.18573   0.00000  Uiso   1.00
C163   C     0.08752   0.50001   0.25280   0.00000  Uiso   1.00
C164   C     0.31230   0.54268   0.24593   0.00000  Uiso   1.00
C165   C     0.31233   0.45747   0.24581   0.00000  Uiso   1.00
C166   C     0.02103   0.54268   0.25407   0.00000  Uiso   1.00
C167   C     0.17851   0.54059   0.04834   0.00000  Uiso   1.00
C168   C     0.17855   0.46053   0.45303   0.00000  Uiso   1.00
C169   C     0.15482   0.54059   0.45166   0.00000  Uiso   1.00
C170   C     0.15478   0.46053   0.04697   0.00000  Uiso   1.00
C171   C     0.17824   0.54049   0.09423   0.00000  Uiso   1.00
C172   C     0.17804   0.46016   0.40716   0.00000  Uiso   1.00
C173   C     0.15509   0.54049   0.40577   0.00000  Uiso   1.00
C174   C     0.24581   0.50001   0.24720   0.00000  Uiso   1.00
C175   C     0.15529   0.46016   0.09284   0.00000  Uiso   1.00
C176   C     0.16676   0.50020   0.11676   0.00000  Uiso   1.00
C177   C     0.16657   0.50020   0.38324   0.00000  Uiso   1.00
C178   C     0.16662   0.50064   0.02429   0.00000  Uiso   1.00
C179   C     0.16671   0.50064   0.47571   0.00000  Uiso   1.00
C180   C     0.29055   0.50006   0.24494   0.00000  Uiso   1.00
C181   C     0.04279   0.50006   0.25506   0.00000  Uiso   1.00
C182   C     0.16667   0.50003   0.16501   0.00000  Uiso   1.00
C183   C     0.16667   0.50003   0.33499   0.00000  Uiso   1.00
C184   C     0.14144   0.35804   0.22115   0.00000  Uiso   1.00
C185   C     0.19173   0.64193   0.27902   0.00000  Uiso   1.00
C186   C     0.19189   0.35804   0.27885   0.00000  Uiso   1.00
C187   C     0.14161   0.64193   0.22098   0.00000  Uiso   1.00
C188   C     0.02101   0.45747   0.25419   0.00000  Uiso   1.00
Cl189  Cl    0.10795   0.38729   0.18352   0.00000  Uiso   1.00
Cl190  Cl    0.22444   0.61263   0.31749   0.00000  Uiso   1.00
Cl191  Cl    0.22539   0.38729   0.31648   0.00000  Uiso   1.00
Cl192  Cl    0.10890   0.61263   0.18250   0.00000  Uiso   1.00
Cl193  Cl    0.04416   0.40312   0.26814   0.00000  Uiso   1.00
Cl194  Cl    0.28903   0.59712   0.23255   0.00000  Uiso   1.00
Cl195  Cl    0.28917   0.40312   0.23186   0.00000  Uiso   1.00
Cl196  Cl    0.04430   0.59712   0.26745   0.00000  Uiso   1.00
Cu197  Cu    0.16667   0.54689   0.25000   0.00000  Uiso   1.00
Cu198  Cu    0.16667   0.45311   0.25000   0.00000  Uiso   1.00
H199   H     0.18852   0.57172   0.03176   0.00000  Uiso   1.00
H200   H     0.18863   0.42952   0.47071   0.00000  Uiso   1.00
H201   H     0.14481   0.57172   0.46824   0.00000  Uiso   1.00
H202   H     0.14470   0.42952   0.02929   0.00000  Uiso   1.00
H203   H     0.18758   0.57170   0.11208   0.00000  Uiso   1.00
H204   H     0.18713   0.42872   0.39055   0.00000  Uiso   1.00
H205   H     0.14576   0.57170   0.38792   0.00000  Uiso   1.00
H206   H     0.14620   0.42872   0.10944   0.00000  Uiso   1.00
N207   N     0.16667   0.61736   0.25000   0.00000  Uiso   1.00
N208   N     0.16667   0.38264   0.25000   0.00000  Uiso   1.00
O209   O     0.10655   0.53958   0.24999   0.00000  Uiso   1.00
O210   O     0.22679   0.46042   0.25000   0.00000  Uiso   1.00
O211   O     0.22679   0.53958   0.25000   0.00000  Uiso   1.00
O212   O     0.10655   0.46042   0.24999   0.00000  Uiso   1.00
O213   O     0.16666   0.53959   0.18573   0.00000  Uiso   1.00
O214   O     0.16667   0.46041   0.31427   0.00000  Uiso   1.00
O215   O     0.16667   0.53959   0.31427   0.00000  Uiso   1.00
O216   O     0.16666   0.46041   0.18573   0.00000  Uiso   1.00
C217   C     0.42086   0.50001   0.25280   0.00000  Uiso   1.00
C218   C     0.64564   0.54268   0.24593   0.00000  Uiso   1.00
C219   C     0.64566   0.45747   0.24581   0.00000  Uiso   1.00
C220   C     0.35436   0.54268   0.25407   0.00000  Uiso   1.00
C221   C     0.51184   0.54059   0.04834   0.00000  Uiso   1.00
C222   C     0.51189   0.46053   0.45303   0.00000  Uiso   1.00
C223   C     0.48815   0.54059   0.45166   0.00000  Uiso   1.00
C224   C     0.48811   0.46053   0.04697   0.00000  Uiso   1.00
C225   C     0.51158   0.54049   0.09423   0.00000  Uiso   1.00
C226   C     0.51138   0.46016   0.40716   0.00000  Uiso   1.00
C227   C     0.48842   0.54049   0.40577   0.00000  Uiso   1.00
C228   C     0.57914   0.50001   0.24720   0.00000  Uiso   1.00
C229   C     0.48862   0.46016   0.09284   0.00000  Uiso   1.00
C230   C     0.50010   0.50020   0.11676   0.00000  Uiso   1.00
C231   C     0.49990   0.50020   0.38324   0.00000  Uiso   1.00
C232   C     0.49995   0.50064   0.02429   0.00000  Uiso   1.00
C233   C     0.50005   0.50064   0.47571   0.00000  Uiso   1.00
C234   C     0.62388   0.50006   0.24494   0.00000  Uiso   1.00
C235   C     0.37612   0.50006   0.25506   0.00000  Uiso   1.00
C236   C     0.50000   0.50003   0.16501   0.00000  Uiso   1.00
C237   C     0.50000   0.50003   0.33499   0.00000  Uiso   1.00
C238   C     0.47478   0.35804   0.22115   0.00000  Uiso   1.00
C239   C     0.52506   0.64193   0.27902   0.00000  Uiso   1.00
C240   C     0.52522   0.35804   0.27885   0.00000  Uiso   1.00
C241   C     0.47494   0.64193   0.22098   0.00000  Uiso   1.00
C242   C     0.35434   0.45747   0.25419   0.00000  Uiso   1.00
Cl243  Cl    0.44128   0.38729   0.18352   0.00000  Uiso   1.00
Cl244  Cl    0.55777   0.61263   0.31749   0.00000  Uiso   1.00
Cl245  Cl    0.55872   0.38729   0.31648   0.00000  Uiso   1.00
Cl246  Cl    0.44223   0.61263   0.18250   0.00000  Uiso   1.00
Cl247  Cl    0.37749   0.40312   0.26814   0.00000  Uiso   1.00
Cl248  Cl    0.62236   0.59712   0.23255   0.00000  Uiso   1.00
Cl249  Cl    0.62251   0.40312   0.23186   0.00000  Uiso   1.00
Cl250  Cl    0.37763   0.59712   0.26745   0.00000  Uiso   1.00
Cu251  Cu    0.50000   0.54689   0.25000   0.00000  Uiso   1.00
Cu252  Cu    0.50000   0.45311   0.25000   0.00000  Uiso   1.00
H253   H     0.52186   0.57172   0.03176   0.00000  Uiso   1.00
H254   H     0.52196   0.42952   0.47071   0.00000  Uiso   1.00
H255   H     0.47814   0.57172   0.46824   0.00000  Uiso   1.00
H256   H     0.47804   0.42952   0.02929   0.00000  Uiso   1.00
H257   H     0.52091   0.57170   0.11208   0.00000  Uiso   1.00
H258   H     0.52047   0.42872   0.39055   0.00000  Uiso   1.00
H259   H     0.47909   0.57170   0.38792   0.00000  Uiso   1.00
H260   H     0.47953   0.42872   0.10944   0.00000  Uiso   1.00
N261   N     0.50000   0.61736   0.25000   0.00000  Uiso   1.00
N262   N     0.50000   0.38264   0.25000   0.00000  Uiso   1.00
O263   O     0.43988   0.53958   0.24999   0.00000  Uiso   1.00
O264   O     0.56012   0.46042   0.25000   0.00000  Uiso   1.00
O265   O     0.56012   0.53958   0.25000   0.00000  Uiso   1.00
O266   O     0.43988   0.46042   0.24999   0.00000  Uiso   1.00
O267   O     0.50000   0.53959   0.18573   0.00000  Uiso   1.00
O268   O     0.50000   0.46041   0.31427   0.00000  Uiso   1.00
O269   O     0.50000   0.53959   0.31427   0.00000  Uiso   1.00
O270   O     0.50000   0.46041   0.18573   0.00000  Uiso   1.00
C271   C     0.75419   0.50001   0.25280   0.00000  Uiso   1.00
C272   C     0.97897   0.54268   0.24593   0.00000  Uiso   1.00
C273   C     0.97899   0.45747   0.24581   0.00000  Uiso   1.00
C274   C     0.68770   0.54268   0.25407   0.00000  Uiso   1.00
C275   C     0.84518   0.54059   0.04834   0.00000  Uiso   1.00
C276   C     0.84522   0.46053   0.45303   0.00000  Uiso   1.00
C277   C     0.82149   0.54059   0.45166   0.00000  Uiso   1.00
C278   C     0.82145   0.46053   0.04697   0.00000  Uiso   1.00
C279   C     0.84491   0.54049   0.09423   0.00000  Uiso   1.00
C280   C     0.84471   0.46016   0.40716   0.00000  Uiso   1.00
C281   C     0.82176   0.54049   0.40577   0.00000  Uiso   1.00
C282   C     0.91248   0.50001   0.24720   0.00000  Uiso   1.00
C283   C     0.82196   0.46016   0.09284   0.00000  Uiso   1.00
C284   C     0.83343   0.50020   0.11676   0.00000  Uiso   1.00
C285   C     0.83324   0.50020   0.38324   0.00000  Uiso   1.00
C286   C     0.83329   0.50064   0.02429   0.00000  Uiso   1.00
C287   C     0.83338   0.50064   0.47571   0.00000  Uiso   1.00
C288   C     0.95721   0.50006   0.24494   0.00000  Uiso   1.00
C289   C     0.70945   0.50006   0.25506   0.00000  Uiso   1.00
C290   C     0.83333   0.50003   0.16501   0.00000  Uiso   1.00
C291   C     0.83333   0.50003   0.33499   0.00000  Uiso   1.00
C292   C     0.80811   0.35804   0.22115   0.00000  Uiso   1.00
C293   C     0.85839   0.64193   0.27902   0.00000  Uiso   1.00
C294   C     0.85856   0.35804   0.27885   0.00000  Uiso   1.00
C295   C     0.80827   0.64193   0.22098   0.00000  Uiso   1.00
C296   C     0.68767   0.45747   0.25419   0.00000  Uiso   1.00
Cl297  Cl    0.77461   0.38729   0.18352   0.00000  Uiso   1.00
Cl298  Cl    0.89110   0.61263   0.31749   0.00000  Uiso   1.00
Cl299  Cl    0.89205   0.38729   0.31648   0.00000  Uiso   1.00
Cl300  Cl    0.77556   0.61263   0.18250   0.00000  Uiso   1.00
Cl301  Cl    0.71082   0.40312   0.26814   0.00000  Uiso   1.00
Cl302  Cl    0.95570   0.59712   0.23255   0.00000  Uiso   1.00
Cl303  Cl    0.95584   0.40312   0.23186   0.00000  Uiso   1.00
Cl304  Cl    0.71097   0.59712   0.26745   0.00000  Uiso   1.00
Cu305  Cu    0.83333   0.54689   0.25000   0.00000  Uiso   1.00
Cu306  Cu    0.83333   0.45311   0.25000   0.00000  Uiso   1.00
H307   H     0.85519   0.57172   0.03176   0.00000  Uiso   1.00
H308   H     0.85530   0.42952   0.47071   0.00000  Uiso   1.00
H309   H     0.81148   0.57172   0.46824   0.00000  Uiso   1.00
H310   H     0.81137   0.42952   0.02929   0.00000  Uiso   1.00
H311   H     0.85424   0.57170   0.11208   0.00000  Uiso   1.00
H312   H     0.85380   0.42872   0.39055   0.00000  Uiso   1.00
H313   H     0.81242   0.57170   0.38792   0.00000  Uiso   1.00
H314   H     0.81287   0.42872   0.10944   0.00000  Uiso   1.00
N315   N     0.83333   0.61736   0.25000   0.00000  Uiso   1.00
N316   N     0.83333   0.38264   0.25000   0.00000  Uiso   1.00
O317   O     0.77321   0.53958   0.24999   0.00000  Uiso   1.00
O318   O     0.89345   0.46042   0.25000   0.00000  Uiso   1.00
O319   O     0.89345   0.53958   0.25000   0.00000  Uiso   1.00
O320   O     0.77321   0.46042   0.24999   0.00000  Uiso   1.00
O321   O     0.83333   0.53959   0.18573   0.00000  Uiso   1.00
O322   O     0.83334   0.46041   0.31427   0.00000  Uiso   1.00
O323   O     0.83334   0.53959   0.31427   0.00000  Uiso   1.00
O324   O     0.83333   0.46041   0.18573   0.00000  Uiso   1.00
C325   C     0.08752   0.83334   0.25280   0.00000  Uiso   1.00
C326   C     0.31230   0.87601   0.24593   0.00000  Uiso   1.00
C327   C     0.31233   0.79080   0.24581   0.00000  Uiso   1.00
C328   C     0.02103   0.87601   0.25407   0.00000  Uiso   1.00
C329   C     0.17851   0.87392   0.04834   0.00000  Uiso   1.00
C330   C     0.17855   0.79386   0.45303   0.00000  Uiso   1.00
C331   C     0.15482   0.87392   0.45166   0.00000  Uiso   1.00
C332   C     0.15478   0.79386   0.04697   0.00000  Uiso   1.00
C333   C     0.17824   0.87382   0.09423   0.00000  Uiso   1.00
C334   C     0.17804   0.79349   0.40716   0.00000  Uiso   1.00
C335   C     0.15509   0.87382   0.40577   0.00000  Uiso   1.00
C336   C     0.24581   0.83334   0.24720   0.00000  Uiso   1.00
C337   C     0.15529   0.79349   0.09284   0.00000  Uiso   1.00
C338   C     0.16676   0.83353   0.11676   0.00000  Uiso   1.00
C339   C     0.16657   0.83353   0.38324   0.00000  Uiso   1.00
C340   C     0.16662   0.83398   0.02429   0.00000  Uiso   1.00
C341   C     0.16671   0.83398   0.47571   0.00000  Uiso   1.00
C342   C     0.29055   0.83339   0.24494   0.00000  Uiso   1.00
C343   C     0.04279   0.83339   0.25506   0.00000  Uiso   1.00
C344   C     0.16667   0.83336   0.16501   0.00000  Uiso   1.00
C345   C     0.16667   0.83336   0.33499   0.00000  Uiso   1.00
C346   C     0.14144   0.69137   0.22115   0.00000  Uiso   1.00
C347   C     0.19173   0.97527   0.27902   0.00000  Uiso   1.00
C348   C     0.19189   0.69137   0.27885   0.00000  Uiso   1.00
C349   C     0.14161   0.97527   0.22098   0.00000  Uiso   1.00
C350   C     0.02101   0.79080   0.25419   0.00000  Uiso   1.00
Cl351  Cl    0.10795   0.72062   0.18352   0.00000  Uiso   1.00
Cl352  Cl    0.22444   0.94597   0.31749   0.00000  Uiso   1.00
Cl353  Cl    0.22539   0.72062   0.31648   0.00000  Uiso   1.00
Cl354  Cl    0.10890   0.94597   0.18250   0.00000  Uiso   1.00
Cl355  Cl    0.04416   0.73646   0.26814   0.00000  Uiso   1.00
Cl356  Cl    0.28903   0.93046   0.23255   0.00000  Uiso   1.00
Cl357  Cl    0.28917   0.73646   0.23186   0.00000  Uiso   1.00
Cl358  Cl    0.04430   0.93046   0.26745   0.00000  Uiso   1.00
Cu359  Cu    0.16667   0.88022   0.25000   0.00000  Uiso   1.00
Cu360  Cu    0.16667   0.78645   0.25000   0.00000  Uiso   1.00
H361   H     0.18852   0.90505   0.03176   0.00000  Uiso   1.00
H362   H     0.18863   0.76286   0.47071   0.00000  Uiso   1.00
H363   H     0.14481   0.90505   0.46824   0.00000  Uiso   1.00
H364   H     0.14470   0.76286   0.02929   0.00000  Uiso   1.00
H365   H     0.18758   0.90503   0.11208   0.00000  Uiso   1.00
H366   H     0.18713   0.76205   0.39055   0.00000  Uiso   1.00
H367   H     0.14576   0.90503   0.38792   0.00000  Uiso   1.00
H368   H     0.14620   0.76205   0.10944   0.00000  Uiso   1.00
N369   N     0.16667   0.95069   0.25000   0.00000  Uiso   1.00
N370   N     0.16667   0.71598   0.25000   0.00000  Uiso   1.00
O371   O     0.10655   0.87291   0.24999   0.00000  Uiso   1.00
O372   O     0.22679   0.79375   0.25000   0.00000  Uiso   1.00
O373   O     0.22679   0.87291   0.25000   0.00000  Uiso   1.00
O374   O     0.10655   0.79375   0.24999   0.00000  Uiso   1.00
O375   O     0.16666   0.87293   0.18573   0.00000  Uiso   1.00
O376   O     0.16667   0.79374   0.31427   0.00000  Uiso   1.00
O377   O     0.16667   0.87293   0.31427   0.00000  Uiso   1.00
O378   O     0.16666   0.79374   0.18573   0.00000  Uiso   1.00
C379   C     0.42086   0.83334   0.25280   0.00000  Uiso   1.00
C380   C     0.64564   0.87601   0.24593   0.00000  Uiso   1.00
C381   C     0.64566   0.79080   0.24581   0.00000  Uiso   1.00
C382   C     0.35436   0.87601   0.25407   0.00000  Uiso   1.00
C383   C     0.51184   0.87392   0.04834   0.00000  Uiso   1.00
C384   C     0.51189   0.79386   0.45303   0.00000  Uiso   1.00
C385   C     0.48815   0.87392   0.45166   0.00000  Uiso   1.00
C386   C     0.48811   0.79386   0.04697   0.00000  Uiso   1.00
C387   C     0.51158   0.87382   0.09423   0.00000  Uiso   1.00
C388   C     0.51138   0.79349   0.40716   0.00000  Uiso   1.00
C389   C     0.48842   0.87382   0.40577   0.00000  Uiso   1.00
C390   C     0.57914   0.83334   0.24720   0.00000  Uiso   1.00
C391   C     0.48862   0.79349   0.09284   0.00000  Uiso   1.00
C392   C     0.50010   0.83353   0.11676   0.00000  Uiso   1.00
C393   C     0.49990   0.83353   0.38324   0.00000  Uiso   1.00
C394   C     0.49995   0.83398   0.02429   0.00000  Uiso   1.00
C395   C     0.50005   0.83398   0.47571   0.00000  Uiso   1.00
C396   C     0.62388   0.83339   0.24494   0.00000  Uiso   1.00
C397   C     0.37612   0.83339   0.25506   0.00000  Uiso   1.00
C398   C     0.50000   0.83336   0.16501   0.00000  Uiso   1.00
C399   C     0.50000   0.83336   0.33499   0.00000  Uiso   1.00
C400   C     0.47478   0.69137   0.22115   0.00000  Uiso   1.00
C401   C     0.52506   0.97527   0.27902   0.00000  Uiso   1.00
C402   C     0.52522   0.69137   0.27885   0.00000  Uiso   1.00
C403   C     0.47494   0.97527   0.22098   0.00000  Uiso   1.00
C404   C     0.35434   0.79080   0.25419   0.00000  Uiso   1.00
Cl405  Cl    0.44128   0.72062   0.18352   0.00000  Uiso   1.00
Cl406  Cl    0.55777   0.94597   0.31749   0.00000  Uiso   1.00
Cl407  Cl    0.55872   0.72062   0.31648   0.00000  Uiso   1.00
Cl408  Cl    0.44223   0.94597   0.18250   0.00000  Uiso   1.00
Cl409  Cl    0.37749   0.73646   0.26814   0.00000  Uiso   1.00
Cl410  Cl    0.62236   0.93046   0.23255   0.00000  Uiso   1.00
Cl411  Cl    0.62251   0.73646   0.23186   0.00000  Uiso   1.00
Cl412  Cl    0.37763   0.93046   0.26745   0.00000  Uiso   1.00
Cu413  Cu    0.50000   0.88022   0.25000   0.00000  Uiso   1.00
Cu414  Cu    0.50000   0.78645   0.25000   0.00000  Uiso   1.00
H415   H     0.52186   0.90505   0.03176   0.00000  Uiso   1.00
H416   H     0.52196   0.76286   0.47071   0.00000  Uiso   1.00
H417   H     0.47814   0.90505   0.46824   0.00000  Uiso   1.00
H418   H     0.47804   0.76286   0.02929   0.00000  Uiso   1.00
H419   H     0.52091   0.90503   0.11208   0.00000  Uiso   1.00
H420   H     0.52047   0.76205   0.39055   0.00000  Uiso   1.00
H421   H     0.47909   0.90503   0.38792   0.00000  Uiso   1.00
H422   H     0.47953   0.76205   0.10944   0.00000  Uiso   1.00
N423   N     0.50000   0.95069   0.25000   0.00000  Uiso   1.00
N424   N     0.50000   0.71598   0.25000   0.00000  Uiso   1.00
O425   O     0.43988   0.87291   0.24999   0.00000  Uiso   1.00
O426   O     0.56012   0.79375   0.25000   0.00000  Uiso   1.00
O427   O     0.56012   0.87291   0.25000   0.00000  Uiso   1.00
O428   O     0.43988   0.79375   0.24999   0.00000  Uiso   1.00
O429   O     0.50000   0.87293   0.18573   0.00000  Uiso   1.00
O430   O     0.50000   0.79374   0.31427   0.00000  Uiso   1.00
O431   O     0.50000   0.87293   0.31427   0.00000  Uiso   1.00
O432   O     0.50000   0.79374   0.18573   0.00000  Uiso   1.00
C433   C     0.75419   0.83334   0.25280   0.00000  Uiso   1.00
C434   C     0.97897   0.87601   0.24593   0.00000  Uiso   1.00
C435   C     0.97899   0.79080   0.24581   0.00000  Uiso   1.00
C436   C     0.68770   0.87601   0.25407   0.00000  Uiso   1.00
C437   C     0.84518   0.87392   0.04834   0.00000  Uiso   1.00
C438   C     0.84522   0.79386   0.45303   0.00000  Uiso   1.00
C439   C     0.82149   0.87392   0.45166   0.00000  Uiso   1.00
C440   C     0.82145   0.79386   0.04697   0.00000  Uiso   1.00
C441   C     0.84491   0.87382   0.09423   0.00000  Uiso   1.00
C442   C     0.84471   0.79349   0.40716   0.00000  Uiso   1.00
C443   C     0.82176   0.87382   0.40577   0.00000  Uiso   1.00
C444   C     0.91248   0.83334   0.24720   0.00000  Uiso   1.00
C445   C     0.82196   0.79349   0.09284   0.00000  Uiso   1.00
C446   C     0.83343   0.83353   0.11676   0.00000  Uiso   1.00
C447   C     0.83324   0.83353   0.38324   0.00000  Uiso   1.00
C448   C     0.83329   0.83398   0.02429   0.00000  Uiso   1.00
C449   C     0.83338   0.83398   0.47571   0.00000  Uiso   1.00
C450   C     0.95721   0.83339   0.24494   0.00000  Uiso   1.00
C451   C     0.70945   0.83339   0.25506   0.00000  Uiso   1.00
C452   C     0.83333   0.83336   0.16501   0.00000  Uiso   1.00
C453   C     0.83333   0.83336   0.33499   0.00000  Uiso   1.00
C454   C     0.80811   0.69137   0.22115   0.00000  Uiso   1.00
C455   C     0.85839   0.97527   0.27902   0.00000  Uiso   1.00
C456   C     0.85856   0.69137   0.27885   0.00000  Uiso   1.00
C457   C     0.80827   0.97527   0.22098   0.00000  Uiso   1.00
C458   C     0.68767   0.79080   0.25419   0.00000  Uiso   1.00
Cl459  Cl    0.77461   0.72062   0.18352   0.00000  Uiso   1.00
Cl460  Cl    0.89110   0.94597   0.31749   0.00000  Uiso   1.00
Cl461  Cl    0.89205   0.72062   0.31648   0.00000  Uiso   1.00
Cl462  Cl    0.77556   0.94597   0.18250   0.00000  Uiso   1.00
Cl463  Cl    0.71082   0.73646   0.26814   0.00000  Uiso   1.00
Cl464  Cl    0.95570   0.93046   0.23255   0.00000  Uiso   1.00
Cl465  Cl    0.95584   0.73646   0.23186   0.00000  Uiso   1.00
Cl466  Cl    0.71097   0.93046   0.26745   0.00000  Uiso   1.00
Cu467  Cu    0.83333   0.88022   0.25000   0.00000  Uiso   1.00
Cu468  Cu    0.83333   0.78645   0.25000   0.00000  Uiso   1.00
H469   H     0.85519   0.90505   0.03176   0.00000  Uiso   1.00
H470   H     0.85530   0.76286   0.47071   0.00000  Uiso   1.00
H471   H     0.81148   0.90505   0.46824   0.00000  Uiso   1.00
H472   H     0.81137   0.76286   0.02929   0.00000  Uiso   1.00
H473   H     0.85424   0.90503   0.11208   0.00000  Uiso   1.00
H474   H     0.85380   0.76205   0.39055   0.00000  Uiso   1.00
H475   H     0.81242   0.90503   0.38792   0.00000  Uiso   1.00
H476   H     0.81287   0.76205   0.10944   0.00000  Uiso   1.00
N477   N     0.83333   0.95069   0.25000   0.00000  Uiso   1.00
N478   N     0.83333   0.71598   0.25000   0.00000  Uiso   1.00
O479   O     0.77321   0.87291   0.24999   0.00000  Uiso   1.00
O480   O     0.89345   0.79375   0.25000   0.00000  Uiso   1.00
O481   O     0.89345   0.87291   0.25000   0.00000  Uiso   1.00
O482   O     0.77321   0.79375   0.24999   0.00000  Uiso   1.00
O483   O     0.83333   0.87293   0.18573   0.00000  Uiso   1.00
O484   O     0.83334   0.79374   0.31427   0.00000  Uiso   1.00
O485   O     0.83334   0.87293   0.31427   0.00000  Uiso   1.00
O486   O     0.83333   0.79374   0.18573   0.00000  Uiso   1.00
C487   C     0.08752   0.16668   0.75280   0.00000  Uiso   1.00
C488   C     0.31230   0.20934   0.74593   0.00000  Uiso   1.00
C489   C     0.31233   0.12414   0.74581   0.00000  Uiso   1.00
C490   C     0.02103   0.20934   0.75407   0.00000  Uiso   1.00
C491   C     0.17851   0.20726   0.54834   0.00000  Uiso   1.00
C492   C     0.17855   0.12719   0.95303   0.00000  Uiso   1.00
C493   C     0.15482   0.20726   0.95166   0.00000  Uiso   1.00
C494   C     0.15478   0.12719   0.54697   0.00000  Uiso   1.00
C495   C     0.17824   0.20716   0.59423   0.00000  Uiso   1.00
C496   C     0.17804   0.12683   0.90716   0.00000  Uiso   1.00
C497   C     0.15509   0.20716   0.90577   0.00000  Uiso   1.00
C498   C     0.24581   0.16668   0.74720   0.00000  Uiso   1.00
C499   C     0.15529   0.12683   0.59284   0.00000  Uiso   1.00
C500   C     0.16676   0.16686   0.61676   0.00000  Uiso   1.00
C501   C     0.16657   0.16686   0.88324   0.00000  Uiso   1.00
C502   C     0.16662   0.16731   0.52429   0.00000  Uiso   1.00
C503   C     0.16671   0.16731   0.97571   0.00000  Uiso   1.00
C504   C     0.29055   0.16672   0.74494   0.00000  Uiso   1.00
C505   C     0.04279   0.16672   0.75506   0.00000  Uiso   1.00
C506   C     0.16667   0.16669   0.66501   0.00000  Uiso   1.00
C507   C     0.16667   0.16669   0.83499   0.00000  Uiso   1.00
C508   C     0.14144   0.02471   0.72115   0.00000  Uiso   1.00
C509   C     0.19173   0.30860   0.77902   0.00000  Uiso   1.00
C510   C     0.19189   0.02471   0.77885   0.00000  Uiso   1.00
C511   C     0.14161   0.30860   0.72098   0.00000  Uiso   1.00
C512   C     0.02101   0.12414   0.75419   0.00000  Uiso   1.00
Cl513  Cl    0.10795   0.05395   0.68352   0.00000  Uiso   1.00
Cl514  Cl    0.22444   0.27930   0.81749   0.00000  Uiso   1.00
Cl515  Cl    0.22539   0.05395   0.81648   0.00000  Uiso   1.00
Cl516  Cl    0.10890   0.27930   0.68250   0.00000  Uiso   1.00
Cl517  Cl    0.04416   0.06979   0.76814   0.00000  Uiso   1.00
Cl518  Cl    0.28903   0.26379   0.73255   0.00000  Uiso   1.00
Cl519  Cl    0.28917   0.06979   0.73186   0.00000  Uiso   1.00
Cl520  Cl    0.04430   0.26379   0.76745   0.00000  Uiso   1.00
Cu521  Cu    0.16667   0.21355   0.75000   0.00000  Uiso   1.00
Cu522  Cu    0.16667   0.11978   0.75000   0.00000  Uiso   1.00
H523   H     0.18852   0.23839   0.53176   0.00000  Uiso   1.00
H524   H     0.18863   0.09619   0.97071   0.00000  Uiso   1.00
H525   H     0.14481   0.23839   0.96824   0.00000  Uiso   1.00
H526   H     0.14470   0.09619   0.52929   0.00000  Uiso   1.00
H527   H     0.18758   0.23837   0.61208   0.00000  Uiso   1.00
H528   H     0.18713   0.09538   0.89055   0.00000  Uiso   1.00
H529   H     0.14576   0.23837   0.88792   0.00000  Uiso   1.00
H530   H     0.14620   0.09538   0.60944   0.00000  Uiso   1.00
N531   N     0.16667   0.28402   0.75000   0.00000  Uiso   1.00
N532   N     0.16667   0.04931   0.75000   0.00000  Uiso   1.00
O533   O     0.10655   0.20625   0.74999   0.00000  Uiso   1.00
O534   O     0.22679   0.12709   0.75000   0.00000  Uiso   1.00
O535   O     0.22679   0.20625   0.75000   0.00000  Uiso   1.00
O536   O     0.10655   0.12709   0.74999   0.00000  Uiso   1.00
O537   O     0.16666   0.20626   0.68573   0.00000  Uiso   1.00
O538   O     0.16667   0.12707   0.81427   0.00000  Uiso   1.00
O539   O     0.16667   0.20626   0.81427   0.00000  Uiso   1.00
O540   O     0.16666   0.12707   0.68573   0.00000  Uiso   1.00
C541   C     0.42086   0.16668   0.75280   0.00000  Uiso   1.00
C542   C     0.64564   0.20934   0.74593   0.00000  Uiso   1.00
C543   C     0.64566   0.12414   0.74581   0.00000  Uiso   1.00
C544   C     0.35436   0.20934   0.75407   0.00000  Uiso   1.00
C545   C     0.51184   0.20726   0.54834   0.00000  Uiso   1.00
C546   C     0.51189   0.12719   0.95303   0.00000  Uiso   1.00
C547   C     0.48815   0.20726   0.95166   0.00000  Uiso   1.00
C548   C     0.48811   0.12719   0.54697   0.00000  Uiso   1.00
C549   C     0.51158   0.20716   0.59423   0.00000  Uiso   1.00
C550   C     0.51138   0.12683   0.90716   0.00000  Uiso   1.00
C551   C     0.48842   0.20716   0.90577   0.00000  Uiso   1.00
C552   C     0.57914   0.16668   0.74720   0.00000  Uiso   1.00
C553   C     0.48862   0.12683   0.59284   0.00000  Uiso   1.00
C554   C     0.50010   0.16686   0.61676   0.00000  Uiso   1.00
C555   C     0.49990   0.16686   0.88324   0.00000  Uiso   1.00
C556   C     0.49995   0.16731   0.52429   0.00000  Uiso   1.00
C557   C     0.50005   0.16731   0.97571   0.00000  Uiso   1.00
C558   C     0.62388   0.16672   0.74494   0.00000  Uiso   1.00
C559   C     0.37612   0.16672   0.75506   0.00000  Uiso   1.00
C560   C     0.50000   0.16669   0.66501   0.00000  Uiso   1.00
C561   C     0.50000   0.16669   0.83499   0.00000  Uiso   1.00
C562   C     0.47478   0.02471   0.72115   0.00000  Uiso   1.00
C563   C     0.52506   0.30860   0.77902   0.00000  Uiso   1.00
C564   C     0.52522   0.02471   0.77885   0.00000  Uiso   1.00
C565   C     0.47494   0.30860   0.72098   0.00000  Uiso   1.00
C566   C     0.35434   0.12414   0.75419   0.00000  Uiso   1.00
Cl567  Cl    0.44128   0.05395   0.68352   0.00000  Uiso   1.00
Cl568  Cl    0.55777   0.27930   0.81749   0.00000  Uiso   1.00
Cl569  Cl    0.55872   0.05395   0.81648   0.00000  Uiso   1.00
Cl570  Cl    0.44223   0.27930   0.68250   0.00000  Uiso   1.00
Cl571  Cl    0.37749   0.06979   0.76814   0.00000  Uiso   1.00
Cl572  Cl    0.62236   0.26379   0.73255   0.00000  Uiso   1.00
Cl573  Cl    0.62251   0.06979   0.73186   0.00000  Uiso   1.00
Cl574  Cl    0.37763   0.26379   0.76745   0.00000  Uiso   1.00
Cu575  Cu    0.50000   0.21355   0.75000   0.00000  Uiso   1.00
Cu576  Cu    0.50000   0.11978   0.75000   0.00000  Uiso   1.00
H577   H     0.52186   0.23839   0.53176   0.00000  Uiso   1.00
H578   H     0.52196   0.09619   0.97071   0.00000  Uiso   1.00
H579   H     0.47814   0.23839   0.96824   0.00000  Uiso   1.00
H580   H     0.47804   0.09619   0.52929   0.00000  Uiso   1.00
H581   H     0.52091   0.23837   0.61208   0.00000  Uiso   1.00
H582   H     0.52047   0.09538   0.89055   0.00000  Uiso   1.00
H583   H     0.47909   0.23837   0.88792   0.00000  Uiso   1.00
H584   H     0.47953   0.09538   0.60944   0.00000  Uiso   1.00
N585   N     0.50000   0.28402   0.75000   0.00000  Uiso   1.00
N586   N     0.50000   0.04931   0.75000   0.00000  Uiso   1.00
O587   O     0.43988   0.20625   0.74999   0.00000  Uiso   1.00
O588   O     0.56012   0.12709   0.75000   0.00000  Uiso   1.00
O589   O     0.56012   0.20625   0.75000   0.00000  Uiso   1.00
O590   O     0.43988   0.12709   0.74999   0.00000  Uiso   1.00
O591   O     0.50000   0.20626   0.68573   0.00000  Uiso   1.00
O592   O     0.50000   0.12707   0.81427   0.00000  Uiso   1.00
O593   O     0.50000   0.20626   0.81427   0.00000  Uiso   1.00
O594   O     0.50000   0.12707   0.68573   0.00000  Uiso   1.00
C595   C     0.75419   0.16668   0.75280   0.00000  Uiso   1.00
C596   C     0.97897   0.20934   0.74593   0.00000  Uiso   1.00
C597   C     0.97899   0.12414   0.74581   0.00000  Uiso   1.00
C598   C     0.68770   0.20934   0.75407   0.00000  Uiso   1.00
C599   C     0.84518   0.20726   0.54834   0.00000  Uiso   1.00
C600   C     0.84522   0.12719   0.95303   0.00000  Uiso   1.00
C601   C     0.82149   0.20726   0.95166   0.00000  Uiso   1.00
C602   C     0.82145   0.12719   0.54697   0.00000  Uiso   1.00
C603   C     0.84491   0.20716   0.59423   0.00000  Uiso   1.00
C604   C     0.84471   0.12683   0.90716   0.00000  Uiso   1.00
C605   C     0.82176   0.20716   0.90577   0.00000  Uiso   1.00
C606   C     0.91248   0.16668   0.74720   0.00000  Uiso   1.00
C607   C     0.82196   0.12683   0.59284   0.00000  Uiso   1.00
C608   C     0.83343   0.16686   0.61676   0.00000  Uiso   1.00
C609   C     0.83324   0.16686   0.88324   0.00000  Uiso   1.00
C610   C     0.83329   0.16731   0.52429   0.00000  Uiso   1.00
C611   C     0.83338   0.16731   0.97571   0.00000  Uiso   1.00
C612   C     0.95721   0.16672   0.74494   0.00000  Uiso   1.00
C613   C     0.70945   0.16672   0.75506   0.00000  Uiso   1.00
C614   C     0.83333   0.16669   0.66501   0.00000  Uiso   1.00
C615   C     0.83333   0.16669   0.83499   0.00000  Uiso   1.00
C616   C     0.80811   0.02471   0.72115   0.00000  Uiso   1.00
C617   C     0.85839   0.30860   0.77902   0.00000  Uiso   1.00
C618   C     0.85856   0.02471   0.77885   0.00000  Uiso   1.00
C619   C     0.80827   0.30860   0.72098   0.00000  Uiso   1.00
C620   C     0.68767   0.12414   0.75419   0.00000  Uiso   1.00
Cl621  Cl    0.77461   0.05395   0.68352   0.00000  Uiso   1.00
Cl622  Cl    0.89110   0.27930   0.81749   0.00000  Uiso   1.00
Cl623  Cl    0.89205   0.05395   0.81648   0.00000  Uiso   1.00
Cl624  Cl    0.77556   0.27930   0.68250   0.00000  Uiso   1.00
Cl625  Cl    0.71082   0.06979   0.76814   0.00000  Uiso   1.00
Cl626  Cl    0.95570   0.26379   0.73255   0.00000  Uiso   1.00
Cl627  Cl    0.95584   0.06979   0.73186   0.00000  Uiso   1.00
Cl628  Cl    0.71097   0.26379   0.76745   0.00000  Uiso   1.00
Cu629  Cu    0.83333   0.21355   0.75000   0.00000  Uiso   1.00
Cu630  Cu    0.83333   0.11978   0.75000   0.00000  Uiso   1.00
H631   H     0.85519   0.23839   0.53176   0.00000  Uiso   1.00
H632   H     0.85530   0.09619   0.97071   0.00000  Uiso   1.00
H633   H     0.81148   0.23839   0.96824   0.00000  Uiso   1.00
H634   H     0.81137   0.09619   0.52929   0.00000  Uiso   1.00
H635   H     0.85424   0.23837   0.61208   0.00000  Uiso   1.00
H636   H     0.85380   0.09538   0.89055   0.00000  Uiso   1.00
H637   H     0.81242   0.23837   0.88792   0.00000  Uiso   1.00
H638   H     0.81287   0.09538   0.60944   0.00000  Uiso   1.00
N639   N     0.83333   0.28402   0.75000   0.00000  Uiso   1.00
N640   N     0.83333   0.04931   0.75000   0.00000  Uiso   1.00
O641   O     0.77321   0.20625   0.74999   0.00000  Uiso   1.00
O642   O     0.89345   0.12709   0.75000   0.00000  Uiso   1.00
O643   O     0.89345   0.20625   0.75000   0.00000  Uiso   1.00
O644   O     0.77321   0.12709   0.74999   0.00000  Uiso   1.00
O645   O     0.83333   0.20626   0.68573   0.00000  Uiso   1.00
O646   O     0.83334   0.12707   0.81427   0.00000  Uiso   1.00
O647   O     0.83334   0.20626   0.81427   0.00000  Uiso   1.00
O648   O     0.83333   0.12707   0.68573   0.00000  Uiso   1.00
C649   C     0.08752   0.50001   0.75280   0.00000  Uiso   1.00
C650   C     0.31230   0.54268   0.74593   0.00000  Uiso   1.00
C651   C     0.31233   0.45747   0.74581   0.00000  Uiso   1.00
C652   C     0.02103   0.54268   0.75407   0.00000  Uiso   1.00
C653   C     0.17851   0.54059   0.54834   0.00000  Uiso   1.00
C654   C     0.17855   0.46053   0.95303   0.00000  Uiso   1.00
C655   C     0.15482   0.54059   0.95166   0.00000  Uiso   1.00
C656   C     0.15478   0.46053   0.54697   0.00000  Uiso   1.00
C657   C     0.17824   0.54049   0.59423   0.00000  Uiso   1.00
C658   C     0.17804   0.46016   0.90716   0.00000  Uiso   1.00
C659   C     0.15509   0.54049   0.90577   0.00000  Uiso   1.00
C660   C     0.24581   0.50001   0.74720   0.00000  Uiso   1.00
C661   C     0.15529   0.46016   0.59284   0.00000  Uiso   1.00
C662   C     0.16676   0.50020   0.61676   0.00000  Uiso   1.00
C663   C     0.16657   0.50020   0.88324   0.00000  Uiso   1.00
C664   C     0.16662   0.50064   0.52429   0.00000  Uiso   1.00
C665   C     0.16671   0.50064   0.97571   0.00000  Uiso   1.00
C666   C     0.29055   0.50006   0.74494   0.00000  Uiso   1.00
C667   C     0.04279   0.50006   0.75506   0.00000  Uiso   1.00
C668   C     0.16667   0.50003   0.66501   0.00000  Uiso   1.00
C669   C     0.16667   0.50003   0.83499   0.00000  Uiso   1.00
C670   C     0.14144   0.35804   0.72115   0.00000  Uiso   1.00
C671   C     0.19173   0.64193   0.77902   0.00000  Uiso   1.00
C672   C     0.19189   0.35804   0.77885   0.00000  Uiso   1.00
C673   C     0.14161   0.64193   0.72098   0.00000  Uiso   1.00
C674   C     0.02101   0.45747   0.75419   0.00000  Uiso   1.00
Cl675  Cl    0.10795   0.38729   0.68352   0.00000  Uiso   1.00
Cl676  Cl    0.22444   0.61263   0.81749   0.00000  Uiso   1.00
Cl677  Cl    0.22539   0.38729   0.81648   0.00000  Uiso   1.00
Cl678  Cl    0.10890   0.61263   0.68250   0.00000  Uiso   1.00
Cl679  Cl    0.04416   0.40312   0.76814   0.00000  Uiso   1.00
Cl680  Cl    0.28903   0.59712   0.73255   0.00000  Uiso   1.00
Cl681  Cl    0.28917   0.40312   0.73186   0.00000  Uiso   1.00
Cl682  Cl    0.04430   0.59712   0.76745   0.00000  Uiso   1.00
Cu683  Cu    0.16667   0.54689   0.75000   0.00000  Uiso   1.00
Cu684  Cu    0.16667   0.45311   0.75000   0.00000  Uiso   1.00
H685   H     0.18852   0.57172   0.53176   0.00000  Uiso   1.00
H686   H     0.18863   0.42952   0.97071   0.00000  Uiso   1.00
H687   H     0.14481   0.57172   0.96824   0.00000  Uiso   1.00
H688   H     0.14470   0.42952   0.52929   0.00000  Uiso   1.00
H689   H     0.18758   0.57170   0.61208   0.00000  Uiso   1.00
H690   H     0.18713   0.42872   0.89055   0.00000  Uiso   1.00
H691   H     0.14576   0.57170   0.88792   0.00000  Uiso   1.00
H692   H     0.14620   0.42872   0.60944   0.00000  Uiso   1.00
N693   N     0.16667   0.61736   0.75000   0.00000  Uiso   1.00
N694   N     0.16667   0.38264   0.75000   0.00000  Uiso   1.00
O695   O     0.10655   0.53958   0.74999   0.00000  Uiso   1.00
O696   O     0.22679   0.46042   0.75000   0.00000  Uiso   1.00
O697   O     0.22679   0.53958   0.75000   0.00000  Uiso   1.00
O698   O     0.10655   0.46042   0.74999   0.00000  Uiso   1.00
O699   O     0.16666   0.53959   0.68573   0.00000  Uiso   1.00
O700   O     0.16667   0.46041   0.81427   0.00000  Uiso   1.00
O701   O     0.16667   0.53959   0.81427   0.00000  Uiso   1.00
O702   O     0.16666   0.46041   0.68573   0.00000  Uiso   1.00
C703   C     0.42086   0.50001   0.75280   0.00000  Uiso   1.00
C704   C     0.64564   0.54268   0.74593   0.00000  Uiso   1.00
C705   C     0.64566   0.45747   0.74581   0.00000  Uiso   1.00
C706   C     0.35436   0.54268   0.75407   0.00000  Uiso   1.00
C707   C     0.51184   0.54059   0.54834   0.00000  Uiso   1.00
C708   C     0.51189   0.46053   0.95303   0.00000  Uiso   1.00
C709   C     0.48815   0.54059   0.95166   0.00000  Uiso   1.00
C710   C     0.48811   0.46053   0.54697   0.00000  Uiso   1.00
C711   C     0.51158   0.54049   0.59423   0.00000  Uiso   1.00
C712   C     0.51138   0.46016   0.90716   0.00000  Uiso   1.00
C713   C     0.48842   0.54049   0.90577   0.00000  Uiso   1.00
C714   C     0.57914   0.50001   0.74720   0.00000  Uiso   1.00
C715   C     0.48862   0.46016   0.59284   0.00000  Uiso   1.00
C716   C     0.50010   0.50020   0.61676   0.00000  Uiso   1.00
C717   C     0.49990   0.50020   0.88324   0.00000  Uiso   1.00
C718   C     0.49995   0.50064   0.52429   0.00000  Uiso   1.00
C719   C     0.50005   0.50064   0.97571   0.00000  Uiso   1.00
C720   C     0.62388   0.50006   0.74494   0.00000  Uiso   1.00
C721   C     0.37612   0.50006   0.75506   0.00000  Uiso   1.00
C722   C     0.50000   0.50003   0.66501   0.00000  Uiso   1.00
C723   C     0.50000   0.50003   0.83499   0.00000  Uiso   1.00
C724   C     0.47478   0.35804   0.72115   0.00000  Uiso   1.00
C725   C     0.52506   0.64193   0.77902   0.00000  Uiso   1.00
C726   C     0.52522   0.35804   0.77885   0.00000  Uiso   1.00
C727   C     0.47494   0.64193   0.72098   0.00000  Uiso   1.00
C728   C     0.35434   0.45747   0.75419   0.00000  Uiso   1.00
Cl729  Cl    0.44128   0.38729   0.68352   0.00000  Uiso   1.00
Cl730  Cl    0.55777   0.61263   0.81749   0.00000  Uiso   1.00
Cl731  Cl    0.55872   0.38729   0.81648   0.00000  Uiso   1.00
Cl732  Cl    0.44223   0.61263   0.68250   0.00000  Uiso   1.00
Cl733  Cl    0.37749   0.40312   0.76814   0.00000  Uiso   1.00
Cl734  Cl    0.62236   0.59712   0.73255   0.00000  Uiso   1.00
Cl735  Cl    0.62251   0.40312   0.73186   0.00000  Uiso   1.00
Cl736  Cl    0.37763   0.59712   0.76745   0.00000  Uiso   1.00
Cu737  Cu    0.50000   0.54689   0.75000   0.00000  Uiso   1.00
Cu738  Cu    0.50000   0.45311   0.75000   0.00000  Uiso   1.00
H739   H     0.52186   0.57172   0.53176   0.00000  Uiso   1.00
H740   H     0.52196   0.42952   0.97071   0.00000  Uiso   1.00
H741   H     0.47814   0.57172   0.96824   0.00000  Uiso   1.00
H742   H     0.47804   0.42952   0.52929   0.00000  Uiso   1.00
H743   H     0.52091   0.57170   0.61208   0.00000  Uiso   1.00
H744   H     0.52047   0.42872   0.89055   0.00000  Uiso   1.00
H745   H     0.47909   0.57170   0.88792   0.00000  Uiso   1.00
H746   H     0.47953   0.42872   0.60944   0.00000  Uiso   1.00
N747   N     0.50000   0.61736   0.75000   0.00000  Uiso   1.00
N748   N     0.50000   0.38264   0.75000   0.00000  Uiso   1.00
O749   O     0.43988   0.53958   0.74999   0.00000  Uiso   1.00
O750   O     0.56012   0.46042   0.75000   0.00000  Uiso   1.00
O751   O     0.56012   0.53958   0.75000   0.00000  Uiso   1.00
O752   O     0.43988   0.46042   0.74999   0.00000  Uiso   1.00
O753   O     0.50000   0.53959   0.68573   0.00000  Uiso   1.00
O754   O     0.50000   0.46041   0.81427   0.00000  Uiso   1.00
O755   O     0.50000   0.53959   0.81427   0.00000  Uiso   1.00
O756   O     0.50000   0.46041   0.68573   0.00000  Uiso   1.00
C757   C     0.75419   0.50001   0.75280   0.00000  Uiso   1.00
C758   C     0.97897   0.54268   0.74593   0.00000  Uiso   1.00
C759   C     0.97899   0.45747   0.74581   0.00000  Uiso   1.00
C760   C     0.68770   0.54268   0.75407   0.00000  Uiso   1.00
C761   C     0.84518   0.54059   0.54834   0.00000  Uiso   1.00
C762   C     0.84522   0.46053   0.95303   0.00000  Uiso   1.00
C763   C     0.82149   0.54059   0.95166   0.00000  Uiso   1.00
C764   C     0.82145   0.46053   0.54697   0.00000  Uiso   1.00
C765   C     0.84491   0.54049   0.59423   0.00000  Uiso   1.00
C766   C     0.84471   0.46016   0.90716   0.00000  Uiso   1.00
C767   C     0.82176   0.54049   0.90577   0.00000  Uiso   1.00
C768   C     0.91248   0.50001   0.74720   0.00000  Uiso   1.00
C769   C     0.82196   0.46016   0.59284   0.00000  Uiso   1.00
C770   C     0.83343   0.50020   0.61676   0.00000  Uiso   1.00
C771   C     0.83324   0.50020   0.88324   0.00000  Uiso   1.00
C772   C     0.83329   0.50064   0.52429   0.00000  Uiso   1.00
C773   C     0.83338   0.50064   0.97571   0.00000  Uiso   1.00
C774   C     0.95721   0.50006   0.74494   0.00000  Uiso   1.00
C775   C     0.70945   0.50006   0.75506   0.00000  Uiso   1.00
C776   C     0.83333   0.50003   0.66501   0.00000  Uiso   1.00
C777   C     0.83333   0.50003   0.83499   0.00000  Uiso   1.00
C778   C     0.80811   0.35804   0.72115   0.00000  Uiso   1.00
C779   C     0.85839   0.64193   0.77902   0.00000  Uiso   1.00
C780   C     0.85856   0.35804   0.77885   0.00000  Uiso   1.00
C781   C     0.80827   0.64193   0.72098   0.00000  Uiso   1.00
C782   C     0.68767   0.45747   0.75419   0.00000  Uiso   1.00
Cl783  Cl    0.77461   0.38729   0.68352   0.00000  Uiso   1.00
Cl784  Cl    0.89110   0.61263   0.81749   0.00000  Uiso   1.00
Cl785  Cl    0.89205   0.38729   0.81648   0.00000  Uiso   1.00
Cl786  Cl    0.77556   0.61263   0.68250   0.00000  Uiso   1.00
Cl787  Cl    0.71082   0.40312   0.76814   0.00000  Uiso   1.00
Cl788  Cl    0.95570   0.59712   0.73255   0.00000  Uiso   1.00
Cl789  Cl    0.95584   0.40312   0.73186   0.00000  Uiso   1.00
Cl790  Cl    0.71097   0.59712   0.76745   0.00000  Uiso   1.00
Cu791  Cu    0.83333   0.54689   0.75000   0.00000  Uiso   1.00
Cu792  Cu    0.83333   0.45311   0.75000   0.00000  Uiso   1.00
H793   H     0.85519   0.57172   0.53176   0.00000  Uiso   1.00
H794   H     0.85530   0.42952   0.97071   0.00000  Uiso   1.00
H795   H     0.81148   0.57172   0.96824   0.00000  Uiso   1.00
H796   H     0.81137   0.42952   0.52929   0.00000  Uiso   1.00
H797   H     0.85424   0.57170   0.61208   0.00000  Uiso   1.00
H798   H     0.85380   0.42872   0.89055   0.00000  Uiso   1.00
H799   H     0.81242   0.57170   0.88792   0.00000  Uiso   1.00
H800   H     0.81287   0.42872   0.60944   0.00000  Uiso   1.00
N801   N     0.83333   0.61736   0.75000   0.00000  Uiso   1.00
N802   N     0.83333   0.38264   0.75000   0.00000  Uiso   1.00
O803   O     0.77321   0.53958   0.74999   0.00000  Uiso   1.00
O804   O     0.89345   0.46042   0.75000   0.00000  Uiso   1.00
O805   O     0.89345   0.53958   0.75000   0.00000  Uiso   1.00
O806   O     0.77321   0.46042   0.74999   0.00000  Uiso   1.00
O807   O     0.83333   0.53959   0.68573   0.00000  Uiso   1.00
O808   O     0.83334   0.46041   0.81427   0.00000  Uiso   1.00
O809   O     0.83334   0.53959   0.81427   0.00000  Uiso   1.00
O810   O     0.83333   0.46041   0.68573   0.00000  Uiso   1.00
C811   C     0.08752   0.83334   0.75280   0.00000  Uiso   1.00
C812   C     0.31230   0.87601   0.74593   0.00000  Uiso   1.00
C813   C     0.31233   0.79080   0.74581   0.00000  Uiso   1.00
C814   C     0.02103   0.87601   0.75407   0.00000  Uiso   1.00
C815   C     0.17851   0.87392   0.54834   0.00000  Uiso   1.00
C816   C     0.17855   0.79386   0.95303   0.00000  Uiso   1.00
C817   C     0.15482   0.87392   0.95166   0.00000  Uiso   1.00
C818   C     0.15478   0.79386   0.54697   0.00000  Uiso   1.00
C819   C     0.17824   0.87382   0.59423   0.00000  Uiso   1.00
C820   C     0.17804   0.79349   0.90716   0.00000  Uiso   1.00
C821   C     0.15509   0.87382   0.90577   0.00000  Uiso   1.00
C822   C     0.24581   0.83334   0.74720   0.00000  Uiso   1.00
C823   C     0.15529   0.79349   0.59284   0.00000  Uiso   1.00
C824   C     0.16676   0.83353   0.61676   0.00000  Uiso   1.00
C825   C     0.16657   0.83353   0.88324   0.00000  Uiso   1.00
C826   C     0.16662   0.83398   0.52429   0.00000  Uiso   1.00
C827   C     0.16671   0.83398   0.97571   0.00000  Uiso   1.00
C828   C     0.29055   0.83339   0.74494   0.00000  Uiso   1.00
C829   C     0.04279   0.83339   0.75506   0.00000  Uiso   1.00
C830   C     0.16667   0.83336   0.66501   0.00000  Uiso   1.00
C831   C     0.16667   0.83336   0.83499   0.00000  Uiso   1.00
C832   C     0.14144   0.69137   0.72115   0.00000  Uiso   1.00
C833   C     0.19173   0.97527   0.77902   0.00000  Uiso   1.00
C834   C     0.19189   0.69137   0.77885   0.00000  Uiso   1.00
C835   C     0.14161   0.97527   0.72098   0.00000  Uiso   1.00
C836   C     0.02101   0.79080   0.75419   0.00000  Uiso   1.00
Cl837  Cl    0.10795   0.72062   0.68352   0.00000  Uiso   1.00
Cl838  Cl    0.22444   0.94597   0.81749   0.00000  Uiso   1.00
Cl839  Cl    0.22539   0.72062   0.81648   0.00000  Uiso   1.00
Cl840  Cl    0.10890   0.94597   0.68250   0.00000  Uiso   1.00
Cl841  Cl    0.04416   0.73646   0.76814   0.00000  Uiso   1.00
Cl842  Cl    0.28903   0.93046   0.73255   0.00000  Uiso   1.00
Cl843  Cl    0.28917   0.73646   0.73186   0.00000  Uiso   1.00
Cl844  Cl    0.04430   0.93046   0.76745   0.00000  Uiso   1.00
Cu845  Cu    0.16667   0.88022   0.75000   0.00000  Uiso   1.00
Cu846  Cu    0.16667   0.78645   0.75000   0.00000  Uiso   1.00
H847   H     0.18852   0.90505   0.53176   0.00000  Uiso   1.00
H848   H     0.18863   0.76286   0.97071   0.00000  Uiso   1.00
H849   H     0.14481   0.90505   0.96824   0.00000  Uiso   1.00
H850   H     0.14470   0.76286   0.52929   0.00000  Uiso   1.00
H851   H     0.18758   0.90503   0.61208   0.00000  Uiso   1.00
H852   H     0.18713   0.76205   0.89055   0.00000  Uiso   1.00
H853   H     0.14576   0.90503   0.88792   0.00000  Uiso   1.00
H854   H     0.14620   0.76205   0.60944   0.00000  Uiso   1.00
N855   N     0.16667   0.95069   0.75000   0.00000  Uiso   1.00
N856   N     0.16667   0.71598   0.75000   0.00000  Uiso   1.00
O857   O     0.10655   0.87291   0.74999   0.00000  Uiso   1.00
O858   O     0.22679   0.79375   0.75000   0.00000  Uiso   1.00
O859   O     0.22679   0.87291   0.75000   0.00000  Uiso   1.00
O860   O     0.10655   0.79375   0.74999   0.00000  Uiso   1.00
O861   O     0.16666   0.87293   0.68573   0.00000  Uiso   1.00
O862   O     0.16667   0.79374   0.81427   0.00000  Uiso   1.00
O863   O     0.16667   0.87293   0.81427   0.00000  Uiso   1.00
O864   O     0.16666   0.79374   0.68573   0.00000  Uiso   1.00
C865   C     0.42086   0.83334   0.75280   0.00000  Uiso   1.00
C866   C     0.64564   0.87601   0.74593   0.00000  Uiso   1.00
C867   C     0.64566   0.79080   0.74581   0.00000  Uiso   1.00
C868   C     0.35436   0.87601   0.75407   0.00000  Uiso   1.00
C869   C     0.51184   0.87392   0.54834   0.00000  Uiso   1.00
C870   C     0.51189   0.79386   0.95303   0.00000  Uiso   1.00
C871   C     0.48815   0.87392   0.95166   0.00000  Uiso   1.00
C872   C     0.48811   0.79386   0.54697   0.00000  Uiso   1.00
C873   C     0.51158   0.87382   0.59423   0.00000  Uiso   1.00
C874   C     0.51138   0.79349   0.90716   0.00000  Uiso   1.00
C875   C     0.48842   0.87382   0.90577   0.00000  Uiso   1.00
C876   C     0.57914   0.83334   0.74720   0.00000  Uiso   1.00
C877   C     0.48862   0.79349   0.59284   0.00000  Uiso   1.00
C878   C     0.50010   0.83353   0.61676   0.00000  Uiso   1.00
C879   C     0.49990   0.83353   0.88324   0.00000  Uiso   1.00
C880   C     0.49995   0.83398   0.52429   0.00000  Uiso   1.00
C881   C     0.50005   0.83398   0.97571   0.00000  Uiso   1.00
C882   C     0.62388   0.83339   0.74494   0.00000  Uiso   1.00
C883   C     0.37612   0.83339   0.75506   0.00000  Uiso   1.00
C884   C     0.50000   0.83336   0.66501   0.00000  Uiso   1.00
C885   C     0.50000   0.83336   0.83499   0.00000  Uiso   1.00
C886   C     0.47478   0.69137   0.72115   0.00000  Uiso   1.00
C887   C     0.52506   0.97527   0.77902   0.00000  Uiso   1.00
C888   C     0.52522   0.69137   0.77885   0.00000  Uiso   1.00
C889   C     0.47494   0.97527   0.72098   0.00000  Uiso   1.00
C890   C     0.35434   0.79080   0.75419   0.00000  Uiso   1.00
Cl891  Cl    0.44128   0.72062   0.68352   0.00000  Uiso   1.00
Cl892  Cl    0.55777   0.94597   0.81749   0.00000  Uiso   1.00
Cl893  Cl    0.55872   0.72062   0.81648   0.00000  Uiso   1.00
Cl894  Cl    0.44223   0.94597   0.68250   0.00000  Uiso   1.00
Cl895  Cl    0.37749   0.73646   0.76814   0.00000  Uiso   1.00
Cl896  Cl    0.62236   0.93046   0.73255   0.00000  Uiso   1.00
Cl897  Cl    0.62251   0.73646   0.73186   0.00000  Uiso   1.00
Cl898  Cl    0.37763   0.93046   0.76745   0.00000  Uiso   1.00
Cu899  Cu    0.50000   0.88022   0.75000   0.00000  Uiso   1.00
Cu900  Cu    0.50000   0.78645   0.75000   0.00000  Uiso   1.00
H901   H     0.52186   0.90505   0.53176   0.00000  Uiso   1.00
H902   H     0.52196   0.76286   0.97071   0.00000  Uiso   1.00
H903   H     0.47814   0.90505   0.96824   0.00000  Uiso   1.00
H904   H     0.47804   0.76286   0.52929   0.00000  Uiso   1.00
H905   H     0.52091   0.90503   0.61208   0.00000  Uiso   1.00
H906   H     0.52047   0.76205   0.89055   0.00000  Uiso   1.00
H907   H     0.47909   0.90503   0.88792   0.00000  Uiso   1.00
H908   H     0.47953   0.76205   0.60944   0.00000  Uiso   1.00
N909   N     0.50000   0.95069   0.75000   0.00000  Uiso   1.00
N910   N     0.50000   0.71598   0.75000   0.00000  Uiso   1.00
O911   O     0.43988   0.87291   0.74999   0.00000  Uiso   1.00
O912   O     0.56012   0.79375   0.75000   0.00000  Uiso   1.00
O913   O     0.56012   0.87291   0.75000   0.00000  Uiso   1.00
O914   O     0.43988   0.79375   0.74999   0.00000  Uiso   1.00
O915   O     0.50000   0.87293   0.68573   0.00000  Uiso   1.00
O916   O     0.50000   0.79374   0.81427   0.00000  Uiso   1.00
O917   O     0.50000   0.87293   0.81427   0.00000  Uiso   1.00
O918   O     0.50000   0.79374   0.68573   0.00000  Uiso   1.00
C919   C     0.75419   0.83334   0.75280   0.00000  Uiso   1.00
C920   C     0.97897   0.87601   0.74593   0.00000  Uiso   1.00
C921   C     0.97899   0.79080   0.74581   0.00000  Uiso   1.00
C922   C     0.68770   0.87601   0.75407   0.00000  Uiso   1.00
C923   C     0.84518   0.87392   0.54834   0.00000  Uiso   1.00
C924   C     0.84522   0.79386   0.95303   0.00000  Uiso   1.00
C925   C     0.82149   0.87392   0.95166   0.00000  Uiso   1.00
C926   C     0.82145   0.79386   0.54697   0.00000  Uiso   1.00
C927   C     0.84491   0.87382   0.59423   0.00000  Uiso   1.00
C928   C     0.84471   0.79349   0.90716   0.00000  Uiso   1.00
C929   C     0.82176   0.87382   0.90577   0.00000  Uiso   1.00
C930   C     0.91248   0.83334   0.74720   0.00000  Uiso   1.00
C931   C     0.82196   0.79349   0.59284   0.00000  Uiso   1.00
C932   C     0.83343   0.83353   0.61676   0.00000  Uiso   1.00
C933   C     0.83324   0.83353   0.88324   0.00000  Uiso   1.00
C934   C     0.83329   0.83398   0.52429   0.00000  Uiso   1.00
C935   C     0.83338   0.83398   0.97571   0.00000  Uiso   1.00
C936   C     0.95721   0.83339   0.74494   0.00000  Uiso   1.00
C937   C     0.70945   0.83339   0.75506   0.00000  Uiso   1.00
C938   C     0.83333   0.83336   0.66501   0.00000  Uiso   1.00
C939   C     0.83333   0.83336   0.83499   0.00000  Uiso   1.00
C940   C     0.80811   0.69137   0.72115   0.00000  Uiso   1.00
C941   C     0.85839   0.97527   0.77902   0.00000  Uiso   1.00
C942   C     0.85856   0.69137   0.77885   0.00000  Uiso   1.00
C943   C     0.80827   0.97527   0.72098   0.00000  Uiso   1.00
C944   C     0.68767   0.79080   0.75419   0.00000  Uiso   1.00
Cl945  Cl    0.77461   0.72062   0.68352   0.00000  Uiso   1.00
Cl946  Cl    0.89110   0.94597   0.81749   0.00000  Uiso   1.00
Cl947  Cl    0.89205   0.72062   0.81648   0.00000  Uiso   1.00
Cl948  Cl    0.77556   0.94597   0.68250   0.00000  Uiso   1.00
Cl949  Cl    0.71082   0.73646   0.76814   0.00000  Uiso   1.00
Cl950  Cl    0.95570   0.93046   0.73255   0.00000  Uiso   1.00
Cl951  Cl    0.95584   0.73646   0.73186   0.00000  Uiso   1.00
Cl952  Cl    0.71097   0.93046   0.76745   0.00000  Uiso   1.00
Cu953  Cu    0.83333   0.88022   0.75000   0.00000  Uiso   1.00
Cu954  Cu    0.83333   0.78645   0.75000   0.00000  Uiso   1.00
H955   H     0.85519   0.90505   0.53176   0.00000  Uiso   1.00
H956   H     0.85530   0.76286   0.97071   0.00000  Uiso   1.00
H957   H     0.81148   0.90505   0.96824   0.00000  Uiso   1.00
H958   H     0.81137   0.76286   0.52929   0.00000  Uiso   1.00
H959   H     0.85424   0.90503   0.61208   0.00000  Uiso   1.00
H960   H     0.85380   0.76205   0.89055   0.00000  Uiso   1.00
H961   H     0.81242   0.90503   0.88792   0.00000  Uiso   1.00
H962   H     0.81287   0.76205   0.60944   0.00000  Uiso   1.00
N963   N     0.83333   0.95069   0.75000   0.00000  Uiso   1.00
N964   N     0.83333   0.71598   0.75000   0.00000  Uiso   1.00
O965   O     0.77321   0.87291   0.74999   0.00000  Uiso   1.00
O966   O     0.89345   0.79375   0.75000   0.00000  Uiso   1.00
O967   O     0.89345   0.87291   0.75000   0.00000  Uiso   1.00
O968   O     0.77321   0.79375   0.74999   0.00000  Uiso   1.00
O969   O     0.83333   0.87293   0.68573   0.00000  Uiso   1.00
O970   O     0.83334   0.79374   0.81427   0.00000  Uiso   1.00
O971   O     0.83334   0.87293   0.81427   0.00000  Uiso   1.00
O972   O     0.83333   0.79374   0.68573   0.00000  Uiso   1.00
loop_
_geom_bond_atom_site_label_1
_geom_bond_atom_site_label_2
_geom_bond_distance
_geom_bond_site_symmetry_2
_ccdc_geom_bond_type
C1     O50     1.301   .     A
C1     C19     1.473   .     S
C1     O47     1.300   .     A
C2     Cl32    1.778   .     S
C2     C18     1.416   .     A
C2     C58     1.392   .     S
C3     Cl33    1.778   .     S
C3     C18     1.415   .     A
C3     C80     1.391   .     S
C4     Cl34    1.778   .     S
C4     C19     1.416   .     A
C4     C110    1.392   1_455 S
C5     H37     1.083   .     S
C5     C9      1.391   .     A
C5     C16     1.404   .     A
C6     C10     1.389   .     A
C6     H38     1.083   .     S
C6     C17     1.404   .     A
C7     C11     1.391   .     A
C7     H39     1.083   .     S
C7     C17     1.404   .     A
C8     C13     1.389   .     A
C8     C16     1.404   .     A
C8     H40     1.083   .     S
C9     C14     1.402   .     A
C9     H41     1.083   .     S
C10    C15     1.401   .     A
C10    H42     1.081   .     S
C11    H43     1.083   .     S
C11    C15     1.402   .     A
C12    O48     1.301   .     A
C12    O49     1.300   .     A
C12    C18     1.473   .     S
C13    C14     1.401   .     A
C13    H44     1.081   .     S
C14    C20     1.462   .     S
C15    C21     1.462   .     S
C16    C503    1.472   1_554 S
C17    C502    1.472   .     S
C19    C26     1.415   .     A
C20    O51     1.297   .     A
C20    O54     1.299   .     A
C21    O53     1.297   .     A
C21    O52     1.299   .     A
C22    N46     1.373   .     A
C22    Cl27    1.762   .     S
C22    C349    1.419   1_545 S
C23    N45     1.373   .     A
C23    Cl28    1.763   .     S
C23    C186    1.419   .     S
C24    N46     1.373   .     A
C24    Cl29    1.762   .     S
C24    C347    1.419   1_545 S
C25    N45     1.373   .     A
C25    Cl30    1.763   .     S
C25    C184    1.419   .     S
C26    Cl31    1.778   .     S
C26    C111    1.391   1_455 S
Cu35   O49     1.985   .     S
Cu35   O53     1.958   .     S
Cu35   Cu36    2.691   .     S
Cu35   O47     1.985   .     S
Cu35   O51     1.958   .     S
Cu35   N45     2.022   .     S
Cu36   O52     1.958   .     S
Cu36   N46     2.022   .     S
Cu36   O48     1.985   .     S
Cu36   O54     1.958   .     S
Cu36   O50     1.985   .     S
C55    O104    1.301   .     A
C55    C73     1.473   .     S
C55    O101    1.300   .     A
C56    Cl86    1.778   .     S
C56    C72     1.416   .     A
C56    C112    1.392   .     S
C57    Cl87    1.778   .     S
C57    C72     1.415   .     A
C57    C134    1.391   .     S
C58    Cl88    1.778   .     S
C58    C73     1.416   .     A
C59    H91     1.083   .     S
C59    C63     1.391   .     A
C59    C70     1.404   .     A
C60    C64     1.389   .     A
C60    H92     1.083   .     S
C60    C71     1.404   .     A
C61    C65     1.391   .     A
C61    H93     1.083   .     S
C61    C71     1.404   .     A
C62    C67     1.389   .     A
C62    C70     1.404   .     A
C62    H94     1.083   .     S
C63    C68     1.402   .     A
C63    H95     1.083   .     S
C64    C69     1.401   .     A
C64    H96     1.081   .     S
C65    H97     1.083   .     S
C65    C69     1.402   .     A
C66    O102    1.301   .     A
C66    O103    1.300   .     A
C66    C72     1.473   .     S
C67    C68     1.401   .     A
C67    H98     1.081   .     S
C68    C74     1.462   .     S
C69    C75     1.462   .     S
C70    C557    1.472   1_554 S
C71    C556    1.472   .     S
C73    C80     1.415   .     A
C74    O105    1.297   .     A
C74    O108    1.299   .     A
C75    O107    1.297   .     A
C75    O106    1.299   .     A
C76    N100    1.373   .     A
C76    Cl81    1.762   .     S
C76    C403    1.419   1_545 S
C77    N99     1.373   .     A
C77    Cl82    1.763   .     S
C77    C240    1.419   .     S
C78    N100    1.373   .     A
C78    Cl83    1.762   .     S
C78    C401    1.419   1_545 S
C79    N99     1.373   .     A
C79    Cl84    1.763   .     S
C79    C238    1.419   .     S
C80    Cl85    1.778   .     S
Cu89   O103    1.985   .     S
Cu89   O107    1.958   .     S
Cu89   Cu90    2.691   .     S
Cu89   O101    1.985   .     S
Cu89   O105    1.958   .     S
Cu89   N99     2.022   .     S
Cu90   O106    1.958   .     S
Cu90   N100    2.022   .     S
Cu90   O102    1.985   .     S
Cu90   O108    1.958   .     S
Cu90   O104    1.985   .     S
C109   O158    1.301   .     A
C109   C127    1.473   .     S
C109   O155    1.300   .     A
C110   Cl140   1.778   .     S
C110   C126    1.416   .     A
C110   C4      1.392   1_655 S
C111   Cl141   1.778   .     S
C111   C126    1.415   .     A
C111   C26     1.391   1_655 S
C112   Cl142   1.778   .     S
C112   C127    1.416   .     A
C113   H145    1.083   .     S
C113   C117    1.391   .     A
C113   C124    1.404   .     A
C114   C118    1.389   .     A
C114   H146    1.083   .     S
C114   C125    1.404   .     A
C115   C119    1.391   .     A
C115   H147    1.083   .     S
C115   C125    1.404   .     A
C116   C121    1.389   .     A
C116   C124    1.404   .     A
C116   H148    1.083   .     S
C117   C122    1.402   .     A
C117   H149    1.083   .     S
C118   C123    1.401   .     A
C118   H150    1.081   .     S
C119   H151    1.083   .     S
C119   C123    1.402   .     A
C120   O156    1.301   .     A
C120   O157    1.300   .     A
C120   C126    1.473   .     S
C121   C122    1.401   .     A
C121   H152    1.081   .     S
C122   C128    1.462   .     S
C123   C129    1.462   .     S
C124   C611    1.472   1_554 S
C125   C610    1.472   .     S
C127   C134    1.415   .     A
C128   O159    1.297   .     A
C128   O162    1.299   .     A
C129   O161    1.297   .     A
C129   O160    1.299   .     A
C130   N154    1.373   .     A
C130   Cl135   1.762   .     S
C130   C457    1.419   1_545 S
C131   N153    1.373   .     A
C131   Cl136   1.763   .     S
C131   C294    1.419   .     S
C132   N154    1.373   .     A
C132   Cl137   1.762   .     S
C132   C455    1.419   1_545 S
C133   N153    1.373   .     A
C133   Cl138   1.763   .     S
C133   C292    1.419   .     S
C134   Cl139   1.778   .     S
Cu143  O157    1.985   .     S
Cu143  O161    1.958   .     S
Cu143  Cu144   2.691   .     S
Cu143  O155    1.985   .     S
Cu143  O159    1.958   .     S
Cu143  N153    2.022   .     S
Cu144  O160    1.958   .     S
Cu144  N154    2.022   .     S
Cu144  O156    1.985   .     S
Cu144  O162    1.958   .     S
Cu144  O158    1.985   .     S
C163   O212    1.301   .     A
C163   C181    1.473   .     S
C163   O209    1.300   .     A
C164   Cl194   1.778   .     S
C164   C180    1.416   .     A
C164   C220    1.392   .     S
C165   Cl195   1.778   .     S
C165   C180    1.415   .     A
C165   C242    1.391   .     S
C166   Cl196   1.778   .     S
C166   C181    1.416   .     A
C166   C272    1.392   1_455 S
C167   H199    1.083   .     S
C167   C171    1.391   .     A
C167   C178    1.404   .     A
C168   C172    1.389   .     A
C168   H200    1.083   .     S
C168   C179    1.404   .     A
C169   C173    1.391   .     A
C169   H201    1.083   .     S
C169   C179    1.404   .     A
C170   C175    1.389   .     A
C170   C178    1.404   .     A
C170   H202    1.083   .     S
C171   C176    1.402   .     A
C171   H203    1.083   .     S
C172   C177    1.401   .     A
C172   H204    1.081   .     S
C173   H205    1.083   .     S
C173   C177    1.402   .     A
C174   O210    1.301   .     A
C174   O211    1.300   .     A
C174   C180    1.473   .     S
C175   C176    1.401   .     A
C175   H206    1.081   .     S
C176   C182    1.462   .     S
C177   C183    1.462   .     S
C178   C665    1.472   1_554 S
C179   C664    1.472   .     S
C181   C188    1.415   .     A
C182   O213    1.297   .     A
C182   O216    1.299   .     A
C183   O215    1.297   .     A
C183   O214    1.299   .     A
C184   N208    1.373   .     A
C184   Cl189   1.762   .     S
C185   N207    1.373   .     A
C185   Cl190   1.763   .     S
C185   C348    1.419   .     S
C186   N208    1.373   .     A
C186   Cl191   1.762   .     S
C187   N207    1.373   .     A
C187   Cl192   1.763   .     S
C187   C346    1.419   .     S
C188   Cl193   1.778   .     S
C188   C273    1.391   1_455 S
Cu197  O211    1.985   .     S
Cu197  O215    1.958   .     S
Cu197  Cu198   2.691   .     S
Cu197  O209    1.985   .     S
Cu197  O213    1.958   .     S
Cu197  N207    2.022   .     S
Cu198  O214    1.958   .     S
Cu198  N208    2.022   .     S
Cu198  O210    1.985   .     S
Cu198  O216    1.958   .     S
Cu198  O212    1.985   .     S
C217   O266    1.301   .     A
C217   C235    1.473   .     S
C217   O263    1.300   .     A
C218   Cl248   1.778   .     S
C218   C234    1.416   .     A
C218   C274    1.392   .     S
C219   Cl249   1.778   .     S
C219   C234    1.415   .     A
C219   C296    1.391   .     S
C220   Cl250   1.778   .     S
C220   C235    1.416   .     A
C221   H253    1.083   .     S
C221   C225    1.391   .     A
C221   C232    1.404   .     A
C222   C226    1.389   .     A
C222   H254    1.083   .     S
C222   C233    1.404   .     A
C223   C227    1.391   .     A
C223   H255    1.083   .     S
C223   C233    1.404   .     A
C224   C229    1.389   .     A
C224   C232    1.404   .     A
C224   H256    1.083   .     S
C225   C230    1.402   .     A
C225   H257    1.083   .     S
C226   C231    1.401   .     A
C226   H258    1.081   .     S
C227   H259    1.083   .     S
C227   C231    1.402   .     A
C228   O264    1.301   .     A
C228   O265    1.300   .     A
C228   C234    1.473   .     S
C229   C230    1.401   .     A
C229   H260    1.081   .     S
C230   C236    1.462   .     S
C231   C237    1.462   .     S
C232   C719    1.472   1_554 S
C233   C718    1.472   .     S
C235   C242    1.415   .     A
C236   O267    1.297   .     A
C236   O270    1.299   .     A
C237   O269    1.297   .     A
C237   O268    1.299   .     A
C238   N262    1.373   .     A
C238   Cl243   1.762   .     S
C239   N261    1.373   .     A
C239   Cl244   1.763   .     S
C239   C402    1.419   .     S
C240   N262    1.373   .     A
C240   Cl245   1.762   .     S
C241   N261    1.373   .     A
C241   Cl246   1.763   .     S
C241   C400    1.419   .     S
C242   Cl247   1.778   .     S
Cu251  O265    1.985   .     S
Cu251  O269    1.958   .     S
Cu251  Cu252   2.691   .     S
Cu251  O263    1.985   .     S
Cu251  O267    1.958   .     S
Cu251  N261    2.022   .     S
Cu252  O268    1.958   .     S
Cu252  N262    2.022   .     S
Cu252  O264    1.985   .     S
Cu252  O270    1.958   .     S
Cu252  O266    1.985   .     S
C271   O320    1.301   .     A
C271   C289    1.473   .     S
C271   O317    1.300   .     A
C272   Cl302   1.778   .     S
C272   C288    1.416   .     A
C272   C166    1.392   1_655 S
C273   Cl303   1.778   .     S
C273   C288    1.415   .     A
C273   C188    1.391   1_655 S
C274   Cl304   1.778   .     S
C274   C289    1.416   .     A
C275   H307    1.083   .     S
C275   C279    1.391   .     A
C275   C286    1.404   .     A
C276   C280    1.389   .     A
C276   H308    1.083   .     S
C276   C287    1.404   .     A
C277   C281    1.391   .     A
C277   H309    1.083   .     S
C277   C287    1.404   .     A
C278   C283    1.389   .     A
C278   C286    1.404   .     A
C278   H310    1.083   .     S
C279   C284    1.402   .     A
C279   H311    1.083   .     S
C280   C285    1.401   .     A
C280   H312    1.081   .     S
C281   H313    1.083   .     S
C281   C285    1.402   .     A
C282   O318    1.301   .     A
C282   O319    1.300   .     A
C282   C288    1.473   .     S
C283   C284    1.401   .     A
C283   H314    1.081   .     S
C284   C290    1.462   .     S
C285   C291    1.462   .     S
C286   C773    1.472   1_554 S
C287   C772    1.472   .     S
C289   C296    1.415   .     A
C290   O321    1.297   .     A
C290   O324    1.299   .     A
C291   O323    1.297   .     A
C291   O322    1.299   .     A
C292   N316    1.373   .     A
C292   Cl297   1.762   .     S
C293   N315    1.373   .     A
C293   Cl298   1.763   .     S
C293   C456    1.419   .     S
C294   N316    1.373   .     A
C294   Cl299   1.762   .     S
C295   N315    1.373   .     A
C295   Cl300   1.763   .     S
C295   C454    1.419   .     S
C296   Cl301   1.778   .     S
Cu305  O319    1.985   .     S
Cu305  O323    1.958   .     S
Cu305  Cu306   2.691   .     S
Cu305  O317    1.985   .     S
Cu305  O321    1.958   .     S
Cu305  N315    2.022   .     S
Cu306  O322    1.958   .     S
Cu306  N316    2.022   .     S
Cu306  O318    1.985   .     S
Cu306  O324    1.958   .     S
Cu306  O320    1.985   .     S
C325   O374    1.301   .     A
C325   C343    1.473   .     S
C325   O371    1.300   .     A
C326   Cl356   1.778   .     S
C326   C342    1.416   .     A
C326   C382    1.392   .     S
C327   Cl357   1.778   .     S
C327   C342    1.415   .     A
C327   C404    1.391   .     S
C328   Cl358   1.778   .     S
C328   C343    1.416   .     A
C328   C434    1.392   1_455 S
C329   H361    1.083   .     S
C329   C333    1.391   .     A
C329   C340    1.404   .     A
C330   C334    1.389   .     A
C330   H362    1.083   .     S
C330   C341    1.404   .     A
C331   C335    1.391   .     A
C331   H363    1.083   .     S
C331   C341    1.404   .     A
C332   C337    1.389   .     A
C332   C340    1.404   .     A
C332   H364    1.083   .     S
C333   C338    1.402   .     A
C333   H365    1.083   .     S
C334   C339    1.401   .     A
C334   H366    1.081   .     S
C335   H367    1.083   .     S
C335   C339    1.402   .     A
C336   O372    1.301   .     A
C336   O373    1.300   .     A
C336   C342    1.473   .     S
C337   C338    1.401   .     A
C337   H368    1.081   .     S
C338   C344    1.462   .     S
C339   C345    1.462   .     S
C340   C827    1.472   1_554 S
C341   C826    1.472   .     S
C343   C350    1.415   .     A
C344   O375    1.297   .     A
C344   O378    1.299   .     A
C345   O377    1.297   .     A
C345   O376    1.299   .     A
C346   N370    1.373   .     A
C346   Cl351   1.762   .     S
C347   N369    1.373   .     A
C347   Cl352   1.763   .     S
C347   C24     1.419   1_565 S
C348   N370    1.373   .     A
C348   Cl353   1.762   .     S
C349   N369    1.373   .     A
C349   Cl354   1.763   .     S
C349   C22     1.419   1_565 S
C350   Cl355   1.778   .     S
C350   C435    1.391   1_455 S
Cu359  O373    1.985   .     S
Cu359  O377    1.958   .     S
Cu359  Cu360   2.691   .     S
Cu359  O371    1.985   .     S
Cu359  O375    1.958   .     S
Cu359  N369    2.022   .     S
Cu360  O376    1.958   .     S
Cu360  N370    2.022   .     S
Cu360  O372    1.985   .     S
Cu360  O378    1.958   .     S
Cu360  O374    1.985   .     S
C379   O428    1.301   .     A
C379   C397    1.473   .     S
C379   O425    1.300   .     A
C380   Cl410   1.778   .     S
C380   C396    1.416   .     A
C380   C436    1.392   .     S
C381   Cl411   1.778   .     S
C381   C396    1.415   .     A
C381   C458    1.391   .     S
C382   Cl412   1.778   .     S
C382   C397    1.416   .     A
C383   H415    1.083   .     S
C383   C387    1.391   .     A
C383   C394    1.404   .     A
C384   C388    1.389   .     A
C384   H416    1.083   .     S
C384   C395    1.404   .     A
C385   C389    1.391   .     A
C385   H417    1.083   .     S
C385   C395    1.404   .     A
C386   C391    1.389   .     A
C386   C394    1.404   .     A
C386   H418    1.083   .     S
C387   C392    1.402   .     A
C387   H419    1.083   .     S
C388   C393    1.401   .     A
C388   H420    1.081   .     S
C389   H421    1.083   .     S
C389   C393    1.402   .     A
C390   O426    1.301   .     A
C390   O427    1.300   .     A
C390   C396    1.473   .     S
C391   C392    1.401   .     A
C391   H422    1.081   .     S
C392   C398    1.462   .     S
C393   C399    1.462   .     S
C394   C881    1.472   1_554 S
C395   C880    1.472   .     S
C397   C404    1.415   .     A
C398   O429    1.297   .     A
C398   O432    1.299   .     A
C399   O431    1.297   .     A
C399   O430    1.299   .     A
C400   N424    1.373   .     A
C400   Cl405   1.762   .     S
C401   N423    1.373   .     A
C401   Cl406   1.763   .     S
C401   C78     1.419   1_565 S
C402   N424    1.373   .     A
C402   Cl407   1.762   .     S
C403   N423    1.373   .     A
C403   Cl408   1.763   .     S
C403   C76     1.419   1_565 S
C404   Cl409   1.778   .     S
Cu413  O427    1.985   .     S
Cu413  O431    1.958   .     S
Cu413  Cu414   2.691   .     S
Cu413  O425    1.985   .     S
Cu413  O429    1.958   .     S
Cu413  N423    2.022   .     S
Cu414  O430    1.958   .     S
Cu414  N424    2.022   .     S
Cu414  O426    1.985   .     S
Cu414  O432    1.958   .     S
Cu414  O428    1.985   .     S
C433   O482    1.301   .     A
C433   C451    1.473   .     S
C433   O479    1.300   .     A
C434   Cl464   1.778   .     S
C434   C450    1.416   .     A
C434   C328    1.392   1_655 S
C435   Cl465   1.778   .     S
C435   C450    1.415   .     A
C435   C350    1.391   1_655 S
C436   Cl466   1.778   .     S
C436   C451    1.416   .     A
C437   H469    1.083   .     S
C437   C441    1.391   .     A
C437   C448    1.404   .     A
C438   C442    1.389   .     A
C438   H470    1.083   .     S
C438   C449    1.404   .     A
C439   C443    1.391   .     A
C439   H471    1.083   .     S
C439   C449    1.404   .     A
C440   C445    1.389   .     A
C440   C448    1.404   .     A
C440   H472    1.083   .     S
C441   C446    1.402   .     A
C441   H473    1.083   .     S
C442   C447    1.401   .     A
C442   H474    1.081   .     S
C443   H475    1.083   .     S
C443   C447    1.402   .     A
C444   O480    1.301   .     A
C444   O481    1.300   .     A
C444   C450    1.473   .     S
C445   C446    1.401   .     A
C445   H476    1.081   .     S
C446   C452    1.462   .     S
C447   C453    1.462   .     S
C448   C935    1.472   1_554 S
C449   C934    1.472   .     S
C451   C458    1.415   .     A
C452   O483    1.297   .     A
C452   O486    1.299   .     A
C453   O485    1.297   .     A
C453   O484    1.299   .     A
C454   N478    1.373   .     A
C454   Cl459   1.762   .     S
C455   N477    1.373   .     A
C455   Cl460   1.763   .     S
C455   C132    1.419   1_565 S
C456   N478    1.373   .     A
C456   Cl461   1.762   .     S
C457   N477    1.373   .     A
C457   Cl462   1.763   .     S
C457   C130    1.419   1_565 S
C458   Cl463   1.778   .     S
Cu467  O481    1.985   .     S
Cu467  O485    1.958   .     S
Cu467  Cu468   2.691   .     S
Cu467  O479    1.985   .     S
Cu467  O483    1.958   .     S
Cu467  N477    2.022   .     S
Cu468  O484    1.958   .     S
Cu468  N478    2.022   .     S
Cu468  O480    1.985   .     S
Cu468  O486    1.958   .     S
Cu468  O482    1.985   .     S
C487   O536    1.301   .     A
C487   C505    1.473   .     S
C487   O533    1.300   .     A
C488   Cl518   1.778   .     S
C488   C504    1.416   .     A
C488   C544    1.392   .     S
C489   Cl519   1.778   .     S
C489   C504    1.415   .     A
C489   C566    1.391   .     S
C490   Cl520   1.778   .     S
C490   C505    1.416   .     A
C490   C596    1.392   1_455 S
C491   H523    1.083   .     S
C491   C495    1.391   .     A
C491   C502    1.404   .     A
C492   C496    1.389   .     A
C492   H524    1.083   .     S
C492   C503    1.404   .     A
C493   C497    1.391   .     A
C493   H525    1.083   .     S
C493   C503    1.404   .     A
C494   C499    1.389   .     A
C494   C502    1.404   .     A
C494   H526    1.083   .     S
C495   C500    1.402   .     A
C495   H527    1.083   .     S
C496   C501    1.401   .     A
C496   H528    1.081   .     S
C497   H529    1.083   .     S
C497   C501    1.402   .     A
C498   O534    1.301   .     A
C498   O535    1.300   .     A
C498   C504    1.473   .     S
C499   C500    1.401   .     A
C499   H530    1.081   .     S
C500   C506    1.462   .     S
C501   C507    1.462   .     S
C503   C16     1.472   1_556 S
C505   C512    1.415   .     A
C506   O537    1.297   .     A
C506   O540    1.299   .     A
C507   O539    1.297   .     A
C507   O538    1.299   .     A
C508   N532    1.373   .     A
C508   Cl513   1.762   .     S
C508   C835    1.419   1_545 S
C509   N531    1.373   .     A
C509   Cl514   1.763   .     S
C509   C672    1.419   .     S
C510   N532    1.373   .     A
C510   Cl515   1.762   .     S
C510   C833    1.419   1_545 S
C511   N531    1.373   .     A
C511   Cl516   1.763   .     S
C511   C670    1.419   .     S
C512   Cl517   1.778   .     S
C512   C597    1.391   1_455 S
Cu521  O535    1.985   .     S
Cu521  O539    1.958   .     S
Cu521  Cu522   2.691   .     S
Cu521  O533    1.985   .     S
Cu521  O537    1.958   .     S
Cu521  N531    2.022   .     S
Cu522  O538    1.958   .     S
Cu522  N532    2.022   .     S
Cu522  O534    1.985   .     S
Cu522  O540    1.958   .     S
Cu522  O536    1.985   .     S
C541   O590    1.301   .     A
C541   C559    1.473   .     S
C541   O587    1.300   .     A
C542   Cl572   1.778   .     S
C542   C558    1.416   .     A
C542   C598    1.392   .     S
C543   Cl573   1.778   .     S
C543   C558    1.415   .     A
C543   C620    1.391   .     S
C544   Cl574   1.778   .     S
C544   C559    1.416   .     A
C545   H577    1.083   .     S
C545   C549    1.391   .     A
C545   C556    1.404   .     A
C546   C550    1.389   .     A
C546   H578    1.083   .     S
C546   C557    1.404   .     A
C547   C551    1.391   .     A
C547   H579    1.083   .     S
C547   C557    1.404   .     A
C548   C553    1.389   .     A
C548   C556    1.404   .     A
C548   H580    1.083   .     S
C549   C554    1.402   .     A
C549   H581    1.083   .     S
C550   C555    1.401   .     A
C550   H582    1.081   .     S
C551   H583    1.083   .     S
C551   C555    1.402   .     A
C552   O588    1.301   .     A
C552   O589    1.300   .     A
C552   C558    1.473   .     S
C553   C554    1.401   .     A
C553   H584    1.081   .     S
C554   C560    1.462   .     S
C555   C561    1.462   .     S
C557   C70     1.472   1_556 S
C559   C566    1.415   .     A
C560   O591    1.297   .     A
C560   O594    1.299   .     A
C561   O593    1.297   .     A
C561   O592    1.299   .     A
C562   N586    1.373   .     A
C562   Cl567   1.762   .     S
C562   C889    1.419   1_545 S
C563   N585    1.373   .     A
C563   Cl568   1.763   .     S
C563   C726    1.419   .     S
C564   N586    1.373   .     A
C564   Cl569   1.762   .     S
C564   C887    1.419   1_545 S
C565   N585    1.373   .     A
C565   Cl570   1.763   .     S
C565   C724    1.419   .     S
C566   Cl571   1.778   .     S
Cu575  O589    1.985   .     S
Cu575  O593    1.958   .     S
Cu575  Cu576   2.691   .     S
Cu575  O587    1.985   .     S
Cu575  O591    1.958   .     S
Cu575  N585    2.022   .     S
Cu576  O592    1.958   .     S
Cu576  N586    2.022   .     S
Cu576  O588    1.985   .     S
Cu576  O594    1.958   .     S
Cu576  O590    1.985   .     S
C595   O644    1.301   .     A
C595   C613    1.473   .     S
C595   O641    1.300   .     A
C596   Cl626   1.778   .     S
C596   C612    1.416   .     A
C596   C490    1.392   1_655 S
C597   Cl627   1.778   .     S
C597   C612    1.415   .     A
C597   C512    1.391   1_655 S
C598   Cl628   1.778   .     S
C598   C613    1.416   .     A
C599   H631    1.083   .     S
C599   C603    1.391   .     A
C599   C610    1.404   .     A
C600   C604    1.389   .     A
C600   H632    1.083   .     S
C600   C611    1.404   .     A
C601   C605    1.391   .     A
C601   H633    1.083   .     S
C601   C611    1.404   .     A
C602   C607    1.389   .     A
C602   C610    1.404   .     A
C602   H634    1.083   .     S
C603   C608    1.402   .     A
C603   H635    1.083   .     S
C604   C609    1.401   .     A
C604   H636    1.081   .     S
C605   H637    1.083   .     S
C605   C609    1.402   .     A
C606   O642    1.301   .     A
C606   O643    1.300   .     A
C606   C612    1.473   .     S
C607   C608    1.401   .     A
C607   H638    1.081   .     S
C608   C614    1.462   .     S
C609   C615    1.462   .     S
C611   C124    1.472   1_556 S
C613   C620    1.415   .     A
C614   O645    1.297   .     A
C614   O648    1.299   .     A
C615   O647    1.297   .     A
C615   O646    1.299   .     A
C616   N640    1.373   .     A
C616   Cl621   1.762   .     S
C616   C943    1.419   1_545 S
C617   N639    1.373   .     A
C617   Cl622   1.763   .     S
C617   C780    1.419   .     S
C618   N640    1.373   .     A
C618   Cl623   1.762   .     S
C618   C941    1.419   1_545 S
C619   N639    1.373   .     A
C619   Cl624   1.763   .     S
C619   C778    1.419   .     S
C620   Cl625   1.778   .     S
Cu629  O643    1.985   .     S
Cu629  O647    1.958   .     S
Cu629  Cu630   2.691   .     S
Cu629  O641    1.985   .     S
Cu629  O645    1.958   .     S
Cu629  N639    2.022   .     S
Cu630  O646    1.958   .     S
Cu630  N640    2.022   .     S
Cu630  O642    1.985   .     S
Cu630  O648    1.958   .     S
Cu630  O644    1.985   .     S
C649   O698    1.301   .     A
C649   C667    1.473   .     S
C649   O695    1.300   .     A
C650   Cl680   1.778   .     S
C650   C666    1.416   .     A
C650   C706    1.392   .     S
C651   Cl681   1.778   .     S
C651   C666    1.415   .     A
C651   C728    1.391   .     S
C652   Cl682   1.778   .     S
C652   C667    1.416   .     A
C652   C758    1.392   1_455 S
C653   H685    1.083   .     S
C653   C657    1.391   .     A
C653   C664    1.404   .     A
C654   C658    1.389   .     A
C654   H686    1.083   .     S
C654   C665    1.404   .     A
C655   C659    1.391   .     A
C655   H687    1.083   .     S
C655   C665    1.404   .     A
C656   C661    1.389   .     A
C656   C664    1.404   .     A
C656   H688    1.083   .     S
C657   C662    1.402   .     A
C657   H689    1.083   .     S
C658   C663    1.401   .     A
C658   H690    1.081   .     S
C659   H691    1.083   .     S
C659   C663    1.402   .     A
C660   O696    1.301   .     A
C660   O697    1.300   .     A
C660   C666    1.473   .     S
C661   C662    1.401   .     A
C661   H692    1.081   .     S
C662   C668    1.462   .     S
C663   C669    1.462   .     S
C665   C178    1.472   1_556 S
C667   C674    1.415   .     A
C668   O699    1.297   .     A
C668   O702    1.299   .     A
C669   O701    1.297   .     A
C669   O700    1.299   .     A
C670   N694    1.373   .     A
C670   Cl675   1.762   .     S
C671   N693    1.373   .     A
C671   Cl676   1.763   .     S
C671   C834    1.419   .     S
C672   N694    1.373   .     A
C672   Cl677   1.762   .     S
C673   N693    1.373   .     A
C673   Cl678   1.763   .     S
C673   C832    1.419   .     S
C674   Cl679   1.778   .     S
C674   C759    1.391   1_455 S
Cu683  O697    1.985   .     S
Cu683  O701    1.958   .     S
Cu683  Cu684   2.691   .     S
Cu683  O695    1.985   .     S
Cu683  O699    1.958   .     S
Cu683  N693    2.022   .     S
Cu684  O700    1.958   .     S
Cu684  N694    2.022   .     S
Cu684  O696    1.985   .     S
Cu684  O702    1.958   .     S
Cu684  O698    1.985   .     S
C703   O752    1.301   .     A
C703   C721    1.473   .     S
C703   O749    1.300   .     A
C704   Cl734   1.778   .     S
C704   C720    1.416   .     A
C704   C760    1.392   .     S
C705   Cl735   1.778   .     S
C705   C720    1.415   .     A
C705   C782    1.391   .     S
C706   Cl736   1.778   .     S
C706   C721    1.416   .     A
C707   H739    1.083   .     S
C707   C711    1.391   .     A
C707   C718    1.404   .     A
C708   C712    1.389   .     A
C708   H740    1.083   .     S
C708   C719    1.404   .     A
C709   C713    1.391   .     A
C709   H741    1.083   .     S
C709   C719    1.404   .     A
C710   C715    1.389   .     A
C710   C718    1.404   .     A
C710   H742    1.083   .     S
C711   C716    1.402   .     A
C711   H743    1.083   .     S
C712   C717    1.401   .     A
C712   H744    1.081   .     S
C713   H745    1.083   .     S
C713   C717    1.402   .     A
C714   O750    1.301   .     A
C714   O751    1.300   .     A
C714   C720    1.473   .     S
C715   C716    1.401   .     A
C715   H746    1.081   .     S
C716   C722    1.462   .     S
C717   C723    1.462   .     S
C719   C232    1.472   1_556 S
C721   C728    1.415   .     A
C722   O753    1.297   .     A
C722   O756    1.299   .     A
C723   O755    1.297   .     A
C723   O754    1.299   .     A
C724   N748    1.373   .     A
C724   Cl729   1.762   .     S
C725   N747    1.373   .     A
C725   Cl730   1.763   .     S
C725   C888    1.419   .     S
C726   N748    1.373   .     A
C726   Cl731   1.762   .     S
C727   N747    1.373   .     A
C727   Cl732   1.763   .     S
C727   C886    1.419   .     S
C728   Cl733   1.778   .     S
Cu737  O751    1.985   .     S
Cu737  O755    1.958   .     S
Cu737  Cu738   2.691   .     S
Cu737  O749    1.985   .     S
Cu737  O753    1.958   .     S
Cu737  N747    2.022   .     S
Cu738  O754    1.958   .     S
Cu738  N748    2.022   .     S
Cu738  O750    1.985   .     S
Cu738  O756    1.958   .     S
Cu738  O752    1.985   .     S
C757   O806    1.301   .     A
C757   C775    1.473   .     S
C757   O803    1.300   .     A
C758   Cl788   1.778   .     S
C758   C774    1.416   .     A
C758   C652    1.392   1_655 S
C759   Cl789   1.778   .     S
C759   C774    1.415   .     A
C759   C674    1.391   1_655 S
C760   Cl790   1.778   .     S
C760   C775    1.416   .     A
C761   H793    1.083   .     S
C761   C765    1.391   .     A
C761   C772    1.404   .     A
C762   C766    1.389   .     A
C762   H794    1.083   .     S
C762   C773    1.404   .     A
C763   C767    1.391   .     A
C763   H795    1.083   .     S
C763   C773    1.404   .     A
C764   C769    1.389   .     A
C764   C772    1.404   .     A
C764   H796    1.083   .     S
C765   C770    1.402   .     A
C765   H797    1.083   .     S
C766   C771    1.401   .     A
C766   H798    1.081   .     S
C767   H799    1.083   .     S
C767   C771    1.402   .     A
C768   O804    1.301   .     A
C768   O805    1.300   .     A
C768   C774    1.473   .     S
C769   C770    1.401   .     A
C769   H800    1.081   .     S
C770   C776    1.462   .     S
C771   C777    1.462   .     S
C773   C286    1.472   1_556 S
C775   C782    1.415   .     A
C776   O807    1.297   .     A
C776   O810    1.299   .     A
C777   O809    1.297   .     A
C777   O808    1.299   .     A
C778   N802    1.373   .     A
C778   Cl783   1.762   .     S
C779   N801    1.373   .     A
C779   Cl784   1.763   .     S
C779   C942    1.419   .     S
C780   N802    1.373   .     A
C780   Cl785   1.762   .     S
C781   N801    1.373   .     A
C781   Cl786   1.763   .     S
C781   C940    1.419   .     S
C782   Cl787   1.778   .     S
Cu791  O805    1.985   .     S
Cu791  O809    1.958   .     S
Cu791  Cu792   2.691   .     S
Cu791  O803    1.985   .     S
Cu791  O807    1.958   .     S
Cu791  N801    2.022   .     S
Cu792  O808    1.958   .     S
Cu792  N802    2.022   .     S
Cu792  O804    1.985   .     S
Cu792  O810    1.958   .     S
Cu792  O806    1.985   .     S
C811   O860    1.301   .     A
C811   C829    1.473   .     S
C811   O857    1.300   .     A
C812   Cl842   1.778   .     S
C812   C828    1.416   .     A
C812   C868    1.392   .     S
C813   Cl843   1.778   .     S
C813   C828    1.415   .     A
C813   C890    1.391   .     S
C814   Cl844   1.778   .     S
C814   C829    1.416   .     A
C814   C920    1.392   1_455 S
C815   H847    1.083   .     S
C815   C819    1.391   .     A
C815   C826    1.404   .     A
C816   C820    1.389   .     A
C816   H848    1.083   .     S
C816   C827    1.404   .     A
C817   C821    1.391   .     A
C817   H849    1.083   .     S
C817   C827    1.404   .     A
C818   C823    1.389   .     A
C818   C826    1.404   .     A
C818   H850    1.083   .     S
C819   C824    1.402   .     A
C819   H851    1.083   .     S
C820   C825    1.401   .     A
C820   H852    1.081   .     S
C821   H853    1.083   .     S
C821   C825    1.402   .     A
C822   O858    1.301   .     A
C822   O859    1.300   .     A
C822   C828    1.473   .     S
C823   C824    1.401   .     A
C823   H854    1.081   .     S
C824   C830    1.462   .     S
C825   C831    1.462   .     S
C827   C340    1.472   1_556 S
C829   C836    1.415   .     A
C830   O861    1.297   .     A
C830   O864    1.299   .     A
C831   O863    1.297   .     A
C831   O862    1.299   .     A
C832   N856    1.373   .     A
C832   Cl837   1.762   .     S
C833   N855    1.373   .     A
C833   Cl838   1.763   .     S
C833   C510    1.419   1_565 S
C834   N856    1.373   .     A
C834   Cl839   1.762   .     S
C835   N855    1.373   .     A
C835   Cl840   1.763   .     S
C835   C508    1.419   1_565 S
C836   Cl841   1.778   .     S
C836   C921    1.391   1_455 S
Cu845  O859    1.985   .     S
Cu845  O863    1.958   .     S
Cu845  Cu846   2.691   .     S
Cu845  O857    1.985   .     S
Cu845  O861    1.958   .     S
Cu845  N855    2.022   .     S
Cu846  O862    1.958   .     S
Cu846  N856    2.022   .     S
Cu846  O858    1.985   .     S
Cu846  O864    1.958   .     S
Cu846  O860    1.985   .     S
C865   O914    1.301   .     A
C865   C883    1.473   .     S
C865   O911    1.300   .     A
C866   Cl896   1.778   .     S
C866   C882    1.416   .     A
C866   C922    1.392   .     S
C867   Cl897   1.778   .     S
C867   C882    1.415   .     A
C867   C944    1.391   .     S
C868   Cl898   1.778   .     S
C868   C883    1.416   .     A
C869   H901    1.083   .     S
C869   C873    1.391   .     A
C869   C880    1.404   .     A
C870   C874    1.389   .     A
C870   H902    1.083   .     S
C870   C881    1.404   .     A
C871   C875    1.391   .     A
C871   H903    1.083   .     S
C871   C881    1.404   .     A
C872   C877    1.389   .     A
C872   C880    1.404   .     A
C872   H904    1.083   .     S
C873   C878    1.402   .     A
C873   H905    1.083   .     S
C874   C879    1.401   .     A
C874   H906    1.081   .     S
C875   H907    1.083   .     S
C875   C879    1.402   .     A
C876   O912    1.301   .     A
C876   O913    1.300   .     A
C876   C882    1.473   .     S
C877   C878    1.401   .     A
C877   H908    1.081   .     S
C878   C884    1.462   .     S
C879   C885    1.462   .     S
C881   C394    1.472   1_556 S
C883   C890    1.415   .     A
C884   O915    1.297   .     A
C884   O918    1.299   .     A
C885   O917    1.297   .     A
C885   O916    1.299   .     A
C886   N910    1.373   .     A
C886   Cl891   1.762   .     S
C887   N909    1.373   .     A
C887   Cl892   1.763   .     S
C887   C564    1.419   1_565 S
C888   N910    1.373   .     A
C888   Cl893   1.762   .     S
C889   N909    1.373   .     A
C889   Cl894   1.763   .     S
C889   C562    1.419   1_565 S
C890   Cl895   1.778   .     S
Cu899  O913    1.985   .     S
Cu899  O917    1.958   .     S
Cu899  Cu900   2.691   .     S
Cu899  O911    1.985   .     S
Cu899  O915    1.958   .     S
Cu899  N909    2.022   .     S
Cu900  O916    1.958   .     S
Cu900  N910    2.022   .     S
Cu900  O912    1.985   .     S
Cu900  O918    1.958   .     S
Cu900  O914    1.985   .     S
C919   O968    1.301   .     A
C919   C937    1.473   .     S
C919   O965    1.300   .     A
C920   Cl950   1.778   .     S
C920   C936    1.416   .     A
C920   C814    1.392   1_655 S
C921   Cl951   1.778   .     S
C921   C936    1.415   .     A
C921   C836    1.391   1_655 S
C922   Cl952   1.778   .     S
C922   C937    1.416   .     A
C923   H955    1.083   .     S
C923   C927    1.391   .     A
C923   C934    1.404   .     A
C924   C928    1.389   .     A
C924   H956    1.083   .     S
C924   C935    1.404   .     A
C925   C929    1.391   .     A
C925   H957    1.083   .     S
C925   C935    1.404   .     A
C926   C931    1.389   .     A
C926   C934    1.404   .     A
C926   H958    1.083   .     S
C927   C932    1.402   .     A
C927   H959    1.083   .     S
C928   C933    1.401   .     A
C928   H960    1.081   .     S
C929   H961    1.083   .     S
C929   C933    1.402   .     A
C930   O966    1.301   .     A
C930   O967    1.300   .     A
C930   C936    1.473   .     S
C931   C932    1.401   .     A
C931   H962    1.081   .     S
C932   C938    1.462   .     S
C933   C939    1.462   .     S
C935   C448    1.472   1_556 S
C937   C944    1.415   .     A
C938   O969    1.297   .     A
C938   O972    1.299   .     A
C939   O971    1.297   .     A
C939   O970    1.299   .     A
C940   N964    1.373   .     A
C940   Cl945   1.762   .     S
C941   N963    1.373   .     A
C941   Cl946   1.763   .     S
C941   C618    1.419   1_565 S
C942   N964    1.373   .     A
C942   Cl947   1.762   .     S
C943   N963    1.373   .     A
C943   Cl948   1.763   .     S
C943   C616    1.419   1_565 S
C944   Cl949   1.778   .     S
Cu953  O967    1.985   .     S
Cu953  O971    1.958   .     S
Cu953  Cu954   2.691   .     S
Cu953  O965    1.985   .     S
Cu953  O969    1.958   .     S
Cu953  N963    2.022   .     S
Cu954  O970    1.958   .     S
Cu954  N964    2.022   .     S
Cu954  O966    1.985   .     S
Cu954  O972    1.958   .     S
Cu954  O968    1.985   .     S
