data_str_m1_o1_o1_pcu_sym.5
_audit_creation_date              2020-01-03
_audit_creation_method            'Materials Studio'
_symmetry_space_group_name_H-M    'P1'
_symmetry_Int_Tables_number       1
_symmetry_cell_setting            triclinic
loop_
_symmetry_equiv_pos_as_xyz
  x,y,z
_cell_length_a                    25.9546
_cell_length_b                    25.8851
_cell_length_c                    25.9300
_cell_angle_alpha                 90.0960
_cell_angle_beta                  90.1357
_cell_angle_gamma                 89.8659
loop_
_atom_site_label
_atom_site_type_symbol
_atom_site_fract_x
_atom_site_fract_y
_atom_site_fract_z
_atom_site_U_iso_or_equiv
_atom_site_adp_type
_atom_site_occupancy
Zn1    Zn    0.20660   0.29340   0.20660   0.00000  Uiso   1.00
Zn2    Zn    0.79340   0.70660   0.79340   0.00000  Uiso   1.00
Zn3    Zn    0.20660   0.29340   0.79340   0.00000  Uiso   1.00
Zn4    Zn    0.79340   0.70660   0.20660   0.00000  Uiso   1.00
Zn5    Zn    0.79340   0.29340   0.79340   0.00000  Uiso   1.00
Zn6    Zn    0.20660   0.70660   0.20660   0.00000  Uiso   1.00
Zn7    Zn    0.79340   0.29340   0.20660   0.00000  Uiso   1.00
Zn8    Zn    0.20660   0.70660   0.79340   0.00000  Uiso   1.00
Zn9    Zn    0.29340   0.79340   0.79340   0.00000  Uiso   1.00
Zn10   Zn    0.70660   0.20660   0.20660   0.00000  Uiso   1.00
Zn11   Zn    0.29340   0.20660   0.79340   0.00000  Uiso   1.00
Zn12   Zn    0.70660   0.79340   0.20660   0.00000  Uiso   1.00
Zn13   Zn    0.29340   0.20660   0.20660   0.00000  Uiso   1.00
Zn14   Zn    0.70660   0.79340   0.79340   0.00000  Uiso   1.00
Zn15   Zn    0.29340   0.79340   0.20660   0.00000  Uiso   1.00
Zn16   Zn    0.70660   0.20660   0.79340   0.00000  Uiso   1.00
Zn17   Zn    0.79340   0.20660   0.70660   0.00000  Uiso   1.00
Zn18   Zn    0.20660   0.79340   0.29340   0.00000  Uiso   1.00
Zn19   Zn    0.20660   0.20660   0.70660   0.00000  Uiso   1.00
Zn20   Zn    0.79340   0.79340   0.29340   0.00000  Uiso   1.00
Zn21   Zn    0.20660   0.79340   0.70660   0.00000  Uiso   1.00
Zn22   Zn    0.79340   0.20660   0.29340   0.00000  Uiso   1.00
Zn23   Zn    0.79340   0.79340   0.70660   0.00000  Uiso   1.00
Zn24   Zn    0.20660   0.20660   0.29340   0.00000  Uiso   1.00
Zn25   Zn    0.70660   0.29340   0.70660   0.00000  Uiso   1.00
Zn26   Zn    0.29340   0.70660   0.29340   0.00000  Uiso   1.00
Zn27   Zn    0.70660   0.29340   0.29340   0.00000  Uiso   1.00
Zn28   Zn    0.29340   0.70660   0.70660   0.00000  Uiso   1.00
Zn29   Zn    0.29340   0.29340   0.29340   0.00000  Uiso   1.00
Zn30   Zn    0.70660   0.70660   0.70660   0.00000  Uiso   1.00
Zn31   Zn    0.29340   0.29340   0.70660   0.00000  Uiso   1.00
Zn32   Zn    0.70660   0.70660   0.29340   0.00000  Uiso   1.00
O1     O     0.25000   0.25000   0.25000   0.00000  Uiso   1.00
O2     O     0.75000   0.75000   0.75000   0.00000  Uiso   1.00
O3     O     0.25000   0.25000   0.75000   0.00000  Uiso   1.00
O4     O     0.75000   0.75000   0.25000   0.00000  Uiso   1.00
O5     O     0.75000   0.25000   0.75000   0.00000  Uiso   1.00
O6     O     0.25000   0.75000   0.25000   0.00000  Uiso   1.00
O7     O     0.75000   0.25000   0.25000   0.00000  Uiso   1.00
O8     O     0.25000   0.75000   0.75000   0.00000  Uiso   1.00
O9     O     0.36580   0.28029   0.28029   0.00000  Uiso   1.00
O10    O     0.63420   0.71971   0.71971   0.00000  Uiso   1.00
O11    O     0.28029   0.28029   0.63420   0.00000  Uiso   1.00
O12    O     0.71971   0.71971   0.36580   0.00000  Uiso   1.00
O13    O     0.63420   0.28029   0.71971   0.00000  Uiso   1.00
O14    O     0.36580   0.71971   0.28029   0.00000  Uiso   1.00
O15    O     0.71971   0.28029   0.36580   0.00000  Uiso   1.00
O16    O     0.28029   0.71971   0.63420   0.00000  Uiso   1.00
O17    O     0.36580   0.71971   0.71971   0.00000  Uiso   1.00
O18    O     0.63420   0.28029   0.28029   0.00000  Uiso   1.00
O19    O     0.28029   0.71971   0.36580   0.00000  Uiso   1.00
O20    O     0.71971   0.28029   0.63420   0.00000  Uiso   1.00
O21    O     0.63420   0.71971   0.28029   0.00000  Uiso   1.00
O22    O     0.36580   0.28029   0.71971   0.00000  Uiso   1.00
O23    O     0.71971   0.71971   0.63420   0.00000  Uiso   1.00
O24    O     0.28029   0.28029   0.36580   0.00000  Uiso   1.00
O25    O     0.28029   0.36580   0.71971   0.00000  Uiso   1.00
O26    O     0.71971   0.63420   0.28029   0.00000  Uiso   1.00
O27    O     0.28029   0.63420   0.28029   0.00000  Uiso   1.00
O28    O     0.71971   0.36580   0.71971   0.00000  Uiso   1.00
O29    O     0.71971   0.63420   0.71971   0.00000  Uiso   1.00
O30    O     0.28029   0.36580   0.28029   0.00000  Uiso   1.00
O31    O     0.71971   0.36580   0.28029   0.00000  Uiso   1.00
O32    O     0.28029   0.63420   0.71971   0.00000  Uiso   1.00
O33    O     0.86580   0.78029   0.28029   0.00000  Uiso   1.00
O34    O     0.13420   0.21971   0.71971   0.00000  Uiso   1.00
O35    O     0.28029   0.78029   0.13420   0.00000  Uiso   1.00
O36    O     0.71971   0.21971   0.86580   0.00000  Uiso   1.00
O37    O     0.13420   0.78029   0.71971   0.00000  Uiso   1.00
O38    O     0.86580   0.21971   0.28029   0.00000  Uiso   1.00
O39    O     0.71971   0.78029   0.86580   0.00000  Uiso   1.00
O40    O     0.28029   0.21971   0.13420   0.00000  Uiso   1.00
O41    O     0.86580   0.21971   0.71971   0.00000  Uiso   1.00
O42    O     0.13420   0.78029   0.28029   0.00000  Uiso   1.00
O43    O     0.28029   0.21971   0.86580   0.00000  Uiso   1.00
O44    O     0.71971   0.78029   0.13420   0.00000  Uiso   1.00
O45    O     0.13420   0.21971   0.28029   0.00000  Uiso   1.00
O46    O     0.86580   0.78029   0.71971   0.00000  Uiso   1.00
O47    O     0.71971   0.21971   0.13420   0.00000  Uiso   1.00
O48    O     0.28029   0.78029   0.86580   0.00000  Uiso   1.00
O49    O     0.78029   0.71971   0.13420   0.00000  Uiso   1.00
O50    O     0.21971   0.28029   0.86580   0.00000  Uiso   1.00
O51    O     0.78029   0.86580   0.71971   0.00000  Uiso   1.00
O52    O     0.21971   0.13420   0.28029   0.00000  Uiso   1.00
O53    O     0.78029   0.28029   0.86580   0.00000  Uiso   1.00
O54    O     0.21971   0.71971   0.13420   0.00000  Uiso   1.00
O55    O     0.78029   0.13420   0.28029   0.00000  Uiso   1.00
O56    O     0.21971   0.86580   0.71971   0.00000  Uiso   1.00
O57    O     0.21971   0.28029   0.13420   0.00000  Uiso   1.00
O58    O     0.78029   0.71971   0.86580   0.00000  Uiso   1.00
O59    O     0.21971   0.13420   0.71971   0.00000  Uiso   1.00
O60    O     0.78029   0.86580   0.28029   0.00000  Uiso   1.00
O61    O     0.21971   0.71971   0.86580   0.00000  Uiso   1.00
O62    O     0.78029   0.28029   0.13420   0.00000  Uiso   1.00
O63    O     0.21971   0.86580   0.28029   0.00000  Uiso   1.00
O64    O     0.78029   0.13420   0.71971   0.00000  Uiso   1.00
O65    O     0.71971   0.86580   0.21971   0.00000  Uiso   1.00
O66    O     0.28029   0.13420   0.78029   0.00000  Uiso   1.00
O67    O     0.86580   0.28029   0.21971   0.00000  Uiso   1.00
O68    O     0.13420   0.71971   0.78029   0.00000  Uiso   1.00
O69    O     0.28029   0.13420   0.21971   0.00000  Uiso   1.00
O70    O     0.71971   0.86580   0.78029   0.00000  Uiso   1.00
O71    O     0.13420   0.71971   0.21971   0.00000  Uiso   1.00
O72    O     0.86580   0.28029   0.78029   0.00000  Uiso   1.00
O73    O     0.28029   0.86580   0.78029   0.00000  Uiso   1.00
O74    O     0.71971   0.13420   0.21971   0.00000  Uiso   1.00
O75    O     0.13420   0.28029   0.78029   0.00000  Uiso   1.00
O76    O     0.86580   0.71971   0.21971   0.00000  Uiso   1.00
O77    O     0.71971   0.13420   0.78029   0.00000  Uiso   1.00
O78    O     0.28029   0.86580   0.21971   0.00000  Uiso   1.00
O79    O     0.86580   0.71971   0.78029   0.00000  Uiso   1.00
O80    O     0.13420   0.28029   0.21971   0.00000  Uiso   1.00
O81    O     0.36580   0.78029   0.78029   0.00000  Uiso   1.00
O82    O     0.63420   0.21971   0.21971   0.00000  Uiso   1.00
O83    O     0.78029   0.78029   0.63420   0.00000  Uiso   1.00
O84    O     0.21971   0.21971   0.36580   0.00000  Uiso   1.00
O85    O     0.63420   0.78029   0.21971   0.00000  Uiso   1.00
O86    O     0.36580   0.21971   0.78029   0.00000  Uiso   1.00
O87    O     0.21971   0.78029   0.36580   0.00000  Uiso   1.00
O88    O     0.78029   0.21971   0.63420   0.00000  Uiso   1.00
O89    O     0.36580   0.21971   0.21971   0.00000  Uiso   1.00
O90    O     0.63420   0.78029   0.78029   0.00000  Uiso   1.00
O91    O     0.78029   0.21971   0.36580   0.00000  Uiso   1.00
O92    O     0.21971   0.78029   0.63420   0.00000  Uiso   1.00
O93    O     0.63420   0.21971   0.78029   0.00000  Uiso   1.00
O94    O     0.36580   0.78029   0.21971   0.00000  Uiso   1.00
O95    O     0.21971   0.21971   0.63420   0.00000  Uiso   1.00
O96    O     0.78029   0.78029   0.36580   0.00000  Uiso   1.00
O97    O     0.78029   0.36580   0.21971   0.00000  Uiso   1.00
O98    O     0.21971   0.63420   0.78029   0.00000  Uiso   1.00
O99    O     0.78029   0.63420   0.78029   0.00000  Uiso   1.00
O100   O     0.21971   0.36580   0.21971   0.00000  Uiso   1.00
O101   O     0.21971   0.63420   0.21971   0.00000  Uiso   1.00
O102   O     0.78029   0.36580   0.78029   0.00000  Uiso   1.00
O103   O     0.21971   0.36580   0.78029   0.00000  Uiso   1.00
O104   O     0.78029   0.63420   0.21971   0.00000  Uiso   1.00
C1     C     0.39004   0.25029   0.24971   0.00000  Uiso   1.00
C2     C     0.60987   0.75004   0.75012   0.00000  Uiso   1.00
C3     C     0.24987   0.25024   0.60994   0.00000  Uiso   1.00
C4     C     0.75002   0.75023   0.39004   0.00000  Uiso   1.00
C5     C     0.60991   0.25029   0.74996   0.00000  Uiso   1.00
C6     C     0.39004   0.75029   0.25053   0.00000  Uiso   1.00
C7     C     0.75042   0.25009   0.39008   0.00000  Uiso   1.00
C8     C     0.24976   0.74975   0.60992   0.00000  Uiso   1.00
C9     C     0.39002   0.75003   0.74985   0.00000  Uiso   1.00
C10    C     0.60992   0.24992   0.25018   0.00000  Uiso   1.00
C11    C     0.24978   0.74968   0.38998   0.00000  Uiso   1.00
C12    C     0.75017   0.25021   0.60996   0.00000  Uiso   1.00
C13    C     0.60996   0.74991   0.24981   0.00000  Uiso   1.00
C14    C     0.39003   0.25003   0.75038   0.00000  Uiso   1.00
C15    C     0.75006   0.74967   0.60997   0.00000  Uiso   1.00
C16    C     0.25013   0.24981   0.38998   0.00000  Uiso   1.00
C17    C     0.24999   0.38998   0.75017   0.00000  Uiso   1.00
C18    C     0.75027   0.60999   0.25001   0.00000  Uiso   1.00
C19    C     0.25025   0.60997   0.24994   0.00000  Uiso   1.00
C20    C     0.75012   0.39006   0.75005   0.00000  Uiso   1.00
C21    C     0.74968   0.60998   0.75012   0.00000  Uiso   1.00
C22    C     0.24973   0.39004   0.25008   0.00000  Uiso   1.00
C23    C     0.74974   0.39001   0.24999   0.00000  Uiso   1.00
C24    C     0.25010   0.61001   0.74990   0.00000  Uiso   1.00
C25    C     0.89013   0.74995   0.24989   0.00000  Uiso   1.00
C26    C     0.10996   0.24987   0.75015   0.00000  Uiso   1.00
C27    C     0.24984   0.75021   0.11001   0.00000  Uiso   1.00
C28    C     0.74992   0.25034   0.89003   0.00000  Uiso   1.00
C29    C     0.10995   0.74990   0.74974   0.00000  Uiso   1.00
C30    C     0.89002   0.25019   0.25028   0.00000  Uiso   1.00
C31    C     0.75011   0.74990   0.89006   0.00000  Uiso   1.00
C32    C     0.24978   0.24962   0.10989   0.00000  Uiso   1.00
C33    C     0.89006   0.24997   0.75004   0.00000  Uiso   1.00
C34    C     0.10998   0.74996   0.25015   0.00000  Uiso   1.00
C35    C     0.24963   0.24980   0.88999   0.00000  Uiso   1.00
C36    C     0.74992   0.75014   0.10994   0.00000  Uiso   1.00
C37    C     0.10994   0.25000   0.24981   0.00000  Uiso   1.00
C38    C     0.89002   0.75011   0.75019   0.00000  Uiso   1.00
C39    C     0.74997   0.24977   0.10996   0.00000  Uiso   1.00
C40    C     0.25013   0.74976   0.89005   0.00000  Uiso   1.00
C41    C     0.74966   0.89000   0.74993   0.00000  Uiso   1.00
C42    C     0.25014   0.11002   0.24994   0.00000  Uiso   1.00
C43    C     0.74986   0.10998   0.25028   0.00000  Uiso   1.00
C44    C     0.24983   0.89008   0.75044   0.00000  Uiso   1.00
C45    C     0.24971   0.11000   0.75009   0.00000  Uiso   1.00
C46    C     0.75014   0.89002   0.24971   0.00000  Uiso   1.00
C47    C     0.24982   0.88999   0.25002   0.00000  Uiso   1.00
C48    C     0.75015   0.10997   0.74990   0.00000  Uiso   1.00
C49    C     0.20323   0.47317   0.25622   0.00000  Uiso   1.00
C50    C     0.79682   0.52705   0.74567   0.00000  Uiso   1.00
C51    C     0.27736   0.47279   0.78858   0.00000  Uiso   1.00
C52    C     0.79687   0.52685   0.25552   0.00000  Uiso   1.00
C53    C     0.79678   0.47307   0.74716   0.00000  Uiso   1.00
C54    C     0.20327   0.52724   0.25752   0.00000  Uiso   1.00
C55    C     0.79683   0.47279   0.25697   0.00000  Uiso   1.00
C56    C     0.27830   0.52704   0.78818   0.00000  Uiso   1.00
C57    C     0.47287   0.74946   0.79709   0.00000  Uiso   1.00
C58    C     0.52721   0.25825   0.20348   0.00000  Uiso   1.00
C59    C     0.47333   0.24670   0.79750   0.00000  Uiso   1.00
C60    C     0.52654   0.73921   0.20383   0.00000  Uiso   1.00
C61    C     0.47314   0.25947   0.20318   0.00000  Uiso   1.00
C62    C     0.52670   0.75084   0.79698   0.00000  Uiso   1.00
C63    C     0.47248   0.73999   0.20435   0.00000  Uiso   1.00
C64    C     0.52721   0.24829   0.79763   0.00000  Uiso   1.00
C65    C     0.79718   0.25640   0.52726   0.00000  Uiso   1.00
C66    C     0.28270   0.78341   0.47285   0.00000  Uiso   1.00
C67    C     0.26501   0.20487   0.52685   0.00000  Uiso   1.00
C68    C     0.74440   0.79682   0.47319   0.00000  Uiso   1.00
C69    C     0.28325   0.78284   0.52697   0.00000  Uiso   1.00
C70    C     0.79708   0.25521   0.47331   0.00000  Uiso   1.00
C71    C     0.74295   0.79677   0.52718   0.00000  Uiso   1.00
C72    C     0.26398   0.20486   0.47273   0.00000  Uiso   1.00
C73    C     0.77322   0.97282   0.20886   0.00000  Uiso   1.00
C74    C     0.24191   0.02743   0.79757   0.00000  Uiso   1.00
C75    C     0.28324   0.97280   0.28361   0.00000  Uiso   1.00
C76    C     0.79679   0.02673   0.75327   0.00000  Uiso   1.00
C77    C     0.24313   0.97329   0.79761   0.00000  Uiso   1.00
C78    C     0.77388   0.02705   0.20916   0.00000  Uiso   1.00
C79    C     0.79680   0.97274   0.75486   0.00000  Uiso   1.00
C80    C     0.28385   0.02706   0.28315   0.00000  Uiso   1.00
C81    C     0.70272   0.02717   0.74472   0.00000  Uiso   1.00
C82    C     0.21608   0.97296   0.21680   0.00000  Uiso   1.00
C83    C     0.25514   0.02686   0.70409   0.00000  Uiso   1.00
C84    C     0.72614   0.97296   0.29082   0.00000  Uiso   1.00
C85    C     0.21678   0.02722   0.21628   0.00000  Uiso   1.00
C86    C     0.70274   0.97311   0.74624   0.00000  Uiso   1.00
C87    C     0.72682   0.02718   0.29114   0.00000  Uiso   1.00
C88    C     0.25748   0.97303   0.70451   0.00000  Uiso   1.00
C89    C     0.97323   0.74897   0.29749   0.00000  Uiso   1.00
C90    C     0.02726   0.20565   0.76700   0.00000  Uiso   1.00
C91    C     0.97329   0.76274   0.79581   0.00000  Uiso   1.00
C92    C     0.02654   0.24360   0.20341   0.00000  Uiso   1.00
C93    C     0.97315   0.20554   0.76694   0.00000  Uiso   1.00
C94    C     0.02719   0.74973   0.29738   0.00000  Uiso   1.00
C95    C     0.97261   0.24259   0.20365   0.00000  Uiso   1.00
C96    C     0.02737   0.76228   0.79547   0.00000  Uiso   1.00
C97    C     0.02738   0.25862   0.29646   0.00000  Uiso   1.00
C98    C     0.97268   0.73863   0.70421   0.00000  Uiso   1.00
C99    C     0.02704   0.29415   0.73407   0.00000  Uiso   1.00
C100   C     0.97330   0.74934   0.20303   0.00000  Uiso   1.00
C101   C     0.02669   0.73916   0.70399   0.00000  Uiso   1.00
C102   C     0.97331   0.25946   0.29680   0.00000  Uiso   1.00
C103   C     0.02713   0.75073   0.20292   0.00000  Uiso   1.00
C104   C     0.97298   0.29439   0.73391   0.00000  Uiso   1.00
C105   C     0.79668   0.75799   0.02705   0.00000  Uiso   1.00
C106   C     0.20339   0.23960   0.97243   0.00000  Uiso   1.00
C107   C     0.75557   0.20318   0.02681   0.00000  Uiso   1.00
C108   C     0.23295   0.79443   0.97310   0.00000  Uiso   1.00
C109   C     0.20319   0.23826   0.02657   0.00000  Uiso   1.00
C110   C     0.79658   0.75607   0.97307   0.00000  Uiso   1.00
C111   C     0.23398   0.79450   0.02725   0.00000  Uiso   1.00
C112   C     0.75700   0.20323   0.97282   0.00000  Uiso   1.00
C113   C     0.26496   0.70522   0.97306   0.00000  Uiso   1.00
C114   C     0.74272   0.29700   0.02715   0.00000  Uiso   1.00
C115   C     0.29553   0.25961   0.97306   0.00000  Uiso   1.00
C116   C     0.70347   0.74411   0.02693   0.00000  Uiso   1.00
C117   C     0.74418   0.29707   0.97313   0.00000  Uiso   1.00
C118   C     0.26595   0.70534   0.02715   0.00000  Uiso   1.00
C119   C     0.70336   0.74220   0.97295   0.00000  Uiso   1.00
C120   C     0.29546   0.25772   0.02697   0.00000  Uiso   1.00
C121   C     0.70267   0.47306   0.75474   0.00000  Uiso   1.00
C122   C     0.29673   0.52685   0.24385   0.00000  Uiso   1.00
C123   C     0.70315   0.47314   0.24449   0.00000  Uiso   1.00
C124   C     0.22280   0.52719   0.71141   0.00000  Uiso   1.00
C125   C     0.29669   0.47277   0.24255   0.00000  Uiso   1.00
C126   C     0.70271   0.52711   0.75332   0.00000  Uiso   1.00
C127   C     0.22229   0.47294   0.71146   0.00000  Uiso   1.00
C128   C     0.70320   0.52720   0.24304   0.00000  Uiso   1.00
C129   C     0.47282   0.24310   0.29636   0.00000  Uiso   1.00
C130   C     0.52678   0.75067   0.70252   0.00000  Uiso   1.00
C131   C     0.47339   0.75916   0.29670   0.00000  Uiso   1.00
C132   C     0.52631   0.25516   0.70357   0.00000  Uiso   1.00
C133   C     0.47282   0.74991   0.70263   0.00000  Uiso   1.00
C134   C     0.52673   0.24412   0.29658   0.00000  Uiso   1.00
C135   C     0.47260   0.25264   0.70334   0.00000  Uiso   1.00
C136   C     0.52739   0.75992   0.29629   0.00000  Uiso   1.00
C137   C     0.21715   0.71522   0.52681   0.00000  Uiso   1.00
C138   C     0.70386   0.24068   0.47285   0.00000  Uiso   1.00
C139   C     0.75575   0.70293   0.52688   0.00000  Uiso   1.00
C140   C     0.23592   0.29533   0.47285   0.00000  Uiso   1.00
C141   C     0.70396   0.24289   0.52690   0.00000  Uiso   1.00
C142   C     0.21739   0.71510   0.47258   0.00000  Uiso   1.00
C143   C     0.23704   0.29543   0.52693   0.00000  Uiso   1.00
C144   C     0.75720   0.70299   0.47285   0.00000  Uiso   1.00
C145   C     0.25010   0.55385   0.25103   0.00000  Uiso   1.00
C146   C     0.74982   0.44622   0.75124   0.00000  Uiso   1.00
C147   C     0.25090   0.55387   0.74956   0.00000  Uiso   1.00
C148   C     0.74988   0.44615   0.25114   0.00000  Uiso   1.00
C149   C     0.74974   0.55388   0.74913   0.00000  Uiso   1.00
C150   C     0.24987   0.44617   0.24903   0.00000  Uiso   1.00
C151   C     0.75013   0.55384   0.24887   0.00000  Uiso   1.00
C152   C     0.24923   0.44611   0.75043   0.00000  Uiso   1.00
C153   C     0.55365   0.75100   0.74983   0.00000  Uiso   1.00
C154   C     0.44615   0.25060   0.24959   0.00000  Uiso   1.00
C155   C     0.55371   0.25184   0.75046   0.00000  Uiso   1.00
C156   C     0.44618   0.74972   0.25064   0.00000  Uiso   1.00
C157   C     0.55376   0.25043   0.25007   0.00000  Uiso   1.00
C158   C     0.44608   0.74951   0.74988   0.00000  Uiso   1.00
C159   C     0.55380   0.74996   0.24984   0.00000  Uiso   1.00
C160   C     0.44611   0.24893   0.75039   0.00000  Uiso   1.00
C161   C     0.75041   0.24851   0.44625   0.00000  Uiso   1.00
C162   C     0.24946   0.74982   0.55373   0.00000  Uiso   1.00
C163   C     0.24935   0.24990   0.44606   0.00000  Uiso   1.00
C164   C     0.74894   0.74976   0.55384   0.00000  Uiso   1.00
C165   C     0.25020   0.74916   0.44601   0.00000  Uiso   1.00
C166   C     0.75042   0.25053   0.55384   0.00000  Uiso   1.00
C167   C     0.75121   0.75003   0.44619   0.00000  Uiso   1.00
C168   C     0.25099   0.25017   0.55374   0.00000  Uiso   1.00
C169   C     0.75072   0.05387   0.25042   0.00000  Uiso   1.00
C170   C     0.25046   0.94630   0.75097   0.00000  Uiso   1.00
C171   C     0.25071   0.05388   0.24936   0.00000  Uiso   1.00
C172   C     0.74971   0.94612   0.75100   0.00000  Uiso   1.00
C173   C     0.24815   0.05396   0.75061   0.00000  Uiso   1.00
C174   C     0.74929   0.94614   0.24956   0.00000  Uiso   1.00
C175   C     0.74987   0.05380   0.74864   0.00000  Uiso   1.00
C176   C     0.24925   0.94613   0.25058   0.00000  Uiso   1.00
C177   C     0.05393   0.75044   0.25013   0.00000  Uiso   1.00
C178   C     0.94622   0.24992   0.75018   0.00000  Uiso   1.00
C179   C     0.05381   0.75030   0.74972   0.00000  Uiso   1.00
C180   C     0.94613   0.25036   0.25041   0.00000  Uiso   1.00
C181   C     0.05388   0.24981   0.75028   0.00000  Uiso   1.00
C182   C     0.94636   0.74895   0.25018   0.00000  Uiso   1.00
C183   C     0.05376   0.25055   0.24988   0.00000  Uiso   1.00
C184   C     0.94616   0.75020   0.75022   0.00000  Uiso   1.00
C185   C     0.75000   0.74874   0.94619   0.00000  Uiso   1.00
C186   C     0.24935   0.24817   0.05365   0.00000  Uiso   1.00
C187   C     0.75102   0.25025   0.94616   0.00000  Uiso   1.00
C188   C     0.25059   0.75016   0.05393   0.00000  Uiso   1.00
C189   C     0.24941   0.25049   0.94603   0.00000  Uiso   1.00
C190   C     0.75005   0.75136   0.05381   0.00000  Uiso   1.00
C191   C     0.24902   0.74981   0.94624   0.00000  Uiso   1.00
C192   C     0.74877   0.24997   0.05381   0.00000  Uiso   1.00
N1     N     0.15641   0.44567   0.26625   0.00000  Uiso   1.00
O105   O     0.13565   0.44783   0.31182   0.00000  Uiso   1.00
O106   O     0.13097   0.42470   0.22838   0.00000  Uiso   1.00
N2     N     0.84459   0.55441   0.73929   0.00000  Uiso   1.00
O107   O     0.88420   0.54342   0.76814   0.00000  Uiso   1.00
O108   O     0.84922   0.58906   0.70331   0.00000  Uiso   1.00
N3     N     0.30759   0.44476   0.82576   0.00000  Uiso   1.00
O109   O     0.35663   0.45399   0.83052   0.00000  Uiso   1.00
O110   O     0.28611   0.41073   0.85561   0.00000  Uiso   1.00
N4     N     0.84388   0.55437   0.26485   0.00000  Uiso   1.00
O111   O     0.86523   0.55280   0.31026   0.00000  Uiso   1.00
O112   O     0.86889   0.57470   0.22653   0.00000  Uiso   1.00
N5     N     0.84425   0.44551   0.74072   0.00000  Uiso   1.00
O113   O     0.86835   0.44772   0.69686   0.00000  Uiso   1.00
O114   O     0.86759   0.42637   0.78084   0.00000  Uiso   1.00
N6     N     0.15594   0.55492   0.26647   0.00000  Uiso   1.00
O115   O     0.11445   0.54303   0.24086   0.00000  Uiso   1.00
O116   O     0.15370   0.59093   0.30148   0.00000  Uiso   1.00
N7     N     0.84427   0.44517   0.26550   0.00000  Uiso   1.00
O117   O     0.88535   0.45677   0.23932   0.00000  Uiso   1.00
O118   O     0.84707   0.40952   0.30074   0.00000  Uiso   1.00
N8     N     0.30600   0.55471   0.82769   0.00000  Uiso   1.00
O119   O     0.30248   0.54065   0.87570   0.00000  Uiso   1.00
O120   O     0.33596   0.59310   0.81577   0.00000  Uiso   1.00
N9     N     0.44563   0.74666   0.84527   0.00000  Uiso   1.00
O121   O     0.45542   0.77952   0.88202   0.00000  Uiso   1.00
O122   O     0.41235   0.71001   0.85325   0.00000  Uiso   1.00
N10    N     0.55528   0.26991   0.15741   0.00000  Uiso   1.00
O123   O     0.55769   0.31728   0.14096   0.00000  Uiso   1.00
O124   O     0.57473   0.23278   0.12970   0.00000  Uiso   1.00
N11    N     0.44642   0.24721   0.84561   0.00000  Uiso   1.00
O125   O     0.44968   0.28764   0.87529   0.00000  Uiso   1.00
O126   O     0.42854   0.20423   0.86425   0.00000  Uiso   1.00
N12    N     0.55345   0.72434   0.15761   0.00000  Uiso   1.00
O127   O     0.53771   0.74041   0.11274   0.00000  Uiso   1.00
O128   O     0.59079   0.69078   0.15975   0.00000  Uiso   1.00
N13    N     0.44602   0.27224   0.15643   0.00000  Uiso   1.00
O129   O     0.46203   0.25472   0.11221   0.00000  Uiso   1.00
O130   O     0.40878   0.30598   0.15725   0.00000  Uiso   1.00
N14    N     0.55388   0.74881   0.84500   0.00000  Uiso   1.00
O131   O     0.55003   0.70790   0.87377   0.00000  Uiso   1.00
O132   O     0.57211   0.79125   0.86475   0.00000  Uiso   1.00
N15    N     0.44408   0.72672   0.15878   0.00000  Uiso   1.00
O133   O     0.42555   0.68036   0.15351   0.00000  Uiso   1.00
O134   O     0.43096   0.76255   0.12614   0.00000  Uiso   1.00
N16    N     0.55466   0.24846   0.84590   0.00000  Uiso   1.00
O135   O     0.54491   0.21376   0.88076   0.00000  Uiso   1.00
O136   O     0.58772   0.28482   0.85611   0.00000  Uiso   1.00
N17    N     0.84463   0.26455   0.55485   0.00000  Uiso   1.00
O137   O     0.88522   0.23698   0.54419   0.00000  Uiso   1.00
O138   O     0.84780   0.30060   0.58974   0.00000  Uiso   1.00
N18    N     0.31321   0.82071   0.44544   0.00000  Uiso   1.00
O139   O     0.31295   0.86895   0.45963   0.00000  Uiso   1.00
O140   O     0.34142   0.80679   0.40640   0.00000  Uiso   1.00
N19    N     0.28109   0.15922   0.55421   0.00000  Uiso   1.00
O141   O     0.26615   0.11378   0.53882   0.00000  Uiso   1.00
O142   O     0.31343   0.16258   0.59249   0.00000  Uiso   1.00
N20    N     0.73486   0.84390   0.44573   0.00000  Uiso   1.00
O143   O     0.68956   0.86540   0.44783   0.00000  Uiso   1.00
O144   O     0.77303   0.86896   0.42523   0.00000  Uiso   1.00
N21    N     0.32029   0.81363   0.55448   0.00000  Uiso   1.00
O145   O     0.36818   0.81459   0.53976   0.00000  Uiso   1.00
O146   O     0.30657   0.84039   0.59459   0.00000  Uiso   1.00
N22    N     0.84436   0.26226   0.44599   0.00000  Uiso   1.00
O147   O     0.86920   0.30565   0.45023   0.00000  Uiso   1.00
O148   O     0.86727   0.22231   0.42592   0.00000  Uiso   1.00
N23    N     0.73429   0.84433   0.55471   0.00000  Uiso   1.00
O149   O     0.76034   0.88558   0.54311   0.00000  Uiso   1.00
O150   O     0.69909   0.84705   0.59028   0.00000  Uiso   1.00
N24    N     0.28172   0.16040   0.44476   0.00000  Uiso   1.00
O151   O     0.32950   0.14562   0.44884   0.00000  Uiso   1.00
O152   O     0.24921   0.13189   0.41928   0.00000  Uiso   1.00
N25    N     0.79985   0.94489   0.16901   0.00000  Uiso   1.00
O153   O     0.84829   0.95404   0.16011   0.00000  Uiso   1.00
O154   O     0.77533   0.91201   0.14004   0.00000  Uiso   1.00
N26    N     0.23349   0.05522   0.84495   0.00000  Uiso   1.00
O155   O     0.25950   0.04340   0.88625   0.00000  Uiso   1.00
O156   O     0.19880   0.09153   0.84734   0.00000  Uiso   1.00
N27    N     0.31865   0.94485   0.31602   0.00000  Uiso   1.00
O157   O     0.36745   0.95623   0.31585   0.00000  Uiso   1.00
O158   O     0.30228   0.90821   0.34605   0.00000  Uiso   1.00
N28    N     0.84421   0.05410   0.76019   0.00000  Uiso   1.00
O159   O     0.86793   0.05207   0.80439   0.00000  Uiso   1.00
O160   O     0.86777   0.07320   0.72035   0.00000  Uiso   1.00
N29    N     0.23460   0.94577   0.84466   0.00000  Uiso   1.00
O161   O     0.19037   0.94952   0.86788   0.00000  Uiso   1.00
O162   O     0.27336   0.92454   0.86849   0.00000  Uiso   1.00
N30    N     0.79714   0.05467   0.16709   0.00000  Uiso   1.00
O163   O     0.78839   0.04057   0.11969   0.00000  Uiso   1.00
O164   O     0.82823   0.09307   0.17592   0.00000  Uiso   1.00
N31    N     0.84454   0.94517   0.76168   0.00000  Uiso   1.00
O165   O     0.88432   0.95604   0.73328   0.00000  Uiso   1.00
O166   O     0.84896   0.91038   0.79761   0.00000  Uiso   1.00
N32    N     0.31648   0.05479   0.31854   0.00000  Uiso   1.00
O167   O     0.31725   0.04254   0.36719   0.00000  Uiso   1.00
O168   O     0.34605   0.09185   0.30229   0.00000  Uiso   1.00
N33    N     0.65500   0.05476   0.73784   0.00000  Uiso   1.00
O169   O     0.61495   0.04333   0.76563   0.00000  Uiso   1.00
O170   O     0.65086   0.09016   0.70247   0.00000  Uiso   1.00
N34    N     0.18335   0.94524   0.18148   0.00000  Uiso   1.00
O171   O     0.18226   0.95765   0.13288   0.00000  Uiso   1.00
O172   O     0.15395   0.90806   0.19778   0.00000  Uiso   1.00
N35    N     0.26322   0.05405   0.65676   0.00000  Uiso   1.00
O173   O     0.30812   0.05253   0.63463   0.00000  Uiso   1.00
O174   O     0.22385   0.07259   0.63174   0.00000  Uiso   1.00
N36    N     0.70287   0.94534   0.33289   0.00000  Uiso   1.00
O175   O     0.71162   0.95943   0.38029   0.00000  Uiso   1.00
O176   O     0.67175   0.90696   0.32405   0.00000  Uiso   1.00
N37    N     0.18149   0.05520   0.18376   0.00000  Uiso   1.00
O177   O     0.13260   0.04421   0.18420   0.00000  Uiso   1.00
O178   O     0.19808   0.09137   0.15327   0.00000  Uiso   1.00
N38    N     0.65540   0.94561   0.73883   0.00000  Uiso   1.00
O179   O     0.63289   0.94614   0.69396   0.00000  Uiso   1.00
O180   O     0.63132   0.92639   0.77831   0.00000  Uiso   1.00
N39    N     0.70027   0.05512   0.33103   0.00000  Uiso   1.00
O181   O     0.65180   0.04609   0.33991   0.00000  Uiso   1.00
O182   O     0.72491   0.08782   0.36010   0.00000  Uiso   1.00
N40    N     0.27163   0.94571   0.65864   0.00000  Uiso   1.00
O183   O     0.24471   0.95095   0.61658   0.00000  Uiso   1.00
O184   O     0.31597   0.92230   0.65699   0.00000  Uiso   1.00
N41    N     0.94597   0.74440   0.34546   0.00000  Uiso   1.00
O185   O     0.91371   0.70667   0.35251   0.00000  Uiso   1.00
O186   O     0.95247   0.77845   0.38181   0.00000  Uiso   1.00
N42    N     0.05509   0.16236   0.78768   0.00000  Uiso   1.00
O187   O     0.04833   0.14872   0.83545   0.00000  Uiso   1.00
O188   O     0.08383   0.13399   0.75784   0.00000  Uiso   1.00
N43    N     0.94622   0.77745   0.84196   0.00000  Uiso   1.00
O189   O     0.96207   0.76140   0.88681   0.00000  Uiso   1.00
O190   O     0.90839   0.81046   0.83976   0.00000  Uiso   1.00
N44    N     0.05366   0.23572   0.15606   0.00000  Uiso   1.00
O191   O     0.04986   0.19177   0.13197   0.00000  Uiso   1.00
O192   O     0.07366   0.27520   0.13257   0.00000  Uiso   1.00
N45    N     0.94580   0.16052   0.78433   0.00000  Uiso   1.00
O193   O     0.96078   0.11463   0.77022   0.00000  Uiso   1.00
O194   O     0.90781   0.16496   0.81672   0.00000  Uiso   1.00
N46    N     0.05485   0.74526   0.34511   0.00000  Uiso   1.00
O195   O     0.05898   0.78502   0.37556   0.00000  Uiso   1.00
O196   O     0.08162   0.70381   0.35467   0.00000  Uiso   1.00
N47    N     0.94488   0.23327   0.15643   0.00000  Uiso   1.00
O197   O     0.95525   0.25990   0.11524   0.00000  Uiso   1.00
O198   O     0.91008   0.19722   0.15408   0.00000  Uiso   1.00
N48    N     0.05547   0.77820   0.84045   0.00000  Uiso   1.00
O199   O     0.05289   0.82592   0.85605   0.00000  Uiso   1.00
O200   O     0.07905   0.74408   0.86880   0.00000  Uiso   1.00
N49    N     0.05556   0.27073   0.34253   0.00000  Uiso   1.00
O201   O     0.05660   0.31800   0.35958   0.00000  Uiso   1.00
O202   O     0.07585   0.23391   0.37003   0.00000  Uiso   1.00
N50    N     0.94493   0.72598   0.65776   0.00000  Uiso   1.00
O203   O     0.95652   0.74831   0.61441   0.00000  Uiso   1.00
O204   O     0.90894   0.69106   0.65832   0.00000  Uiso   1.00
N51    N     0.05474   0.33804   0.71508   0.00000  Uiso   1.00
O205   O     0.04968   0.35199   0.66716   0.00000  Uiso   1.00
O206   O     0.07999   0.36752   0.74694   0.00000  Uiso   1.00
N52    N     0.94610   0.75155   0.15503   0.00000  Uiso   1.00
O207   O     0.94992   0.79259   0.12642   0.00000  Uiso   1.00
O208   O     0.92784   0.70921   0.13513   0.00000  Uiso   1.00
N53    N     0.05395   0.72560   0.65790   0.00000  Uiso   1.00
O209   O     0.04943   0.67935   0.63872   0.00000  Uiso   1.00
O210   O     0.07624   0.76143   0.63090   0.00000  Uiso   1.00
N54    N     0.94634   0.27180   0.34366   0.00000  Uiso   1.00
O211   O     0.96217   0.25340   0.38760   0.00000  Uiso   1.00
O212   O     0.90911   0.30557   0.34326   0.00000  Uiso   1.00
N55    N     0.05437   0.75375   0.15475   0.00000  Uiso   1.00
O213   O     0.04455   0.72109   0.11785   0.00000  Uiso   1.00
O214   O     0.08770   0.79040   0.14697   0.00000  Uiso   1.00
N56    N     0.94554   0.33972   0.71702   0.00000  Uiso   1.00
O215   O     0.96051   0.38539   0.73168   0.00000  Uiso   1.00
O216   O     0.90731   0.33579   0.68472   0.00000  Uiso   1.00
N57    N     0.84377   0.76840   0.05444   0.00000  Uiso   1.00
O217   O     0.88651   0.74592   0.04076   0.00000  Uiso   1.00
O218   O     0.84482   0.80335   0.09056   0.00000  Uiso   1.00
N58    N     0.15798   0.22549   0.94415   0.00000  Uiso   1.00
O219   O     0.14135   0.17815   0.94557   0.00000  Uiso   1.00
O220   O     0.13045   0.26082   0.92138   0.00000  Uiso   1.00
N59    N     0.76510   0.15610   0.05426   0.00000  Uiso   1.00
O221   O     0.81038   0.13457   0.05211   0.00000  Uiso   1.00
O222   O     0.72693   0.13105   0.07479   0.00000  Uiso   1.00
N60    N     0.21503   0.83938   0.94570   0.00000  Uiso   1.00
O223   O     0.22803   0.88541   0.96113   0.00000  Uiso   1.00
O224   O     0.18307   0.83470   0.90723   0.00000  Uiso   1.00
N61    N     0.15673   0.22500   0.05363   0.00000  Uiso   1.00
O225   O     0.11232   0.24214   0.03768   0.00000  Uiso   1.00
O226   O     0.15814   0.19226   0.09165   0.00000  Uiso   1.00
N62    N     0.84346   0.76437   0.94538   0.00000  Uiso   1.00
O227   O     0.86573   0.80931   0.94712   0.00000  Uiso   1.00
O228   O     0.86799   0.72505   0.92599   0.00000  Uiso   1.00
N63    N     0.21441   0.83820   0.05522   0.00000  Uiso   1.00
O229   O     0.16632   0.85165   0.05035   0.00000  Uiso   1.00
O230   O     0.24547   0.86707   0.08209   0.00000  Uiso   1.00
N64    N     0.76561   0.15566   0.94529   0.00000  Uiso   1.00
O231   O     0.73951   0.11444   0.95688   0.00000  Uiso   1.00
O232   O     0.80080   0.15291   0.90971   0.00000  Uiso   1.00
N65    N     0.28295   0.66072   0.94533   0.00000  Uiso   1.00
O233   O     0.33011   0.64468   0.95138   0.00000  Uiso   1.00
O234   O     0.25072   0.63290   0.91876   0.00000  Uiso   1.00
N66    N     0.73402   0.34453   0.05471   0.00000  Uiso   1.00
O235   O     0.75993   0.38585   0.04305   0.00000  Uiso   1.00
O236   O     0.69895   0.34714   0.09042   0.00000  Uiso   1.00
N67    N     0.34237   0.27117   0.94596   0.00000  Uiso   1.00
O237   O     0.38530   0.24851   0.95881   0.00000  Uiso   1.00
O238   O     0.34276   0.30630   0.91012   0.00000  Uiso   1.00
N68    N     0.65655   0.73598   0.05460   0.00000  Uiso   1.00
O239   O     0.63411   0.69113   0.05285   0.00000  Uiso   1.00
O240   O     0.63213   0.77542   0.07390   0.00000  Uiso   1.00
N69    N     0.73465   0.34417   0.94564   0.00000  Uiso   1.00
O241   O     0.68934   0.36567   0.94758   0.00000  Uiso   1.00
O242   O     0.77276   0.36913   0.92488   0.00000  Uiso   1.00
N70    N     0.28236   0.65994   0.05472   0.00000  Uiso   1.00
O243   O     0.26448   0.61472   0.04210   0.00000  Uiso   1.00
O244   O     0.31586   0.66347   0.09197   0.00000  Uiso   1.00
N71    N     0.65623   0.73196   0.94558   0.00000  Uiso   1.00
O245   O     0.61360   0.75467   0.95919   0.00000  Uiso   1.00
O246   O     0.65504   0.69698   0.90949   0.00000  Uiso   1.00
N72    N     0.34218   0.26695   0.05480   0.00000  Uiso   1.00
O247   O     0.36425   0.31195   0.05234   0.00000  Uiso   1.00
O248   O     0.36719   0.22797   0.07423   0.00000  Uiso   1.00
N73    N     0.65492   0.44569   0.76119   0.00000  Uiso   1.00
O249   O     0.61503   0.45721   0.73295   0.00000  Uiso   1.00
O250   O     0.65058   0.41043   0.79663   0.00000  Uiso   1.00
N74    N     0.34355   0.55434   0.23381   0.00000  Uiso   1.00
O251   O     0.36424   0.55228   0.18821   0.00000  Uiso   1.00
O252   O     0.36903   0.57525   0.27169   0.00000  Uiso   1.00
N75    N     0.65614   0.44563   0.23513   0.00000  Uiso   1.00
O253   O     0.63484   0.44714   0.18970   0.00000  Uiso   1.00
O254   O     0.63109   0.42534   0.27344   0.00000  Uiso   1.00
N76    N     0.19255   0.55519   0.67424   0.00000  Uiso   1.00
O255   O     0.14376   0.54512   0.66862   0.00000  Uiso   1.00
O256   O     0.21385   0.58992   0.64510   0.00000  Uiso   1.00
N77    N     0.34401   0.44511   0.23356   0.00000  Uiso   1.00
O257   O     0.38551   0.45694   0.25918   0.00000  Uiso   1.00
O258   O     0.34624   0.40921   0.19844   0.00000  Uiso   1.00
N78    N     0.65532   0.55482   0.76017   0.00000  Uiso   1.00
O259   O     0.63254   0.55445   0.80479   0.00000  Uiso   1.00
O260   O     0.63139   0.57391   0.72037   0.00000  Uiso   1.00
N79    N     0.19599   0.44536   0.67093   0.00000  Uiso   1.00
O261   O     0.20043   0.46017   0.62321   0.00000  Uiso   1.00
O262   O     0.16711   0.40576   0.68139   0.00000  Uiso   1.00
N80    N     0.65576   0.55482   0.23446   0.00000  Uiso   1.00
O263   O     0.61467   0.54325   0.26063   0.00000  Uiso   1.00
O264   O     0.65297   0.59038   0.19915   0.00000  Uiso   1.00
N81    N     0.44531   0.23414   0.34362   0.00000  Uiso   1.00
O265   O     0.45569   0.26126   0.38463   0.00000  Uiso   1.00
O266   O     0.41069   0.19796   0.34617   0.00000  Uiso   1.00
N82    N     0.55403   0.75493   0.65453   0.00000  Uiso   1.00
O267   O     0.58612   0.79274   0.64714   0.00000  Uiso   1.00
O268   O     0.54777   0.72045   0.61853   0.00000  Uiso   1.00
N83    N     0.44625   0.77124   0.34327   0.00000  Uiso   1.00
O269   O     0.45089   0.81683   0.36392   0.00000  Uiso   1.00
O270   O     0.42399   0.73457   0.36917   0.00000  Uiso   1.00
N84    N     0.55290   0.25914   0.65559   0.00000  Uiso   1.00
O271   O     0.56725   0.30453   0.63978   0.00000  Uiso   1.00
O272   O     0.55059   0.22104   0.62291   0.00000  Uiso   1.00
N85    N     0.44519   0.75405   0.65485   0.00000  Uiso   1.00
O273   O     0.44121   0.71413   0.62459   0.00000  Uiso   1.00
O274   O     0.41847   0.79545   0.64494   0.00000  Uiso   1.00
N86    N     0.55406   0.23735   0.34405   0.00000  Uiso   1.00
O275   O     0.55092   0.19373   0.36868   0.00000  Uiso   1.00
O276   O     0.57338   0.27754   0.36712   0.00000  Uiso   1.00
N87    N     0.44520   0.25254   0.65506   0.00000  Uiso   1.00
O277   O     0.41363   0.21513   0.64397   0.00000  Uiso   1.00
O278   O     0.45283   0.28898   0.62145   0.00000  Uiso   1.00
N88    N     0.55524   0.77119   0.34303   0.00000  Uiso   1.00
O279   O     0.54398   0.74733   0.38565   0.00000  Uiso   1.00
O280   O     0.59092   0.80643   0.34352   0.00000  Uiso   1.00
N89    N     0.18649   0.67805   0.55426   0.00000  Uiso   1.00
O281   O     0.18632   0.62984   0.53994   0.00000  Uiso   1.00
O282   O     0.15895   0.69194   0.59377   0.00000  Uiso   1.00
N90    N     0.65789   0.22588   0.44534   0.00000  Uiso   1.00
O283   O     0.61301   0.24337   0.45919   0.00000  Uiso   1.00
O284   O     0.66025   0.19112   0.40908   0.00000  Uiso   1.00
N91    N     0.76523   0.65582   0.55438   0.00000  Uiso   1.00
O285   O     0.81055   0.63434   0.55252   0.00000  Uiso   1.00
O286   O     0.72709   0.63087   0.57508   0.00000  Uiso   1.00
N92    N     0.22105   0.34127   0.44532   0.00000  Uiso   1.00
O287   O     0.24067   0.38581   0.45776   0.00000  Uiso   1.00
O288   O     0.18708   0.33896   0.40839   0.00000  Uiso   1.00
N93    N     0.65722   0.23469   0.55468   0.00000  Uiso   1.00
O289   O     0.65168   0.19351   0.58279   0.00000  Uiso   1.00
O290   O     0.62376   0.27196   0.55787   0.00000  Uiso   1.00
N94    N     0.18244   0.68223   0.44463   0.00000  Uiso   1.00
O291   O     0.13389   0.68094   0.45697   0.00000  Uiso   1.00
O292   O     0.19905   0.65278   0.40747   0.00000  Uiso   1.00
N95    N     0.22103   0.34067   0.55466   0.00000  Uiso   1.00
O293   O     0.17424   0.35805   0.54948   0.00000  Uiso   1.00
O294   O     0.25480   0.36803   0.57976   0.00000  Uiso   1.00
N96    N     0.76583   0.65544   0.44530   0.00000  Uiso   1.00
O295   O     0.73988   0.61415   0.45700   0.00000  Uiso   1.00
O296   O     0.80087   0.65277   0.40957   0.00000  Uiso   1.00
loop_
_geom_bond_atom_site_label_1
_geom_bond_atom_site_label_2
_geom_bond_distance
_geom_bond_site_symmetry_2
_ccdc_geom_bond_type
Zn1    O80     1.941   .     S
Zn1    O1      1.947   .     S
Zn1    O100    1.935   .     S
Zn1    O57     1.938   .     S
Zn2    O58     1.938   .     S
Zn2    O2      1.947   .     S
Zn2    O79     1.941   .     S
Zn2    O99     1.935   .     S
Zn3    O50     1.937   .     S
Zn3    O3      1.948   .     S
Zn3    O103    1.936   .     S
Zn3    O75     1.939   .     S
Zn4    O4      1.948   .     S
Zn4    O76     1.939   .     S
Zn4    O49     1.937   .     S
Zn4    O104    1.936   .     S
Zn5    O5      1.948   .     S
Zn5    O53     1.939   .     S
Zn5    O72     1.939   .     S
Zn5    O102    1.934   .     S
Zn6    O6      1.948   .     S
Zn6    O54     1.939   .     S
Zn6    O101    1.934   .     S
Zn6    O71     1.939   .     S
Zn7    O7      1.953   .     S
Zn7    O67     1.938   .     S
Zn7    O62     1.937   .     S
Zn7    O97     1.934   .     S
Zn8    O61     1.937   .     S
Zn8    O8      1.953   .     S
Zn8    O68     1.938   .     S
Zn8    O98     1.934   .     S
Zn9    O73     1.934   .     S
Zn9    O81     1.939   .     S
Zn9    O8      1.948   .     S
Zn9    O48     1.939   .     S
Zn10   O74     1.934   .     S
Zn10   O82     1.939   .     S
Zn10   O7      1.948   .     S
Zn10   O47     1.939   .     S
Zn11   O3      1.947   .     S
Zn11   O86     1.941   .     S
Zn11   O43     1.938   .     S
Zn11   O66     1.935   .     S
Zn12   O65     1.935   .     S
Zn12   O85     1.941   .     S
Zn12   O4      1.947   .     S
Zn12   O44     1.938   .     S
Zn13   O1      1.948   .     S
Zn13   O40     1.937   .     S
Zn13   O69     1.936   .     S
Zn13   O89     1.939   .     S
Zn14   O39     1.937   .     S
Zn14   O70     1.936   .     S
Zn14   O2      1.948   .     S
Zn14   O90     1.939   .     S
Zn15   O35     1.937   .     S
Zn15   O78     1.934   .     S
Zn15   O94     1.938   .     S
Zn15   O6      1.953   .     S
Zn16   O77     1.934   .     S
Zn16   O93     1.938   .     S
Zn16   O5      1.953   .     S
Zn16   O36     1.937   .     S
Zn17   O64     1.936   .     S
Zn17   O88     1.937   .     S
Zn17   O41     1.939   .     S
Zn17   O5      1.948   .     S
Zn18   O6      1.948   .     S
Zn18   O63     1.936   .     S
Zn18   O87     1.937   .     S
Zn18   O42     1.939   .     S
Zn19   O3      1.948   .     S
Zn19   O34     1.939   .     S
Zn19   O59     1.934   .     S
Zn19   O95     1.939   .     S
Zn20   O60     1.934   .     S
Zn20   O4      1.948   .     S
Zn20   O33     1.939   .     S
Zn20   O96     1.939   .     S
Zn21   O92     1.938   .     S
Zn21   O56     1.935   .     S
Zn21   O37     1.941   .     S
Zn21   O8      1.947   .     S
Zn22   O91     1.938   .     S
Zn22   O55     1.935   .     S
Zn22   O7      1.947   .     S
Zn22   O38     1.941   .     S
Zn23   O51     1.934   .     S
Zn23   O2      1.953   .     S
Zn23   O46     1.938   .     S
Zn23   O83     1.937   .     S
Zn24   O1      1.953   .     S
Zn24   O45     1.938   .     S
Zn24   O84     1.937   .     S
Zn24   O52     1.934   .     S
Zn25   O28     1.935   .     S
Zn25   O20     1.938   .     S
Zn25   O13     1.941   .     S
Zn25   O5      1.947   .     S
Zn26   O27     1.935   .     S
Zn26   O19     1.938   .     S
Zn26   O6      1.947   .     S
Zn26   O14     1.941   .     S
Zn27   O18     1.939   .     S
Zn27   O15     1.937   .     S
Zn27   O7      1.948   .     S
Zn27   O31     1.936   .     S
Zn28   O8      1.948   .     S
Zn28   O17     1.939   .     S
Zn28   O16     1.937   .     S
Zn28   O32     1.936   .     S
Zn29   O1      1.948   .     S
Zn29   O9      1.939   .     S
Zn29   O30     1.934   .     S
Zn29   O24     1.939   .     S
Zn30   O29     1.934   .     S
Zn30   O2      1.948   .     S
Zn30   O10     1.939   .     S
Zn30   O23     1.939   .     S
Zn31   O25     1.934   .     S
Zn31   O11     1.937   .     S
Zn31   O22     1.938   .     S
Zn31   O3      1.953   .     S
Zn32   O21     1.938   .     S
Zn32   O26     1.934   .     S
Zn32   O4      1.953   .     S
Zn32   O12     1.937   .     S
O9     C1      1.275   .     A
O10    C2      1.278   .     A
O11    C3      1.274   .     A
O12    C4      1.279   .     A
O13    C5      1.274   .     A
O14    C6      1.275   .     A
O15    C7      1.280   .     A
O16    C8      1.275   .     A
O17    C9      1.273   .     A
O18    C10     1.274   .     A
O19    C11     1.273   .     A
O20    C12     1.274   .     A
O21    C13     1.276   .     A
O22    C14     1.280   .     A
O23    C15     1.274   .     A
O24    C16     1.279   .     A
O25    C17     1.278   .     A
O26    C18     1.280   .     A
O27    C19     1.272   .     A
O28    C20     1.278   .     A
O29    C21     1.271   .     A
O30    C22     1.278   .     A
O31    C23     1.274   .     A
O32    C24     1.275   .     A
O33    C25     1.279   .     A
O34    C26     1.275   .     A
O35    C27     1.274   .     A
O36    C28     1.280   .     A
O37    C29     1.276   .     A
O38    C30     1.277   .     A
O39    C31     1.278   .     A
O40    C32     1.273   .     A
O41    C33     1.275   .     A
O42    C34     1.273   .     A
O43    C35     1.277   .     A
O44    C36     1.272   .     A
O45    C37     1.278   .     A
O46    C38     1.276   .     A
O47    C39     1.274   .     A
O48    C40     1.281   .     A
O49    C36     1.278   .     A
O50    C35     1.271   .     A
O51    C41     1.280   .     A
O52    C42     1.278   .     A
O53    C28     1.274   .     A
O54    C27     1.279   .     A
O55    C43     1.273   .     A
O56    C44     1.280   .     A
O57    C32     1.278   .     A
O58    C31     1.272   .     A
O59    C45     1.271   .     A
O60    C46     1.277   .     A
O61    C40     1.274   .     A
O62    C39     1.280   .     A
O63    C47     1.275   .     A
O64    C48     1.275   .     A
O65    C46     1.273   .     A
O66    C45     1.278   .     A
O67    C30     1.276   .     A
O68    C29     1.277   .     A
O69    C42     1.275   .     A
O70    C41     1.274   .     A
O71    C34     1.276   .     A
O72    C33     1.275   .     A
O73    C44     1.271   .     A
O74    C43     1.277   .     A
O75    C26     1.275   .     A
O76    C25     1.273   .     A
O77    C48     1.280   .     A
O78    C47     1.278   .     A
O79    C38     1.277   .     A
O80    C37     1.276   .     A
O81    C9      1.277   .     A
O82    C10     1.277   .     A
O83    C15     1.280   .     A
O84    C16     1.274   .     A
O85    C13     1.277   .     A
O86    C14     1.273   .     A
O87    C11     1.275   .     A
O88    C12     1.275   .     A
O89    C1      1.275   .     A
O90    C2      1.274   .     A
O91    C7      1.270   .     A
O92    C8      1.276   .     A
O93    C5      1.281   .     A
O94    C6      1.279   .     A
O95    C3      1.281   .     A
O96    C4      1.275   .     A
O97    C23     1.279   .     A
O98    C24     1.278   .     A
O99    C21     1.278   .     A
O100   C22     1.272   .     A
O101   C19     1.278   .     A
O102   C20     1.272   .     A
O103   C17     1.275   .     A
O104   C18     1.274   .     A
C1     C154    1.456   .     S
C2     C153    1.459   .     S
C3     C168    1.458   .     S
C4     C167    1.456   .     S
C5     C155    1.459   .     S
C6     C156    1.457   .     S
C7     C161    1.457   .     S
C8     C162    1.457   .     S
C9     C158    1.455   .     S
C10    C157    1.458   .     S
C11    C165    1.453   .     S
C12    C166    1.455   .     S
C13    C159    1.458   .     S
C14    C160    1.456   .     S
C15    C164    1.456   .     S
C16    C163    1.454   .     S
C17    C152    1.453   .     S
C18    C151    1.454   .     S
C19    C145    1.453   .     S
C20    C146    1.454   .     S
C21    C149    1.452   .     S
C22    C150    1.453   .     S
C23    C148    1.454   .     S
C24    C147    1.454   .     S
C25    C182    1.460   .     S
C26    C181    1.456   .     S
C27    C188    1.454   .     S
C28    C187    1.456   .     S
C29    C179    1.457   .     S
C30    C180    1.457   .     S
C31    C185    1.456   .     S
C32    C186    1.459   .     S
C33    C178    1.457   .     S
C34    C177    1.455   .     S
C35    C189    1.453   .     S
C36    C190    1.456   .     S
C37    C183    1.458   .     S
C38    C184    1.457   .     S
C39    C192    1.456   .     S
C40    C191    1.457   .     S
C41    C172    1.453   .     S
C42    C171    1.453   .     S
C43    C169    1.453   .     S
C44    C170    1.455   .     S
C45    C173    1.451   .     S
C46    C174    1.453   .     S
C47    C176    1.453   .     S
C48    C175    1.454   .     S
C49    C54     1.400   .     A
C49    N1      1.434   .     S
C49    C150    1.409   .     A
C50    C149    1.407   .     A
C50    C53     1.398   .     A
C50    N2      1.439   .     S
C51    N3      1.438   .     S
C51    C152    1.409   .     A
C51    C56     1.405   .     A
C52    C55     1.400   .     A
C52    C151    1.409   .     A
C52    N4      1.434   .     S
C53    C146    1.409   .     A
C53    N5      1.432   .     S
C54    C145    1.409   .     A
C54    N6      1.440   .     S
C55    C148    1.409   .     A
C55    N7      1.439   .     S
C56    N8      1.441   .     S
C56    C147    1.410   .     A
C57    N9      1.439   .     S
C57    C62     1.398   .     A
C57    C158    1.407   .     A
C58    C61     1.403   .     A
C58    N10     1.434   .     S
C58    C157    1.404   .     A
C59    C160    1.411   .     A
C59    N11     1.431   .     S
C59    C64     1.399   .     A
C60    N12     1.440   .     S
C60    C159    1.413   .     A
C60    C63     1.403   .     A
C61    N13     1.439   .     S
C61    C154    1.413   .     A
C62    N14     1.431   .     S
C62    C153    1.410   .     A
C63    C156    1.404   .     A
C63    N15     1.433   .     S
C64    N16     1.439   .     S
C64    C155    1.408   .     A
C65    C70     1.399   .     A
C65    N17     1.439   .     S
C65    C166    1.406   .     A
C66    C69     1.403   .     A
C66    N18     1.440   .     S
C66    C165    1.407   .     A
C67    N19     1.440   .     S
C67    C168    1.411   .     A
C67    C72     1.404   .     A
C68    C167    1.409   .     A
C68    C71     1.401   .     A
C68    N20     1.433   .     S
C69    C162    1.410   .     A
C69    N21     1.438   .     S
C70    N22     1.431   .     S
C70    C161    1.409   .     A
C71    C164    1.409   .     A
C71    N23     1.439   .     S
C72    C163    1.407   .     A
C72    N24     1.435   .     S
C73    C174    1.409   .     A
C73    N25     1.437   .     S
C73    C78     1.404   1_565 S
C74    N26     1.439   .     S
C74    C173    1.409   .     A
C74    C77     1.402   1_545 S
C75    N27     1.439   .     S
C75    C176    1.409   .     A
C75    C80     1.405   1_565 S
C76    N28     1.432   .     S
C76    C175    1.409   .     A
C76    C79     1.398   1_545 S
C77    N29     1.432   .     S
C77    C170    1.409   .     A
C77    C74     1.402   1_565 S
C78    N30     1.440   .     S
C78    C169    1.409   .     A
C78    C73     1.404   1_545 S
C79    C172    1.408   .     A
C79    N31     1.439   .     S
C79    C76     1.398   1_565 S
C80    N32     1.439   .     S
C80    C171    1.409   .     A
C80    C75     1.405   1_545 S
C81    C175    1.409   .     A
C81    N33     1.439   .     S
C81    C86     1.400   1_545 S
C82    C176    1.409   .     A
C82    N34     1.440   .     S
C82    C85     1.405   1_565 S
C83    C173    1.406   .     A
C83    N35     1.432   .     S
C83    C88     1.395   1_545 S
C84    N36     1.440   .     S
C84    C174    1.409   .     A
C84    C87     1.404   1_565 S
C85    C171    1.409   .     A
C85    N37     1.439   .     S
C85    C82     1.405   1_545 S
C86    C172    1.409   .     A
C86    N38     1.434   .     S
C86    C81     1.400   1_565 S
C87    C169    1.409   .     A
C87    N39     1.437   .     S
C87    C84     1.404   1_545 S
C88    N40     1.431   .     S
C88    C170    1.403   .     A
C88    C83     1.395   1_565 S
C89    N41     1.437   .     S
C89    C182    1.410   .     A
C89    C94     1.401   1_655 S
C90    N42     1.436   .     S
C90    C181    1.407   .     A
C90    C93     1.404   1_455 S
C91    N43     1.439   .     S
C91    C184    1.412   .     A
C91    C96     1.404   1_655 S
C92    C183    1.407   .     A
C92    N44     1.431   .     S
C92    C95     1.400   1_455 S
C93    N45     1.440   .     S
C93    C178    1.412   .     A
C93    C90     1.404   1_655 S
C94    C177    1.410   .     A
C94    N46     1.434   .     S
C94    C89     1.401   1_455 S
C95    C180    1.409   .     A
C95    N47     1.439   .     S
C95    C92     1.400   1_655 S
C96    N48     1.434   .     S
C96    C179    1.406   .     A
C96    C91     1.404   1_455 S
C97    C183    1.405   .     A
C97    N49     1.434   .     S
C97    C102    1.403   1_455 S
C98    C184    1.410   .     A
C98    N50     1.439   .     S
C98    C101    1.402   1_655 S
C99    C181    1.406   .     A
C99    N51     1.434   .     S
C99    C104    1.403   1_455 S
C100   C182    1.410   .     A
C100   N52     1.431   .     S
C100   C103    1.398   1_655 S
C101   C179    1.407   .     A
C101   N53     1.433   .     S
C101   C98     1.402   1_455 S
C102   C180    1.413   .     A
C102   N54     1.439   .     S
C102   C97     1.403   1_655 S
C103   N55     1.439   .     S
C103   C177    1.406   .     A
C103   C100    1.398   1_455 S
C104   N56     1.440   .     S
C104   C178    1.411   .     A
C104   C99     1.403   1_655 S
C105   C190    1.407   .     A
C105   N57     1.438   .     S
C105   C110    1.401   1_554 S
C106   C189    1.407   .     A
C106   N58     1.434   .     S
C106   C109    1.404   1_556 S
C107   N59     1.433   .     S
C107   C192    1.409   .     A
C107   C112    1.401   1_554 S
C108   C191    1.410   .     A
C108   N60     1.440   .     S
C108   C111    1.404   1_556 S
C109   C186    1.411   .     A
C109   N61     1.439   .     S
C109   C106    1.404   1_554 S
C110   C185    1.407   .     A
C110   N62     1.431   .     S
C110   C105    1.401   1_556 S
C111   N63     1.435   .     S
C111   C188    1.408   .     A
C111   C108    1.404   1_554 S
C112   C187    1.409   .     A
C112   N64     1.439   .     S
C112   C107    1.401   1_556 S
C113   C191    1.409   .     A
C113   N65     1.435   .     S
C113   C118    1.403   1_556 S
C114   C192    1.409   .     A
C114   N66     1.439   .     S
C114   C117    1.401   1_554 S
C115   C189    1.406   .     A
C115   N67     1.438   .     S
C115   C120    1.399   1_556 S
C116   N68     1.431   .     S
C116   C190    1.407   .     A
C116   C119    1.400   1_554 S
C117   C187    1.409   .     A
C117   N69     1.434   .     S
C117   C114    1.401   1_556 S
C118   N70     1.440   .     S
C118   C188    1.408   .     A
C118   C113    1.403   1_554 S
C119   N71     1.438   .     S
C119   C185    1.407   .     A
C119   C116    1.400   1_556 S
C120   C186    1.406   .     A
C120   N72     1.430   .     S
C120   C115    1.399   1_554 S
C121   C126    1.400   .     A
C121   N73     1.439   .     S
C121   C146    1.409   .     A
C122   C145    1.409   .     A
C122   N74     1.434   .     S
C122   C125    1.400   .     A
C123   N75     1.434   .     S
C123   C148    1.409   .     A
C123   C128    1.400   .     A
C124   N76     1.438   .     S
C124   C127    1.404   .     A
C124   C147    1.409   .     A
C125   N77     1.439   .     S
C125   C150    1.409   .     A
C126   N78     1.434   .     S
C126   C149    1.409   .     A
C127   C152    1.410   .     A
C127   N79     1.441   .     S
C128   C151    1.409   .     A
C128   N80     1.439   .     S
C129   C134    1.400   .     A
C129   C154    1.408   .     A
C129   N81     1.439   .     S
C130   N82     1.437   .     S
C130   C133    1.401   .     A
C130   C153    1.410   .     A
C131   C136    1.402   .     A
C131   C156    1.407   .     A
C131   N83     1.433   .     S
C132   N84     1.428   .     S
C132   C155    1.410   .     A
C132   C135    1.396   .     A
C133   N85     1.434   .     S
C133   C158    1.410   .     A
C134   N86     1.430   .     S
C134   C157    1.407   .     A
C135   N87     1.438   .     S
C135   C160    1.405   .     A
C136   C159    1.410   .     A
C136   N88     1.439   .     S
C137   C162    1.411   .     A
C137   C142    1.406   .     A
C137   N89     1.440   .     S
C138   N90     1.441   .     S
C138   C161    1.408   .     A
C138   C141    1.403   .     A
C139   N91     1.434   .     S
C139   C144    1.401   .     A
C139   C164    1.409   .     A
C140   C163    1.408   .     A
C140   N92     1.440   .     S
C140   C143    1.403   .     A
C141   C166    1.406   .     A
C141   N93     1.429   .     S
C142   C165    1.409   .     A
C142   N94     1.439   .     S
C143   C168    1.409   .     A
C143   N95     1.434   .     S
C144   C167    1.409   .     A
C144   N96     1.439   .     S
N1     O106    1.301   .     A
N1     O105    1.301   .     A
N2     O107    1.301   .     A
N2     O108    1.301   .     A
N3     O109    1.301   .     A
N3     O110    1.301   .     A
N4     O112    1.301   .     A
N4     O111    1.301   .     A
N5     O114    1.301   .     A
N5     O113    1.301   .     A
N6     O115    1.301   .     A
N6     O116    1.301   .     A
N7     O117    1.301   .     A
N7     O118    1.301   .     A
N8     O119    1.301   .     A
N8     O120    1.301   .     A
N9     O122    1.302   .     A
N9     O121    1.301   .     A
N10    O124    1.301   .     A
N10    O123    1.301   .     A
N11    O125    1.301   .     A
N11    O126    1.301   .     A
N12    O128    1.301   .     A
N12    O127    1.301   .     A
N13    O129    1.301   .     A
N13    O130    1.301   .     A
N14    O131    1.301   .     A
N14    O132    1.301   .     A
N15    O133    1.301   .     A
N15    O134    1.301   .     A
N16    O135    1.301   .     A
N16    O136    1.302   .     A
N17    O138    1.301   .     A
N17    O137    1.301   .     A
N18    O140    1.300   .     A
N18    O139    1.301   .     A
N19    O141    1.301   .     A
N19    O142    1.301   .     A
N20    O144    1.301   .     A
N20    O143    1.301   .     A
N21    O145    1.301   .     A
N21    O146    1.299   .     A
N22    O148    1.300   .     A
N22    O147    1.301   .     A
N23    O149    1.301   .     A
N23    O150    1.301   .     A
N24    O152    1.301   .     A
N24    O151    1.301   .     A
N25    O153    1.301   .     A
N25    O154    1.301   .     A
N26    O155    1.301   .     A
N26    O156    1.302   .     A
N27    O158    1.301   .     A
N27    O157    1.301   .     A
N28    O159    1.301   .     A
N28    O160    1.301   .     A
N29    O162    1.301   .     A
N29    O161    1.301   .     A
N30    O163    1.301   .     A
N30    O164    1.301   .     A
N31    O165    1.301   .     A
N31    O166    1.301   .     A
N32    O167    1.301   .     A
N32    O168    1.301   .     A
N33    O169    1.301   .     A
N33    O170    1.301   .     A
N34    O171    1.301   .     A
N34    O172    1.301   .     A
N35    O173    1.301   .     A
N35    O174    1.300   .     A
N36    O175    1.301   .     A
N36    O176    1.301   .     A
N37    O177    1.301   .     A
N37    O178    1.301   .     A
N38    O179    1.301   .     A
N38    O180    1.301   .     A
N39    O182    1.301   .     A
N39    O181    1.301   .     A
N40    O184    1.300   .     A
N40    O183    1.301   .     A
N41    O186    1.301   .     A
N41    O185    1.301   .     A
N42    O187    1.301   .     A
N42    O188    1.301   .     A
N43    O190    1.301   .     A
N43    O189    1.301   .     A
N44    O192    1.300   .     A
N44    O191    1.301   .     A
N45    O193    1.301   .     A
N45    O194    1.301   .     A
N46    O195    1.301   .     A
N46    O196    1.301   .     A
N47    O198    1.301   .     A
N47    O197    1.301   .     A
N48    O199    1.301   .     A
N48    O200    1.301   .     A
N49    O202    1.301   .     A
N49    O201    1.301   .     A
N50    O204    1.301   .     A
N50    O203    1.301   .     A
N51    O205    1.301   .     A
N51    O206    1.301   .     A
N52    O207    1.301   .     A
N52    O208    1.301   .     A
N53    O209    1.301   .     A
N53    O210    1.301   .     A
N54    O211    1.301   .     A
N54    O212    1.301   .     A
N55    O214    1.302   .     A
N55    O213    1.301   .     A
N56    O216    1.301   .     A
N56    O215    1.301   .     A
N57    O218    1.301   .     A
N57    O217    1.301   .     A
N58    O219    1.301   .     A
N58    O220    1.301   .     A
N59    O221    1.301   .     A
N59    O222    1.301   .     A
N60    O223    1.301   .     A
N60    O224    1.301   .     A
N61    O226    1.301   .     A
N61    O225    1.301   .     A
N62    O228    1.300   .     A
N62    O227    1.301   .     A
N63    O229    1.301   .     A
N63    O230    1.301   .     A
N64    O231    1.301   .     A
N64    O232    1.301   .     A
N65    O234    1.300   .     A
N65    O233    1.301   .     A
N66    O236    1.302   .     A
N66    O235    1.301   .     A
N67    O238    1.301   .     A
N67    O237    1.301   .     A
N68    O239    1.301   .     A
N68    O240    1.300   .     A
N69    O242    1.301   .     A
N69    O241    1.301   .     A
N70    O244    1.301   .     A
N70    O243    1.301   .     A
N71    O245    1.301   .     A
N71    O246    1.301   .     A
N72    O247    1.301   .     A
N72    O248    1.300   .     A
N73    O250    1.301   .     A
N73    O249    1.301   .     A
N74    O252    1.301   .     A
N74    O251    1.301   .     A
N75    O254    1.301   .     A
N75    O253    1.301   .     A
N76    O255    1.301   .     A
N76    O256    1.301   .     A
N77    O257    1.301   .     A
N77    O258    1.301   .     A
N78    O259    1.301   .     A
N78    O260    1.301   .     A
N79    O261    1.301   .     A
N79    O262    1.301   .     A
N80    O263    1.301   .     A
N80    O264    1.301   .     A
N81    O266    1.301   .     A
N81    O265    1.301   .     A
N82    O268    1.301   .     A
N82    O267    1.301   .     A
N83    O270    1.301   .     A
N83    O269    1.301   .     A
N84    O272    1.301   .     A
N84    O271    1.301   .     A
N85    O273    1.301   .     A
N85    O274    1.301   .     A
N86    O275    1.301   .     A
N86    O276    1.300   .     A
N87    O277    1.301   .     A
N87    O278    1.301   .     A
N88    O280    1.301   .     A
N88    O279    1.301   .     A
N89    O282    1.300   .     A
N89    O281    1.301   .     A
N90    O283    1.300   .     A
N90    O284    1.302   .     A
N91    O285    1.301   .     A
N91    O286    1.301   .     A
N92    O288    1.301   .     A
N92    O287    1.301   .     A
N93    O289    1.301   .     A
N93    O290    1.299   .     A
N94    O291    1.301   .     A
N94    O292    1.301   .     A
N95    O293    1.301   .     A
N95    O294    1.301   .     A
N96    O296    1.301   .     A
N96    O295    1.301   .     A
