data_str_m3_o1_o17_pcu_sym.90
_audit_creation_date              2020-01-03
_audit_creation_method            'Materials Studio'
_symmetry_space_group_name_H-M    'P1'
_symmetry_Int_Tables_number       1
_symmetry_cell_setting            triclinic
loop_
_symmetry_equiv_pos_as_xyz
  x,y,z
_cell_length_a                    32.2789
_cell_length_b                    30.0464
_cell_length_c                    30.0092
_cell_angle_alpha                 91.3250
_cell_angle_beta                  90.8906
_cell_angle_gamma                 90.1063
loop_
_atom_site_label
_atom_site_type_symbol
_atom_site_fract_x
_atom_site_fract_y
_atom_site_fract_z
_atom_site_U_iso_or_equiv
_atom_site_adp_type
_atom_site_occupancy
C1     C     0.08691   0.16669   0.25441   0.00000  Uiso   1.00
C2     C     0.04232   0.16657   0.25970   0.00000  Uiso   1.00
C3     C     0.19126   0.02435   0.27925   0.00000  Uiso   1.00
C4     C     0.14160   0.30882   0.22103   0.00000  Uiso   1.00
C5     C     0.14185   0.02312   0.22084   0.00000  Uiso   1.00
C6     C     0.19157   0.31020   0.27879   0.00000  Uiso   1.00
C7     C     0.16633   0.16623   0.16367   0.00000  Uiso   1.00
C8     C     0.16789   0.16732   0.33646   0.00000  Uiso   1.00
C9     C     0.20583   0.17950   0.40823   0.00000  Uiso   1.00
C10    C     0.12778   0.16771   0.09210   0.00000  Uiso   1.00
C11    C     0.16839   0.16996   0.38478   0.00000  Uiso   1.00
C12    C     0.24653   0.16651   0.24589   0.00000  Uiso   1.00
C13    C     0.16589   0.16576   0.11564   0.00000  Uiso   1.00
C14    C     0.13028   0.16876   0.40694   0.00000  Uiso   1.00
C15    C     0.20383   0.16778   0.09357   0.00000  Uiso   1.00
C16    C     0.12922   0.17856   0.45301   0.00000  Uiso   1.00
C17    C     0.20381   0.16829   0.04698   0.00000  Uiso   1.00
C18    C     0.16675   0.17876   0.47718   0.00000  Uiso   1.00
C19    C     0.16617   0.17553   0.02375   0.00000  Uiso   1.00
C20    C     0.20504   0.18202   0.45516   0.00000  Uiso   1.00
C21    C     0.12813   0.17758   0.04642   0.00000  Uiso   1.00
C22    C     0.09238   0.18969   0.47581   0.00000  Uiso   1.00
C23    C     0.09231   0.19120   0.02264   0.00000  Uiso   1.00
C24    C     0.24076   0.16480   0.02258   0.00000  Uiso   1.00
C25    C     0.24568   0.18334   0.38406   0.00000  Uiso   1.00
C26    C     0.08867   0.15383   0.11357   0.00000  Uiso   1.00
C27    C     0.09244   0.15273   0.38301   0.00000  Uiso   1.00
C28    C     0.24323   0.17402   0.11893   0.00000  Uiso   1.00
C29    C     0.05537   0.20478   0.45122   0.00000  Uiso   1.00
C30    C     0.27492   0.13419   0.03486   0.00000  Uiso   1.00
C31    C     0.24159   0.18430   0.48119   0.00000  Uiso   1.00
C32    C     0.02075   0.12582   0.25851   0.00000  Uiso   1.00
C33    C     0.31307   0.20665   0.24392   0.00000  Uiso   1.00
C34    C     0.31282   0.12529   0.24526   0.00000  Uiso   1.00
C35    C     0.02070   0.20704   0.25793   0.00000  Uiso   1.00
C36    C     0.29132   0.16604   0.24239   0.00000  Uiso   1.00
H37    H     0.28399   0.15916   0.33722   0.00000  Uiso   1.00
H38    H     0.03573   0.11815   0.10805   0.00000  Uiso   1.00
H39    H     0.04441   0.10971   0.38182   0.00000  Uiso   1.00
H40    H     0.28786   0.14552   0.15522   0.00000  Uiso   1.00
H41    H     0.33184   0.18918   0.42834   0.00000  Uiso   1.00
H42    H     0.00101   0.11585   0.02638   0.00000  Uiso   1.00
I43    I     0.04299   0.22665   0.05538   0.00000  Uiso   1.00
I44    I     0.23200   0.27738   0.32331   0.00000  Uiso   1.00
I45    I     0.27011   0.24806   0.48773   0.00000  Uiso   1.00
I46    I     0.04551   0.06665   0.28770   0.00000  Uiso   1.00
I47    I     0.29026   0.26506   0.21211   0.00000  Uiso   1.00
I48    I     0.28894   0.06352   0.21761   0.00000  Uiso   1.00
I49    I     0.04410   0.26711   0.28913   0.00000  Uiso   1.00
I50    I     0.22987   0.05801   0.32724   0.00000  Uiso   1.00
I51    I     0.10093   0.27411   0.17529   0.00000  Uiso   1.00
I52    I     0.10253   0.05591   0.17438   0.00000  Uiso   1.00
N53    N     0.16667   0.28573   0.25000   0.00000  Uiso   1.00
N54    N     0.16667   0.04760   0.25000   0.00000  Uiso   1.00
O55    O     0.10559   0.20487   0.25000   0.00000  Uiso   1.00
O56    O     0.25557   0.15340   0.34985   0.00000  Uiso   1.00
O57    O     0.08017   0.16722   0.15107   0.00000  Uiso   1.00
O58    O     0.06140   0.12507   0.09039   0.00000  Uiso   1.00
O59    O     0.07870   0.17310   0.35138   0.00000  Uiso   1.00
O60    O     0.07143   0.11560   0.39856   0.00000  Uiso   1.00
O61    O     0.26393   0.20759   0.11385   0.00000  Uiso   1.00
O62    O     0.25795   0.14022   0.14583   0.00000  Uiso   1.00
O63    O     0.05635   0.23945   0.43069   0.00000  Uiso   1.00
O64    O     0.02018   0.17794   0.44977   0.00000  Uiso   1.00
O65    O     0.26821   0.10244   0.05850   0.00000  Uiso   1.00
O66    O     0.22774   0.12846   0.25000   0.00000  Uiso   1.00
O67    O     0.31420   0.13990   0.01715   0.00000  Uiso   1.00
O68    O     0.22774   0.20487   0.25001   0.00000  Uiso   1.00
O69    O     0.10559   0.12846   0.25000   0.00000  Uiso   1.00
O70    O     0.16666   0.20489   0.18393   0.00000  Uiso   1.00
O71    O     0.16667   0.12844   0.31608   0.00000  Uiso   1.00
O72    O     0.16667   0.20489   0.31608   0.00000  Uiso   1.00
O73    O     0.16666   0.12844   0.18393   0.00000  Uiso   1.00
O74    O     0.26956   0.21371   0.39322   0.00000  Uiso   1.00
Zn75   Zn    0.16667   0.21771   0.25000   0.00000  Uiso   1.00
Zn76   Zn    0.16667   0.11563   0.25000   0.00000  Uiso   1.00
C77    C     0.42024   0.16669   0.25441   0.00000  Uiso   1.00
C78    C     0.37565   0.16657   0.25970   0.00000  Uiso   1.00
C79    C     0.52460   0.02435   0.27925   0.00000  Uiso   1.00
C80    C     0.47493   0.30882   0.22103   0.00000  Uiso   1.00
C81    C     0.47519   0.02312   0.22084   0.00000  Uiso   1.00
C82    C     0.52490   0.31020   0.27879   0.00000  Uiso   1.00
C83    C     0.49966   0.16623   0.16367   0.00000  Uiso   1.00
C84    C     0.50122   0.16732   0.33646   0.00000  Uiso   1.00
C85    C     0.53917   0.17950   0.40823   0.00000  Uiso   1.00
C86    C     0.46112   0.16771   0.09210   0.00000  Uiso   1.00
C87    C     0.50172   0.16996   0.38478   0.00000  Uiso   1.00
C88    C     0.57986   0.16651   0.24589   0.00000  Uiso   1.00
C89    C     0.49923   0.16576   0.11564   0.00000  Uiso   1.00
C90    C     0.46361   0.16876   0.40694   0.00000  Uiso   1.00
C91    C     0.53716   0.16778   0.09357   0.00000  Uiso   1.00
C92    C     0.46256   0.17856   0.45301   0.00000  Uiso   1.00
C93    C     0.53714   0.16829   0.04698   0.00000  Uiso   1.00
C94    C     0.50009   0.17876   0.47718   0.00000  Uiso   1.00
C95    C     0.49951   0.17553   0.02375   0.00000  Uiso   1.00
C96    C     0.53837   0.18202   0.45516   0.00000  Uiso   1.00
C97    C     0.46146   0.17758   0.04642   0.00000  Uiso   1.00
C98    C     0.42571   0.18969   0.47581   0.00000  Uiso   1.00
C99    C     0.42564   0.19120   0.02264   0.00000  Uiso   1.00
C100   C     0.57409   0.16480   0.02258   0.00000  Uiso   1.00
C101   C     0.57901   0.18334   0.38406   0.00000  Uiso   1.00
C102   C     0.42200   0.15383   0.11357   0.00000  Uiso   1.00
C103   C     0.42577   0.15273   0.38301   0.00000  Uiso   1.00
C104   C     0.57656   0.17402   0.11893   0.00000  Uiso   1.00
C105   C     0.38871   0.20478   0.45122   0.00000  Uiso   1.00
C106   C     0.60826   0.13419   0.03486   0.00000  Uiso   1.00
C107   C     0.57493   0.18430   0.48119   0.00000  Uiso   1.00
C108   C     0.35408   0.12582   0.25851   0.00000  Uiso   1.00
C109   C     0.64640   0.20665   0.24392   0.00000  Uiso   1.00
C110   C     0.64616   0.12529   0.24526   0.00000  Uiso   1.00
C111   C     0.35403   0.20704   0.25793   0.00000  Uiso   1.00
C112   C     0.62466   0.16604   0.24239   0.00000  Uiso   1.00
H113   H     0.61732   0.15916   0.33722   0.00000  Uiso   1.00
H114   H     0.36907   0.11815   0.10805   0.00000  Uiso   1.00
H115   H     0.37774   0.10971   0.38182   0.00000  Uiso   1.00
H116   H     0.62119   0.14552   0.15522   0.00000  Uiso   1.00
H117   H     0.66517   0.18918   0.42834   0.00000  Uiso   1.00
H118   H     0.33434   0.11585   0.02638   0.00000  Uiso   1.00
I119   I     0.37632   0.22665   0.05538   0.00000  Uiso   1.00
I120   I     0.56533   0.27738   0.32331   0.00000  Uiso   1.00
I121   I     0.60344   0.24806   0.48773   0.00000  Uiso   1.00
I122   I     0.37884   0.06665   0.28770   0.00000  Uiso   1.00
I123   I     0.62359   0.26506   0.21211   0.00000  Uiso   1.00
I124   I     0.62227   0.06352   0.21761   0.00000  Uiso   1.00
I125   I     0.37744   0.26711   0.28913   0.00000  Uiso   1.00
I126   I     0.56320   0.05801   0.32724   0.00000  Uiso   1.00
I127   I     0.43426   0.27411   0.17529   0.00000  Uiso   1.00
I128   I     0.43586   0.05591   0.17438   0.00000  Uiso   1.00
N129   N     0.50000   0.28573   0.25000   0.00000  Uiso   1.00
N130   N     0.50000   0.04760   0.25000   0.00000  Uiso   1.00
O131   O     0.43892   0.20487   0.25000   0.00000  Uiso   1.00
O132   O     0.58891   0.15340   0.34985   0.00000  Uiso   1.00
O133   O     0.41350   0.16722   0.15107   0.00000  Uiso   1.00
O134   O     0.39473   0.12507   0.09039   0.00000  Uiso   1.00
O135   O     0.41203   0.17310   0.35138   0.00000  Uiso   1.00
O136   O     0.40476   0.11560   0.39856   0.00000  Uiso   1.00
O137   O     0.59727   0.20759   0.11385   0.00000  Uiso   1.00
O138   O     0.59129   0.14022   0.14583   0.00000  Uiso   1.00
O139   O     0.38969   0.23945   0.43069   0.00000  Uiso   1.00
O140   O     0.35352   0.17794   0.44977   0.00000  Uiso   1.00
O141   O     0.60154   0.10244   0.05850   0.00000  Uiso   1.00
O142   O     0.56108   0.12846   0.25000   0.00000  Uiso   1.00
O143   O     0.64753   0.13990   0.01715   0.00000  Uiso   1.00
O144   O     0.56108   0.20487   0.25001   0.00000  Uiso   1.00
O145   O     0.43892   0.12846   0.25000   0.00000  Uiso   1.00
O146   O     0.49999   0.20489   0.18393   0.00000  Uiso   1.00
O147   O     0.50001   0.12844   0.31608   0.00000  Uiso   1.00
O148   O     0.50001   0.20489   0.31608   0.00000  Uiso   1.00
O149   O     0.49999   0.12844   0.18393   0.00000  Uiso   1.00
O150   O     0.60289   0.21371   0.39322   0.00000  Uiso   1.00
Zn151  Zn    0.50000   0.21771   0.25000   0.00000  Uiso   1.00
Zn152  Zn    0.50000   0.11563   0.25000   0.00000  Uiso   1.00
C153   C     0.75357   0.16669   0.25441   0.00000  Uiso   1.00
C154   C     0.70898   0.16657   0.25970   0.00000  Uiso   1.00
C155   C     0.85793   0.02435   0.27925   0.00000  Uiso   1.00
C156   C     0.80826   0.30882   0.22103   0.00000  Uiso   1.00
C157   C     0.80852   0.02312   0.22084   0.00000  Uiso   1.00
C158   C     0.85824   0.31020   0.27879   0.00000  Uiso   1.00
C159   C     0.83299   0.16623   0.16367   0.00000  Uiso   1.00
C160   C     0.83455   0.16732   0.33646   0.00000  Uiso   1.00
C161   C     0.87250   0.17950   0.40823   0.00000  Uiso   1.00
C162   C     0.79445   0.16771   0.09210   0.00000  Uiso   1.00
C163   C     0.83506   0.16996   0.38478   0.00000  Uiso   1.00
C164   C     0.91320   0.16651   0.24589   0.00000  Uiso   1.00
C165   C     0.83256   0.16576   0.11564   0.00000  Uiso   1.00
C166   C     0.79694   0.16876   0.40694   0.00000  Uiso   1.00
C167   C     0.87049   0.16778   0.09357   0.00000  Uiso   1.00
C168   C     0.79589   0.17856   0.45301   0.00000  Uiso   1.00
C169   C     0.87047   0.16829   0.04698   0.00000  Uiso   1.00
C170   C     0.83342   0.17876   0.47718   0.00000  Uiso   1.00
C171   C     0.83284   0.17553   0.02375   0.00000  Uiso   1.00
C172   C     0.87171   0.18202   0.45516   0.00000  Uiso   1.00
C173   C     0.79480   0.17758   0.04642   0.00000  Uiso   1.00
C174   C     0.75905   0.18969   0.47581   0.00000  Uiso   1.00
C175   C     0.75897   0.19120   0.02264   0.00000  Uiso   1.00
C176   C     0.90742   0.16480   0.02258   0.00000  Uiso   1.00
C177   C     0.91235   0.18334   0.38406   0.00000  Uiso   1.00
C178   C     0.75533   0.15383   0.11357   0.00000  Uiso   1.00
C179   C     0.75911   0.15273   0.38301   0.00000  Uiso   1.00
C180   C     0.90989   0.17402   0.11893   0.00000  Uiso   1.00
C181   C     0.72204   0.20478   0.45122   0.00000  Uiso   1.00
C182   C     0.94159   0.13419   0.03486   0.00000  Uiso   1.00
C183   C     0.90826   0.18430   0.48119   0.00000  Uiso   1.00
C184   C     0.68742   0.12582   0.25851   0.00000  Uiso   1.00
C185   C     0.97973   0.20665   0.24392   0.00000  Uiso   1.00
C186   C     0.97949   0.12529   0.24526   0.00000  Uiso   1.00
C187   C     0.68737   0.20704   0.25793   0.00000  Uiso   1.00
C188   C     0.95799   0.16604   0.24239   0.00000  Uiso   1.00
H189   H     0.95065   0.15916   0.33722   0.00000  Uiso   1.00
H190   H     0.70240   0.11815   0.10805   0.00000  Uiso   1.00
H191   H     0.71107   0.10971   0.38182   0.00000  Uiso   1.00
H192   H     0.95453   0.14552   0.15522   0.00000  Uiso   1.00
H193   H     0.99850   0.18918   0.42834   0.00000  Uiso   1.00
H194   H     0.66768   0.11585   0.02638   0.00000  Uiso   1.00
I195   I     0.70966   0.22665   0.05538   0.00000  Uiso   1.00
I196   I     0.89866   0.27738   0.32331   0.00000  Uiso   1.00
I197   I     0.93677   0.24806   0.48773   0.00000  Uiso   1.00
I198   I     0.71217   0.06665   0.28770   0.00000  Uiso   1.00
I199   I     0.95692   0.26506   0.21211   0.00000  Uiso   1.00
I200   I     0.95561   0.06352   0.21761   0.00000  Uiso   1.00
I201   I     0.71077   0.26711   0.28913   0.00000  Uiso   1.00
I202   I     0.89653   0.05801   0.32724   0.00000  Uiso   1.00
I203   I     0.76760   0.27411   0.17529   0.00000  Uiso   1.00
I204   I     0.76919   0.05591   0.17438   0.00000  Uiso   1.00
N205   N     0.83333   0.28573   0.25000   0.00000  Uiso   1.00
N206   N     0.83333   0.04760   0.25000   0.00000  Uiso   1.00
O207   O     0.77226   0.20487   0.25000   0.00000  Uiso   1.00
O208   O     0.92224   0.15340   0.34985   0.00000  Uiso   1.00
O209   O     0.74683   0.16722   0.15107   0.00000  Uiso   1.00
O210   O     0.72807   0.12507   0.09039   0.00000  Uiso   1.00
O211   O     0.74537   0.17310   0.35138   0.00000  Uiso   1.00
O212   O     0.73810   0.11560   0.39856   0.00000  Uiso   1.00
O213   O     0.93060   0.20759   0.11385   0.00000  Uiso   1.00
O214   O     0.92462   0.14022   0.14583   0.00000  Uiso   1.00
O215   O     0.72302   0.23945   0.43069   0.00000  Uiso   1.00
O216   O     0.68685   0.17794   0.44977   0.00000  Uiso   1.00
O217   O     0.93487   0.10244   0.05850   0.00000  Uiso   1.00
O218   O     0.89441   0.12846   0.25000   0.00000  Uiso   1.00
O219   O     0.98087   0.13990   0.01715   0.00000  Uiso   1.00
O220   O     0.89441   0.20487   0.25001   0.00000  Uiso   1.00
O221   O     0.77226   0.12846   0.25000   0.00000  Uiso   1.00
O222   O     0.83333   0.20489   0.18393   0.00000  Uiso   1.00
O223   O     0.83334   0.12844   0.31608   0.00000  Uiso   1.00
O224   O     0.83334   0.20489   0.31608   0.00000  Uiso   1.00
O225   O     0.83333   0.12844   0.18393   0.00000  Uiso   1.00
O226   O     0.93622   0.21371   0.39322   0.00000  Uiso   1.00
Zn227  Zn    0.83333   0.21771   0.25000   0.00000  Uiso   1.00
Zn228  Zn    0.83333   0.11563   0.25000   0.00000  Uiso   1.00
C229   C     0.08691   0.50003   0.25441   0.00000  Uiso   1.00
C230   C     0.04232   0.49991   0.25970   0.00000  Uiso   1.00
C231   C     0.19126   0.35769   0.27925   0.00000  Uiso   1.00
C232   C     0.14160   0.64216   0.22103   0.00000  Uiso   1.00
C233   C     0.14185   0.35646   0.22084   0.00000  Uiso   1.00
C234   C     0.19157   0.64353   0.27879   0.00000  Uiso   1.00
C235   C     0.16633   0.49957   0.16367   0.00000  Uiso   1.00
C236   C     0.16789   0.50065   0.33646   0.00000  Uiso   1.00
C237   C     0.20583   0.51283   0.40823   0.00000  Uiso   1.00
C238   C     0.12778   0.50104   0.09210   0.00000  Uiso   1.00
C239   C     0.16839   0.50329   0.38478   0.00000  Uiso   1.00
C240   C     0.24653   0.49984   0.24589   0.00000  Uiso   1.00
C241   C     0.16589   0.49910   0.11564   0.00000  Uiso   1.00
C242   C     0.13028   0.50209   0.40694   0.00000  Uiso   1.00
C243   C     0.20383   0.50111   0.09357   0.00000  Uiso   1.00
C244   C     0.12922   0.51189   0.45301   0.00000  Uiso   1.00
C245   C     0.20381   0.50163   0.04698   0.00000  Uiso   1.00
C246   C     0.16675   0.51209   0.47718   0.00000  Uiso   1.00
C247   C     0.16617   0.50886   0.02375   0.00000  Uiso   1.00
C248   C     0.20504   0.51535   0.45516   0.00000  Uiso   1.00
C249   C     0.12813   0.51091   0.04642   0.00000  Uiso   1.00
C250   C     0.09238   0.52302   0.47581   0.00000  Uiso   1.00
C251   C     0.09231   0.52454   0.02264   0.00000  Uiso   1.00
C252   C     0.24076   0.49813   0.02258   0.00000  Uiso   1.00
C253   C     0.24568   0.51667   0.38406   0.00000  Uiso   1.00
C254   C     0.08867   0.48716   0.11357   0.00000  Uiso   1.00
C255   C     0.09244   0.48606   0.38301   0.00000  Uiso   1.00
C256   C     0.24323   0.50736   0.11893   0.00000  Uiso   1.00
C257   C     0.05537   0.53812   0.45122   0.00000  Uiso   1.00
C258   C     0.27492   0.46753   0.03486   0.00000  Uiso   1.00
C259   C     0.24159   0.51764   0.48119   0.00000  Uiso   1.00
C260   C     0.02075   0.45915   0.25851   0.00000  Uiso   1.00
C261   C     0.31307   0.53998   0.24392   0.00000  Uiso   1.00
C262   C     0.31282   0.45862   0.24526   0.00000  Uiso   1.00
C263   C     0.02070   0.54038   0.25793   0.00000  Uiso   1.00
C264   C     0.29132   0.49937   0.24239   0.00000  Uiso   1.00
H265   H     0.28399   0.49249   0.33722   0.00000  Uiso   1.00
H266   H     0.03573   0.45149   0.10805   0.00000  Uiso   1.00
H267   H     0.04441   0.44304   0.38182   0.00000  Uiso   1.00
H268   H     0.28786   0.47886   0.15522   0.00000  Uiso   1.00
H269   H     0.33184   0.52252   0.42834   0.00000  Uiso   1.00
H270   H     0.00101   0.44918   0.02638   0.00000  Uiso   1.00
I271   I     0.04299   0.55999   0.05538   0.00000  Uiso   1.00
I272   I     0.23200   0.61071   0.32331   0.00000  Uiso   1.00
I273   I     0.27011   0.58140   0.48773   0.00000  Uiso   1.00
I274   I     0.04551   0.39999   0.28770   0.00000  Uiso   1.00
I275   I     0.29026   0.59839   0.21211   0.00000  Uiso   1.00
I276   I     0.28894   0.39686   0.21761   0.00000  Uiso   1.00
I277   I     0.04410   0.60044   0.28913   0.00000  Uiso   1.00
I278   I     0.22987   0.39134   0.32724   0.00000  Uiso   1.00
I279   I     0.10093   0.60745   0.17529   0.00000  Uiso   1.00
I280   I     0.10253   0.38925   0.17438   0.00000  Uiso   1.00
N281   N     0.16667   0.61907   0.25000   0.00000  Uiso   1.00
N282   N     0.16667   0.38093   0.25000   0.00000  Uiso   1.00
O283   O     0.10559   0.53821   0.25000   0.00000  Uiso   1.00
O284   O     0.25557   0.48673   0.34985   0.00000  Uiso   1.00
O285   O     0.08017   0.50055   0.15107   0.00000  Uiso   1.00
O286   O     0.06140   0.45840   0.09039   0.00000  Uiso   1.00
O287   O     0.07870   0.50643   0.35138   0.00000  Uiso   1.00
O288   O     0.07143   0.44893   0.39856   0.00000  Uiso   1.00
O289   O     0.26393   0.54093   0.11385   0.00000  Uiso   1.00
O290   O     0.25795   0.47355   0.14583   0.00000  Uiso   1.00
O291   O     0.05635   0.57278   0.43069   0.00000  Uiso   1.00
O292   O     0.02018   0.51127   0.44977   0.00000  Uiso   1.00
O293   O     0.26821   0.43577   0.05850   0.00000  Uiso   1.00
O294   O     0.22774   0.46179   0.25000   0.00000  Uiso   1.00
O295   O     0.31420   0.47323   0.01715   0.00000  Uiso   1.00
O296   O     0.22774   0.53821   0.25001   0.00000  Uiso   1.00
O297   O     0.10559   0.46179   0.25000   0.00000  Uiso   1.00
O298   O     0.16666   0.53823   0.18393   0.00000  Uiso   1.00
O299   O     0.16667   0.46177   0.31608   0.00000  Uiso   1.00
O300   O     0.16667   0.53823   0.31608   0.00000  Uiso   1.00
O301   O     0.16666   0.46177   0.18393   0.00000  Uiso   1.00
O302   O     0.26956   0.54705   0.39322   0.00000  Uiso   1.00
Zn303  Zn    0.16667   0.55104   0.25000   0.00000  Uiso   1.00
Zn304  Zn    0.16667   0.44896   0.25000   0.00000  Uiso   1.00
C305   C     0.42024   0.50003   0.25441   0.00000  Uiso   1.00
C306   C     0.37565   0.49991   0.25970   0.00000  Uiso   1.00
C307   C     0.52460   0.35769   0.27925   0.00000  Uiso   1.00
C308   C     0.47493   0.64216   0.22103   0.00000  Uiso   1.00
C309   C     0.47519   0.35646   0.22084   0.00000  Uiso   1.00
C310   C     0.52490   0.64353   0.27879   0.00000  Uiso   1.00
C311   C     0.49966   0.49957   0.16367   0.00000  Uiso   1.00
C312   C     0.50122   0.50065   0.33646   0.00000  Uiso   1.00
C313   C     0.53917   0.51283   0.40823   0.00000  Uiso   1.00
C314   C     0.46112   0.50104   0.09210   0.00000  Uiso   1.00
C315   C     0.50172   0.50329   0.38478   0.00000  Uiso   1.00
C316   C     0.57986   0.49984   0.24589   0.00000  Uiso   1.00
C317   C     0.49923   0.49910   0.11564   0.00000  Uiso   1.00
C318   C     0.46361   0.50209   0.40694   0.00000  Uiso   1.00
C319   C     0.53716   0.50111   0.09357   0.00000  Uiso   1.00
C320   C     0.46256   0.51189   0.45301   0.00000  Uiso   1.00
C321   C     0.53714   0.50163   0.04698   0.00000  Uiso   1.00
C322   C     0.50009   0.51209   0.47718   0.00000  Uiso   1.00
C323   C     0.49951   0.50886   0.02375   0.00000  Uiso   1.00
C324   C     0.53837   0.51535   0.45516   0.00000  Uiso   1.00
C325   C     0.46146   0.51091   0.04642   0.00000  Uiso   1.00
C326   C     0.42571   0.52302   0.47581   0.00000  Uiso   1.00
C327   C     0.42564   0.52454   0.02264   0.00000  Uiso   1.00
C328   C     0.57409   0.49813   0.02258   0.00000  Uiso   1.00
C329   C     0.57901   0.51667   0.38406   0.00000  Uiso   1.00
C330   C     0.42200   0.48716   0.11357   0.00000  Uiso   1.00
C331   C     0.42577   0.48606   0.38301   0.00000  Uiso   1.00
C332   C     0.57656   0.50736   0.11893   0.00000  Uiso   1.00
C333   C     0.38871   0.53812   0.45122   0.00000  Uiso   1.00
C334   C     0.60826   0.46753   0.03486   0.00000  Uiso   1.00
C335   C     0.57493   0.51764   0.48119   0.00000  Uiso   1.00
C336   C     0.35408   0.45915   0.25851   0.00000  Uiso   1.00
C337   C     0.64640   0.53998   0.24392   0.00000  Uiso   1.00
C338   C     0.64616   0.45862   0.24526   0.00000  Uiso   1.00
C339   C     0.35403   0.54038   0.25793   0.00000  Uiso   1.00
C340   C     0.62466   0.49937   0.24239   0.00000  Uiso   1.00
H341   H     0.61732   0.49249   0.33722   0.00000  Uiso   1.00
H342   H     0.36907   0.45149   0.10805   0.00000  Uiso   1.00
H343   H     0.37774   0.44304   0.38182   0.00000  Uiso   1.00
H344   H     0.62119   0.47886   0.15522   0.00000  Uiso   1.00
H345   H     0.66517   0.52252   0.42834   0.00000  Uiso   1.00
H346   H     0.33434   0.44918   0.02638   0.00000  Uiso   1.00
I347   I     0.37632   0.55999   0.05538   0.00000  Uiso   1.00
I348   I     0.56533   0.61071   0.32331   0.00000  Uiso   1.00
I349   I     0.60344   0.58140   0.48773   0.00000  Uiso   1.00
I350   I     0.37884   0.39999   0.28770   0.00000  Uiso   1.00
I351   I     0.62359   0.59839   0.21211   0.00000  Uiso   1.00
I352   I     0.62227   0.39686   0.21761   0.00000  Uiso   1.00
I353   I     0.37744   0.60044   0.28913   0.00000  Uiso   1.00
I354   I     0.56320   0.39134   0.32724   0.00000  Uiso   1.00
I355   I     0.43426   0.60745   0.17529   0.00000  Uiso   1.00
I356   I     0.43586   0.38925   0.17438   0.00000  Uiso   1.00
N357   N     0.50000   0.61907   0.25000   0.00000  Uiso   1.00
N358   N     0.50000   0.38093   0.25000   0.00000  Uiso   1.00
O359   O     0.43892   0.53821   0.25000   0.00000  Uiso   1.00
O360   O     0.58891   0.48673   0.34985   0.00000  Uiso   1.00
O361   O     0.41350   0.50055   0.15107   0.00000  Uiso   1.00
O362   O     0.39473   0.45840   0.09039   0.00000  Uiso   1.00
O363   O     0.41203   0.50643   0.35138   0.00000  Uiso   1.00
O364   O     0.40476   0.44893   0.39856   0.00000  Uiso   1.00
O365   O     0.59727   0.54093   0.11385   0.00000  Uiso   1.00
O366   O     0.59129   0.47355   0.14583   0.00000  Uiso   1.00
O367   O     0.38969   0.57278   0.43069   0.00000  Uiso   1.00
O368   O     0.35352   0.51127   0.44977   0.00000  Uiso   1.00
O369   O     0.60154   0.43577   0.05850   0.00000  Uiso   1.00
O370   O     0.56108   0.46179   0.25000   0.00000  Uiso   1.00
O371   O     0.64753   0.47323   0.01715   0.00000  Uiso   1.00
O372   O     0.56108   0.53821   0.25001   0.00000  Uiso   1.00
O373   O     0.43892   0.46179   0.25000   0.00000  Uiso   1.00
O374   O     0.49999   0.53823   0.18393   0.00000  Uiso   1.00
O375   O     0.50001   0.46177   0.31608   0.00000  Uiso   1.00
O376   O     0.50001   0.53823   0.31608   0.00000  Uiso   1.00
O377   O     0.49999   0.46177   0.18393   0.00000  Uiso   1.00
O378   O     0.60289   0.54705   0.39322   0.00000  Uiso   1.00
Zn379  Zn    0.50000   0.55104   0.25000   0.00000  Uiso   1.00
Zn380  Zn    0.50000   0.44896   0.25000   0.00000  Uiso   1.00
C381   C     0.75357   0.50003   0.25441   0.00000  Uiso   1.00
C382   C     0.70898   0.49991   0.25970   0.00000  Uiso   1.00
C383   C     0.85793   0.35769   0.27925   0.00000  Uiso   1.00
C384   C     0.80826   0.64216   0.22103   0.00000  Uiso   1.00
C385   C     0.80852   0.35646   0.22084   0.00000  Uiso   1.00
C386   C     0.85824   0.64353   0.27879   0.00000  Uiso   1.00
C387   C     0.83299   0.49957   0.16367   0.00000  Uiso   1.00
C388   C     0.83455   0.50065   0.33646   0.00000  Uiso   1.00
C389   C     0.87250   0.51283   0.40823   0.00000  Uiso   1.00
C390   C     0.79445   0.50104   0.09210   0.00000  Uiso   1.00
C391   C     0.83506   0.50329   0.38478   0.00000  Uiso   1.00
C392   C     0.91320   0.49984   0.24589   0.00000  Uiso   1.00
C393   C     0.83256   0.49910   0.11564   0.00000  Uiso   1.00
C394   C     0.79694   0.50209   0.40694   0.00000  Uiso   1.00
C395   C     0.87049   0.50111   0.09357   0.00000  Uiso   1.00
C396   C     0.79589   0.51189   0.45301   0.00000  Uiso   1.00
C397   C     0.87047   0.50163   0.04698   0.00000  Uiso   1.00
C398   C     0.83342   0.51209   0.47718   0.00000  Uiso   1.00
C399   C     0.83284   0.50886   0.02375   0.00000  Uiso   1.00
C400   C     0.87171   0.51535   0.45516   0.00000  Uiso   1.00
C401   C     0.79480   0.51091   0.04642   0.00000  Uiso   1.00
C402   C     0.75905   0.52302   0.47581   0.00000  Uiso   1.00
C403   C     0.75897   0.52454   0.02264   0.00000  Uiso   1.00
C404   C     0.90742   0.49813   0.02258   0.00000  Uiso   1.00
C405   C     0.91235   0.51667   0.38406   0.00000  Uiso   1.00
C406   C     0.75533   0.48716   0.11357   0.00000  Uiso   1.00
C407   C     0.75911   0.48606   0.38301   0.00000  Uiso   1.00
C408   C     0.90989   0.50736   0.11893   0.00000  Uiso   1.00
C409   C     0.72204   0.53812   0.45122   0.00000  Uiso   1.00
C410   C     0.94159   0.46753   0.03486   0.00000  Uiso   1.00
C411   C     0.90826   0.51764   0.48119   0.00000  Uiso   1.00
C412   C     0.68742   0.45915   0.25851   0.00000  Uiso   1.00
C413   C     0.97973   0.53998   0.24392   0.00000  Uiso   1.00
C414   C     0.97949   0.45862   0.24526   0.00000  Uiso   1.00
C415   C     0.68737   0.54038   0.25793   0.00000  Uiso   1.00
C416   C     0.95799   0.49937   0.24239   0.00000  Uiso   1.00
H417   H     0.95065   0.49249   0.33722   0.00000  Uiso   1.00
H418   H     0.70240   0.45149   0.10805   0.00000  Uiso   1.00
H419   H     0.71107   0.44304   0.38182   0.00000  Uiso   1.00
H420   H     0.95453   0.47886   0.15522   0.00000  Uiso   1.00
H421   H     0.99850   0.52252   0.42834   0.00000  Uiso   1.00
H422   H     0.66768   0.44918   0.02638   0.00000  Uiso   1.00
I423   I     0.70966   0.55999   0.05538   0.00000  Uiso   1.00
I424   I     0.89866   0.61071   0.32331   0.00000  Uiso   1.00
I425   I     0.93677   0.58140   0.48773   0.00000  Uiso   1.00
I426   I     0.71217   0.39999   0.28770   0.00000  Uiso   1.00
I427   I     0.95692   0.59839   0.21211   0.00000  Uiso   1.00
I428   I     0.95561   0.39686   0.21761   0.00000  Uiso   1.00
I429   I     0.71077   0.60044   0.28913   0.00000  Uiso   1.00
I430   I     0.89653   0.39134   0.32724   0.00000  Uiso   1.00
I431   I     0.76760   0.60745   0.17529   0.00000  Uiso   1.00
I432   I     0.76919   0.38925   0.17438   0.00000  Uiso   1.00
N433   N     0.83333   0.61907   0.25000   0.00000  Uiso   1.00
N434   N     0.83333   0.38093   0.25000   0.00000  Uiso   1.00
O435   O     0.77226   0.53821   0.25000   0.00000  Uiso   1.00
O436   O     0.92224   0.48673   0.34985   0.00000  Uiso   1.00
O437   O     0.74683   0.50055   0.15107   0.00000  Uiso   1.00
O438   O     0.72807   0.45840   0.09039   0.00000  Uiso   1.00
O439   O     0.74537   0.50643   0.35138   0.00000  Uiso   1.00
O440   O     0.73810   0.44893   0.39856   0.00000  Uiso   1.00
O441   O     0.93060   0.54093   0.11385   0.00000  Uiso   1.00
O442   O     0.92462   0.47355   0.14583   0.00000  Uiso   1.00
O443   O     0.72302   0.57278   0.43069   0.00000  Uiso   1.00
O444   O     0.68685   0.51127   0.44977   0.00000  Uiso   1.00
O445   O     0.93487   0.43577   0.05850   0.00000  Uiso   1.00
O446   O     0.89441   0.46179   0.25000   0.00000  Uiso   1.00
O447   O     0.98087   0.47323   0.01715   0.00000  Uiso   1.00
O448   O     0.89441   0.53821   0.25001   0.00000  Uiso   1.00
O449   O     0.77226   0.46179   0.25000   0.00000  Uiso   1.00
O450   O     0.83333   0.53823   0.18393   0.00000  Uiso   1.00
O451   O     0.83334   0.46177   0.31608   0.00000  Uiso   1.00
O452   O     0.83334   0.53823   0.31608   0.00000  Uiso   1.00
O453   O     0.83333   0.46177   0.18393   0.00000  Uiso   1.00
O454   O     0.93622   0.54705   0.39322   0.00000  Uiso   1.00
Zn455  Zn    0.83333   0.55104   0.25000   0.00000  Uiso   1.00
Zn456  Zn    0.83333   0.44896   0.25000   0.00000  Uiso   1.00
C457   C     0.08691   0.83336   0.25441   0.00000  Uiso   1.00
C458   C     0.04232   0.83324   0.25970   0.00000  Uiso   1.00
C459   C     0.19126   0.69102   0.27925   0.00000  Uiso   1.00
C460   C     0.14160   0.97549   0.22103   0.00000  Uiso   1.00
C461   C     0.14185   0.68979   0.22084   0.00000  Uiso   1.00
C462   C     0.19157   0.97686   0.27879   0.00000  Uiso   1.00
C463   C     0.16633   0.83290   0.16367   0.00000  Uiso   1.00
C464   C     0.16789   0.83398   0.33646   0.00000  Uiso   1.00
C465   C     0.20583   0.84616   0.40823   0.00000  Uiso   1.00
C466   C     0.12778   0.83437   0.09210   0.00000  Uiso   1.00
C467   C     0.16839   0.83662   0.38478   0.00000  Uiso   1.00
C468   C     0.24653   0.83318   0.24589   0.00000  Uiso   1.00
C469   C     0.16589   0.83243   0.11564   0.00000  Uiso   1.00
C470   C     0.13028   0.83542   0.40694   0.00000  Uiso   1.00
C471   C     0.20383   0.83444   0.09357   0.00000  Uiso   1.00
C472   C     0.12922   0.84523   0.45301   0.00000  Uiso   1.00
C473   C     0.20381   0.83496   0.04698   0.00000  Uiso   1.00
C474   C     0.16675   0.84542   0.47718   0.00000  Uiso   1.00
C475   C     0.16617   0.84220   0.02375   0.00000  Uiso   1.00
C476   C     0.20504   0.84869   0.45516   0.00000  Uiso   1.00
C477   C     0.12813   0.84424   0.04642   0.00000  Uiso   1.00
C478   C     0.09238   0.85636   0.47581   0.00000  Uiso   1.00
C479   C     0.09231   0.85787   0.02264   0.00000  Uiso   1.00
C480   C     0.24076   0.83146   0.02258   0.00000  Uiso   1.00
C481   C     0.24568   0.85000   0.38406   0.00000  Uiso   1.00
C482   C     0.08867   0.82050   0.11357   0.00000  Uiso   1.00
C483   C     0.09244   0.81940   0.38301   0.00000  Uiso   1.00
C484   C     0.24323   0.84069   0.11893   0.00000  Uiso   1.00
C485   C     0.05537   0.87145   0.45122   0.00000  Uiso   1.00
C486   C     0.27492   0.80086   0.03486   0.00000  Uiso   1.00
C487   C     0.24159   0.85097   0.48119   0.00000  Uiso   1.00
C488   C     0.02075   0.79249   0.25851   0.00000  Uiso   1.00
C489   C     0.31307   0.87331   0.24392   0.00000  Uiso   1.00
C490   C     0.31282   0.79195   0.24526   0.00000  Uiso   1.00
C491   C     0.02070   0.87371   0.25793   0.00000  Uiso   1.00
C492   C     0.29132   0.83271   0.24239   0.00000  Uiso   1.00
H493   H     0.28399   0.82582   0.33722   0.00000  Uiso   1.00
H494   H     0.03573   0.78482   0.10805   0.00000  Uiso   1.00
H495   H     0.04441   0.77637   0.38182   0.00000  Uiso   1.00
H496   H     0.28786   0.81219   0.15522   0.00000  Uiso   1.00
H497   H     0.33184   0.85585   0.42834   0.00000  Uiso   1.00
H498   H     0.00101   0.78252   0.02638   0.00000  Uiso   1.00
I499   I     0.04299   0.89332   0.05538   0.00000  Uiso   1.00
I500   I     0.23200   0.94404   0.32331   0.00000  Uiso   1.00
I501   I     0.27011   0.91473   0.48773   0.00000  Uiso   1.00
I502   I     0.04551   0.73332   0.28770   0.00000  Uiso   1.00
I503   I     0.29026   0.93173   0.21211   0.00000  Uiso   1.00
I504   I     0.28894   0.73019   0.21761   0.00000  Uiso   1.00
I505   I     0.04410   0.93378   0.28913   0.00000  Uiso   1.00
I506   I     0.22987   0.72468   0.32724   0.00000  Uiso   1.00
I507   I     0.10093   0.94078   0.17529   0.00000  Uiso   1.00
I508   I     0.10253   0.72258   0.17438   0.00000  Uiso   1.00
N509   N     0.16667   0.95240   0.25000   0.00000  Uiso   1.00
N510   N     0.16667   0.71427   0.25000   0.00000  Uiso   1.00
O511   O     0.10559   0.87154   0.25000   0.00000  Uiso   1.00
O512   O     0.25557   0.82007   0.34985   0.00000  Uiso   1.00
O513   O     0.08017   0.83389   0.15107   0.00000  Uiso   1.00
O514   O     0.06140   0.79173   0.09039   0.00000  Uiso   1.00
O515   O     0.07870   0.83977   0.35138   0.00000  Uiso   1.00
O516   O     0.07143   0.78227   0.39856   0.00000  Uiso   1.00
O517   O     0.26393   0.87426   0.11385   0.00000  Uiso   1.00
O518   O     0.25795   0.80688   0.14583   0.00000  Uiso   1.00
O519   O     0.05635   0.90612   0.43069   0.00000  Uiso   1.00
O520   O     0.02018   0.84461   0.44977   0.00000  Uiso   1.00
O521   O     0.26821   0.76910   0.05850   0.00000  Uiso   1.00
O522   O     0.22774   0.79513   0.25000   0.00000  Uiso   1.00
O523   O     0.31420   0.80657   0.01715   0.00000  Uiso   1.00
O524   O     0.22774   0.87154   0.25001   0.00000  Uiso   1.00
O525   O     0.10559   0.79513   0.25000   0.00000  Uiso   1.00
O526   O     0.16666   0.87156   0.18393   0.00000  Uiso   1.00
O527   O     0.16667   0.79511   0.31608   0.00000  Uiso   1.00
O528   O     0.16667   0.87156   0.31608   0.00000  Uiso   1.00
O529   O     0.16666   0.79511   0.18393   0.00000  Uiso   1.00
O530   O     0.26956   0.88038   0.39322   0.00000  Uiso   1.00
Zn531  Zn    0.16667   0.88437   0.25000   0.00000  Uiso   1.00
Zn532  Zn    0.16667   0.78229   0.25000   0.00000  Uiso   1.00
C533   C     0.42024   0.83336   0.25441   0.00000  Uiso   1.00
C534   C     0.37565   0.83324   0.25970   0.00000  Uiso   1.00
C535   C     0.52460   0.69102   0.27925   0.00000  Uiso   1.00
C536   C     0.47493   0.97549   0.22103   0.00000  Uiso   1.00
C537   C     0.47519   0.68979   0.22084   0.00000  Uiso   1.00
C538   C     0.52490   0.97686   0.27879   0.00000  Uiso   1.00
C539   C     0.49966   0.83290   0.16367   0.00000  Uiso   1.00
C540   C     0.50122   0.83398   0.33646   0.00000  Uiso   1.00
C541   C     0.53917   0.84616   0.40823   0.00000  Uiso   1.00
C542   C     0.46112   0.83437   0.09210   0.00000  Uiso   1.00
C543   C     0.50172   0.83662   0.38478   0.00000  Uiso   1.00
C544   C     0.57986   0.83318   0.24589   0.00000  Uiso   1.00
C545   C     0.49923   0.83243   0.11564   0.00000  Uiso   1.00
C546   C     0.46361   0.83542   0.40694   0.00000  Uiso   1.00
C547   C     0.53716   0.83444   0.09357   0.00000  Uiso   1.00
C548   C     0.46256   0.84523   0.45301   0.00000  Uiso   1.00
C549   C     0.53714   0.83496   0.04698   0.00000  Uiso   1.00
C550   C     0.50009   0.84542   0.47718   0.00000  Uiso   1.00
C551   C     0.49951   0.84220   0.02375   0.00000  Uiso   1.00
C552   C     0.53837   0.84869   0.45516   0.00000  Uiso   1.00
C553   C     0.46146   0.84424   0.04642   0.00000  Uiso   1.00
C554   C     0.42571   0.85636   0.47581   0.00000  Uiso   1.00
C555   C     0.42564   0.85787   0.02264   0.00000  Uiso   1.00
C556   C     0.57409   0.83146   0.02258   0.00000  Uiso   1.00
C557   C     0.57901   0.85000   0.38406   0.00000  Uiso   1.00
C558   C     0.42200   0.82050   0.11357   0.00000  Uiso   1.00
C559   C     0.42577   0.81940   0.38301   0.00000  Uiso   1.00
C560   C     0.57656   0.84069   0.11893   0.00000  Uiso   1.00
C561   C     0.38871   0.87145   0.45122   0.00000  Uiso   1.00
C562   C     0.60826   0.80086   0.03486   0.00000  Uiso   1.00
C563   C     0.57493   0.85097   0.48119   0.00000  Uiso   1.00
C564   C     0.35408   0.79249   0.25851   0.00000  Uiso   1.00
C565   C     0.64640   0.87331   0.24392   0.00000  Uiso   1.00
C566   C     0.64616   0.79195   0.24526   0.00000  Uiso   1.00
C567   C     0.35403   0.87371   0.25793   0.00000  Uiso   1.00
C568   C     0.62466   0.83271   0.24239   0.00000  Uiso   1.00
H569   H     0.61732   0.82582   0.33722   0.00000  Uiso   1.00
H570   H     0.36907   0.78482   0.10805   0.00000  Uiso   1.00
H571   H     0.37774   0.77637   0.38182   0.00000  Uiso   1.00
H572   H     0.62119   0.81219   0.15522   0.00000  Uiso   1.00
H573   H     0.66517   0.85585   0.42834   0.00000  Uiso   1.00
H574   H     0.33434   0.78252   0.02638   0.00000  Uiso   1.00
I575   I     0.37632   0.89332   0.05538   0.00000  Uiso   1.00
I576   I     0.56533   0.94404   0.32331   0.00000  Uiso   1.00
I577   I     0.60344   0.91473   0.48773   0.00000  Uiso   1.00
I578   I     0.37884   0.73332   0.28770   0.00000  Uiso   1.00
I579   I     0.62359   0.93173   0.21211   0.00000  Uiso   1.00
I580   I     0.62227   0.73019   0.21761   0.00000  Uiso   1.00
I581   I     0.37744   0.93378   0.28913   0.00000  Uiso   1.00
I582   I     0.56320   0.72468   0.32724   0.00000  Uiso   1.00
I583   I     0.43426   0.94078   0.17529   0.00000  Uiso   1.00
I584   I     0.43586   0.72258   0.17438   0.00000  Uiso   1.00
N585   N     0.50000   0.95240   0.25000   0.00000  Uiso   1.00
N586   N     0.50000   0.71427   0.25000   0.00000  Uiso   1.00
O587   O     0.43892   0.87154   0.25000   0.00000  Uiso   1.00
O588   O     0.58891   0.82007   0.34985   0.00000  Uiso   1.00
O589   O     0.41350   0.83389   0.15107   0.00000  Uiso   1.00
O590   O     0.39473   0.79173   0.09039   0.00000  Uiso   1.00
O591   O     0.41203   0.83977   0.35138   0.00000  Uiso   1.00
O592   O     0.40476   0.78227   0.39856   0.00000  Uiso   1.00
O593   O     0.59727   0.87426   0.11385   0.00000  Uiso   1.00
O594   O     0.59129   0.80688   0.14583   0.00000  Uiso   1.00
O595   O     0.38969   0.90612   0.43069   0.00000  Uiso   1.00
O596   O     0.35352   0.84461   0.44977   0.00000  Uiso   1.00
O597   O     0.60154   0.76910   0.05850   0.00000  Uiso   1.00
O598   O     0.56108   0.79513   0.25000   0.00000  Uiso   1.00
O599   O     0.64753   0.80657   0.01715   0.00000  Uiso   1.00
O600   O     0.56108   0.87154   0.25001   0.00000  Uiso   1.00
O601   O     0.43892   0.79513   0.25000   0.00000  Uiso   1.00
O602   O     0.49999   0.87156   0.18393   0.00000  Uiso   1.00
O603   O     0.50001   0.79511   0.31608   0.00000  Uiso   1.00
O604   O     0.50001   0.87156   0.31608   0.00000  Uiso   1.00
O605   O     0.49999   0.79511   0.18393   0.00000  Uiso   1.00
O606   O     0.60289   0.88038   0.39322   0.00000  Uiso   1.00
Zn607  Zn    0.50000   0.88437   0.25000   0.00000  Uiso   1.00
Zn608  Zn    0.50000   0.78229   0.25000   0.00000  Uiso   1.00
C609   C     0.75357   0.83336   0.25441   0.00000  Uiso   1.00
C610   C     0.70898   0.83324   0.25970   0.00000  Uiso   1.00
C611   C     0.85793   0.69102   0.27925   0.00000  Uiso   1.00
C612   C     0.80826   0.97549   0.22103   0.00000  Uiso   1.00
C613   C     0.80852   0.68979   0.22084   0.00000  Uiso   1.00
C614   C     0.85824   0.97686   0.27879   0.00000  Uiso   1.00
C615   C     0.83299   0.83290   0.16367   0.00000  Uiso   1.00
C616   C     0.83455   0.83398   0.33646   0.00000  Uiso   1.00
C617   C     0.87250   0.84616   0.40823   0.00000  Uiso   1.00
C618   C     0.79445   0.83437   0.09210   0.00000  Uiso   1.00
C619   C     0.83506   0.83662   0.38478   0.00000  Uiso   1.00
C620   C     0.91320   0.83318   0.24589   0.00000  Uiso   1.00
C621   C     0.83256   0.83243   0.11564   0.00000  Uiso   1.00
C622   C     0.79694   0.83542   0.40694   0.00000  Uiso   1.00
C623   C     0.87049   0.83444   0.09357   0.00000  Uiso   1.00
C624   C     0.79589   0.84523   0.45301   0.00000  Uiso   1.00
C625   C     0.87047   0.83496   0.04698   0.00000  Uiso   1.00
C626   C     0.83342   0.84542   0.47718   0.00000  Uiso   1.00
C627   C     0.83284   0.84220   0.02375   0.00000  Uiso   1.00
C628   C     0.87171   0.84869   0.45516   0.00000  Uiso   1.00
C629   C     0.79480   0.84424   0.04642   0.00000  Uiso   1.00
C630   C     0.75905   0.85636   0.47581   0.00000  Uiso   1.00
C631   C     0.75897   0.85787   0.02264   0.00000  Uiso   1.00
C632   C     0.90742   0.83146   0.02258   0.00000  Uiso   1.00
C633   C     0.91235   0.85000   0.38406   0.00000  Uiso   1.00
C634   C     0.75533   0.82050   0.11357   0.00000  Uiso   1.00
C635   C     0.75911   0.81940   0.38301   0.00000  Uiso   1.00
C636   C     0.90989   0.84069   0.11893   0.00000  Uiso   1.00
C637   C     0.72204   0.87145   0.45122   0.00000  Uiso   1.00
C638   C     0.94159   0.80086   0.03486   0.00000  Uiso   1.00
C639   C     0.90826   0.85097   0.48119   0.00000  Uiso   1.00
C640   C     0.68742   0.79249   0.25851   0.00000  Uiso   1.00
C641   C     0.97973   0.87331   0.24392   0.00000  Uiso   1.00
C642   C     0.97949   0.79195   0.24526   0.00000  Uiso   1.00
C643   C     0.68737   0.87371   0.25793   0.00000  Uiso   1.00
C644   C     0.95799   0.83271   0.24239   0.00000  Uiso   1.00
H645   H     0.95065   0.82582   0.33722   0.00000  Uiso   1.00
H646   H     0.70240   0.78482   0.10805   0.00000  Uiso   1.00
H647   H     0.71107   0.77637   0.38182   0.00000  Uiso   1.00
H648   H     0.95453   0.81219   0.15522   0.00000  Uiso   1.00
H649   H     0.99850   0.85585   0.42834   0.00000  Uiso   1.00
H650   H     0.66768   0.78252   0.02638   0.00000  Uiso   1.00
I651   I     0.70966   0.89332   0.05538   0.00000  Uiso   1.00
I652   I     0.89866   0.94404   0.32331   0.00000  Uiso   1.00
I653   I     0.93677   0.91473   0.48773   0.00000  Uiso   1.00
I654   I     0.71217   0.73332   0.28770   0.00000  Uiso   1.00
I655   I     0.95692   0.93173   0.21211   0.00000  Uiso   1.00
I656   I     0.95561   0.73019   0.21761   0.00000  Uiso   1.00
I657   I     0.71077   0.93378   0.28913   0.00000  Uiso   1.00
I658   I     0.89653   0.72468   0.32724   0.00000  Uiso   1.00
I659   I     0.76760   0.94078   0.17529   0.00000  Uiso   1.00
I660   I     0.76919   0.72258   0.17438   0.00000  Uiso   1.00
N661   N     0.83333   0.95240   0.25000   0.00000  Uiso   1.00
N662   N     0.83333   0.71427   0.25000   0.00000  Uiso   1.00
O663   O     0.77226   0.87154   0.25000   0.00000  Uiso   1.00
O664   O     0.92224   0.82007   0.34985   0.00000  Uiso   1.00
O665   O     0.74683   0.83389   0.15107   0.00000  Uiso   1.00
O666   O     0.72807   0.79173   0.09039   0.00000  Uiso   1.00
O667   O     0.74537   0.83977   0.35138   0.00000  Uiso   1.00
O668   O     0.73810   0.78227   0.39856   0.00000  Uiso   1.00
O669   O     0.93060   0.87426   0.11385   0.00000  Uiso   1.00
O670   O     0.92462   0.80688   0.14583   0.00000  Uiso   1.00
O671   O     0.72302   0.90612   0.43069   0.00000  Uiso   1.00
O672   O     0.68685   0.84461   0.44977   0.00000  Uiso   1.00
O673   O     0.93487   0.76910   0.05850   0.00000  Uiso   1.00
O674   O     0.89441   0.79513   0.25000   0.00000  Uiso   1.00
O675   O     0.98087   0.80657   0.01715   0.00000  Uiso   1.00
O676   O     0.89441   0.87154   0.25001   0.00000  Uiso   1.00
O677   O     0.77226   0.79513   0.25000   0.00000  Uiso   1.00
O678   O     0.83333   0.87156   0.18393   0.00000  Uiso   1.00
O679   O     0.83334   0.79511   0.31608   0.00000  Uiso   1.00
O680   O     0.83334   0.87156   0.31608   0.00000  Uiso   1.00
O681   O     0.83333   0.79511   0.18393   0.00000  Uiso   1.00
O682   O     0.93622   0.88038   0.39322   0.00000  Uiso   1.00
Zn683  Zn    0.83333   0.88437   0.25000   0.00000  Uiso   1.00
Zn684  Zn    0.83333   0.78229   0.25000   0.00000  Uiso   1.00
C685   C     0.08691   0.16669   0.75441   0.00000  Uiso   1.00
C686   C     0.04232   0.16657   0.75970   0.00000  Uiso   1.00
C687   C     0.19126   0.02435   0.77925   0.00000  Uiso   1.00
C688   C     0.14160   0.30882   0.72103   0.00000  Uiso   1.00
C689   C     0.14185   0.02312   0.72084   0.00000  Uiso   1.00
C690   C     0.19157   0.31020   0.77879   0.00000  Uiso   1.00
C691   C     0.16633   0.16623   0.66367   0.00000  Uiso   1.00
C692   C     0.16789   0.16732   0.83646   0.00000  Uiso   1.00
C693   C     0.20583   0.17950   0.90823   0.00000  Uiso   1.00
C694   C     0.12778   0.16771   0.59210   0.00000  Uiso   1.00
C695   C     0.16839   0.16996   0.88478   0.00000  Uiso   1.00
C696   C     0.24653   0.16651   0.74589   0.00000  Uiso   1.00
C697   C     0.16589   0.16576   0.61564   0.00000  Uiso   1.00
C698   C     0.13028   0.16876   0.90694   0.00000  Uiso   1.00
C699   C     0.20383   0.16778   0.59357   0.00000  Uiso   1.00
C700   C     0.12922   0.17856   0.95301   0.00000  Uiso   1.00
C701   C     0.20381   0.16829   0.54698   0.00000  Uiso   1.00
C702   C     0.16675   0.17876   0.97718   0.00000  Uiso   1.00
C703   C     0.16617   0.17553   0.52375   0.00000  Uiso   1.00
C704   C     0.20504   0.18202   0.95516   0.00000  Uiso   1.00
C705   C     0.12813   0.17758   0.54642   0.00000  Uiso   1.00
C706   C     0.09238   0.18969   0.97581   0.00000  Uiso   1.00
C707   C     0.09231   0.19120   0.52264   0.00000  Uiso   1.00
C708   C     0.24076   0.16480   0.52258   0.00000  Uiso   1.00
C709   C     0.24568   0.18334   0.88406   0.00000  Uiso   1.00
C710   C     0.08867   0.15383   0.61357   0.00000  Uiso   1.00
C711   C     0.09244   0.15273   0.88301   0.00000  Uiso   1.00
C712   C     0.24323   0.17402   0.61893   0.00000  Uiso   1.00
C713   C     0.05537   0.20478   0.95122   0.00000  Uiso   1.00
C714   C     0.27492   0.13419   0.53486   0.00000  Uiso   1.00
C715   C     0.24159   0.18430   0.98119   0.00000  Uiso   1.00
C716   C     0.02075   0.12582   0.75851   0.00000  Uiso   1.00
C717   C     0.31307   0.20665   0.74392   0.00000  Uiso   1.00
C718   C     0.31282   0.12529   0.74526   0.00000  Uiso   1.00
C719   C     0.02070   0.20704   0.75793   0.00000  Uiso   1.00
C720   C     0.29132   0.16604   0.74239   0.00000  Uiso   1.00
H721   H     0.28399   0.15916   0.83722   0.00000  Uiso   1.00
H722   H     0.03573   0.11815   0.60805   0.00000  Uiso   1.00
H723   H     0.04441   0.10971   0.88182   0.00000  Uiso   1.00
H724   H     0.28786   0.14552   0.65522   0.00000  Uiso   1.00
H725   H     0.33184   0.18918   0.92834   0.00000  Uiso   1.00
H726   H     0.00101   0.11585   0.52638   0.00000  Uiso   1.00
I727   I     0.04299   0.22665   0.55538   0.00000  Uiso   1.00
I728   I     0.23200   0.27738   0.82331   0.00000  Uiso   1.00
I729   I     0.27011   0.24806   0.98773   0.00000  Uiso   1.00
I730   I     0.04551   0.06665   0.78770   0.00000  Uiso   1.00
I731   I     0.29026   0.26506   0.71211   0.00000  Uiso   1.00
I732   I     0.28894   0.06352   0.71761   0.00000  Uiso   1.00
I733   I     0.04410   0.26711   0.78913   0.00000  Uiso   1.00
I734   I     0.22987   0.05801   0.82724   0.00000  Uiso   1.00
I735   I     0.10093   0.27411   0.67529   0.00000  Uiso   1.00
I736   I     0.10253   0.05591   0.67438   0.00000  Uiso   1.00
N737   N     0.16667   0.28573   0.75000   0.00000  Uiso   1.00
N738   N     0.16667   0.04760   0.75000   0.00000  Uiso   1.00
O739   O     0.10559   0.20487   0.75000   0.00000  Uiso   1.00
O740   O     0.25557   0.15340   0.84985   0.00000  Uiso   1.00
O741   O     0.08017   0.16722   0.65107   0.00000  Uiso   1.00
O742   O     0.06140   0.12507   0.59039   0.00000  Uiso   1.00
O743   O     0.07870   0.17310   0.85138   0.00000  Uiso   1.00
O744   O     0.07143   0.11560   0.89856   0.00000  Uiso   1.00
O745   O     0.26393   0.20759   0.61385   0.00000  Uiso   1.00
O746   O     0.25795   0.14022   0.64583   0.00000  Uiso   1.00
O747   O     0.05635   0.23945   0.93069   0.00000  Uiso   1.00
O748   O     0.02018   0.17794   0.94977   0.00000  Uiso   1.00
O749   O     0.26821   0.10244   0.55850   0.00000  Uiso   1.00
O750   O     0.22774   0.12846   0.75000   0.00000  Uiso   1.00
O751   O     0.31420   0.13990   0.51715   0.00000  Uiso   1.00
O752   O     0.22774   0.20487   0.75001   0.00000  Uiso   1.00
O753   O     0.10559   0.12846   0.75000   0.00000  Uiso   1.00
O754   O     0.16666   0.20489   0.68393   0.00000  Uiso   1.00
O755   O     0.16667   0.12844   0.81608   0.00000  Uiso   1.00
O756   O     0.16667   0.20489   0.81608   0.00000  Uiso   1.00
O757   O     0.16666   0.12844   0.68393   0.00000  Uiso   1.00
O758   O     0.26956   0.21371   0.89322   0.00000  Uiso   1.00
Zn759  Zn    0.16667   0.21771   0.75000   0.00000  Uiso   1.00
Zn760  Zn    0.16667   0.11563   0.75000   0.00000  Uiso   1.00
C761   C     0.42024   0.16669   0.75441   0.00000  Uiso   1.00
C762   C     0.37565   0.16657   0.75970   0.00000  Uiso   1.00
C763   C     0.52460   0.02435   0.77925   0.00000  Uiso   1.00
C764   C     0.47493   0.30882   0.72103   0.00000  Uiso   1.00
C765   C     0.47519   0.02312   0.72084   0.00000  Uiso   1.00
C766   C     0.52490   0.31020   0.77879   0.00000  Uiso   1.00
C767   C     0.49966   0.16623   0.66367   0.00000  Uiso   1.00
C768   C     0.50122   0.16732   0.83646   0.00000  Uiso   1.00
C769   C     0.53917   0.17950   0.90823   0.00000  Uiso   1.00
C770   C     0.46112   0.16771   0.59210   0.00000  Uiso   1.00
C771   C     0.50172   0.16996   0.88478   0.00000  Uiso   1.00
C772   C     0.57986   0.16651   0.74589   0.00000  Uiso   1.00
C773   C     0.49923   0.16576   0.61564   0.00000  Uiso   1.00
C774   C     0.46361   0.16876   0.90694   0.00000  Uiso   1.00
C775   C     0.53716   0.16778   0.59357   0.00000  Uiso   1.00
C776   C     0.46256   0.17856   0.95301   0.00000  Uiso   1.00
C777   C     0.53714   0.16829   0.54698   0.00000  Uiso   1.00
C778   C     0.50009   0.17876   0.97718   0.00000  Uiso   1.00
C779   C     0.49951   0.17553   0.52375   0.00000  Uiso   1.00
C780   C     0.53837   0.18202   0.95516   0.00000  Uiso   1.00
C781   C     0.46146   0.17758   0.54642   0.00000  Uiso   1.00
C782   C     0.42571   0.18969   0.97581   0.00000  Uiso   1.00
C783   C     0.42564   0.19120   0.52264   0.00000  Uiso   1.00
C784   C     0.57409   0.16480   0.52258   0.00000  Uiso   1.00
C785   C     0.57901   0.18334   0.88406   0.00000  Uiso   1.00
C786   C     0.42200   0.15383   0.61357   0.00000  Uiso   1.00
C787   C     0.42577   0.15273   0.88301   0.00000  Uiso   1.00
C788   C     0.57656   0.17402   0.61893   0.00000  Uiso   1.00
C789   C     0.38871   0.20478   0.95122   0.00000  Uiso   1.00
C790   C     0.60826   0.13419   0.53486   0.00000  Uiso   1.00
C791   C     0.57493   0.18430   0.98119   0.00000  Uiso   1.00
C792   C     0.35408   0.12582   0.75851   0.00000  Uiso   1.00
C793   C     0.64640   0.20665   0.74392   0.00000  Uiso   1.00
C794   C     0.64616   0.12529   0.74526   0.00000  Uiso   1.00
C795   C     0.35403   0.20704   0.75793   0.00000  Uiso   1.00
C796   C     0.62466   0.16604   0.74239   0.00000  Uiso   1.00
H797   H     0.61732   0.15916   0.83722   0.00000  Uiso   1.00
H798   H     0.36907   0.11815   0.60805   0.00000  Uiso   1.00
H799   H     0.37774   0.10971   0.88182   0.00000  Uiso   1.00
H800   H     0.62119   0.14552   0.65522   0.00000  Uiso   1.00
H801   H     0.66517   0.18918   0.92834   0.00000  Uiso   1.00
H802   H     0.33434   0.11585   0.52638   0.00000  Uiso   1.00
I803   I     0.37632   0.22665   0.55538   0.00000  Uiso   1.00
I804   I     0.56533   0.27738   0.82331   0.00000  Uiso   1.00
I805   I     0.60344   0.24806   0.98773   0.00000  Uiso   1.00
I806   I     0.37884   0.06665   0.78770   0.00000  Uiso   1.00
I807   I     0.62359   0.26506   0.71211   0.00000  Uiso   1.00
I808   I     0.62227   0.06352   0.71761   0.00000  Uiso   1.00
I809   I     0.37744   0.26711   0.78913   0.00000  Uiso   1.00
I810   I     0.56320   0.05801   0.82724   0.00000  Uiso   1.00
I811   I     0.43426   0.27411   0.67529   0.00000  Uiso   1.00
I812   I     0.43586   0.05591   0.67438   0.00000  Uiso   1.00
N813   N     0.50000   0.28573   0.75000   0.00000  Uiso   1.00
N814   N     0.50000   0.04760   0.75000   0.00000  Uiso   1.00
O815   O     0.43892   0.20487   0.75000   0.00000  Uiso   1.00
O816   O     0.58891   0.15340   0.84985   0.00000  Uiso   1.00
O817   O     0.41350   0.16722   0.65107   0.00000  Uiso   1.00
O818   O     0.39473   0.12507   0.59039   0.00000  Uiso   1.00
O819   O     0.41203   0.17310   0.85138   0.00000  Uiso   1.00
O820   O     0.40476   0.11560   0.89856   0.00000  Uiso   1.00
O821   O     0.59727   0.20759   0.61385   0.00000  Uiso   1.00
O822   O     0.59129   0.14022   0.64583   0.00000  Uiso   1.00
O823   O     0.38969   0.23945   0.93069   0.00000  Uiso   1.00
O824   O     0.35352   0.17794   0.94977   0.00000  Uiso   1.00
O825   O     0.60154   0.10244   0.55850   0.00000  Uiso   1.00
O826   O     0.56108   0.12846   0.75000   0.00000  Uiso   1.00
O827   O     0.64753   0.13990   0.51715   0.00000  Uiso   1.00
O828   O     0.56108   0.20487   0.75001   0.00000  Uiso   1.00
O829   O     0.43892   0.12846   0.75000   0.00000  Uiso   1.00
O830   O     0.49999   0.20489   0.68393   0.00000  Uiso   1.00
O831   O     0.50001   0.12844   0.81608   0.00000  Uiso   1.00
O832   O     0.50001   0.20489   0.81608   0.00000  Uiso   1.00
O833   O     0.49999   0.12844   0.68393   0.00000  Uiso   1.00
O834   O     0.60289   0.21371   0.89322   0.00000  Uiso   1.00
Zn835  Zn    0.50000   0.21771   0.75000   0.00000  Uiso   1.00
Zn836  Zn    0.50000   0.11563   0.75000   0.00000  Uiso   1.00
C837   C     0.75357   0.16669   0.75441   0.00000  Uiso   1.00
C838   C     0.70898   0.16657   0.75970   0.00000  Uiso   1.00
C839   C     0.85793   0.02435   0.77925   0.00000  Uiso   1.00
C840   C     0.80826   0.30882   0.72103   0.00000  Uiso   1.00
C841   C     0.80852   0.02312   0.72084   0.00000  Uiso   1.00
C842   C     0.85824   0.31020   0.77879   0.00000  Uiso   1.00
C843   C     0.83299   0.16623   0.66367   0.00000  Uiso   1.00
C844   C     0.83455   0.16732   0.83646   0.00000  Uiso   1.00
C845   C     0.87250   0.17950   0.90823   0.00000  Uiso   1.00
C846   C     0.79445   0.16771   0.59210   0.00000  Uiso   1.00
C847   C     0.83506   0.16996   0.88478   0.00000  Uiso   1.00
C848   C     0.91320   0.16651   0.74589   0.00000  Uiso   1.00
C849   C     0.83256   0.16576   0.61564   0.00000  Uiso   1.00
C850   C     0.79694   0.16876   0.90694   0.00000  Uiso   1.00
C851   C     0.87049   0.16778   0.59357   0.00000  Uiso   1.00
C852   C     0.79589   0.17856   0.95301   0.00000  Uiso   1.00
C853   C     0.87047   0.16829   0.54698   0.00000  Uiso   1.00
C854   C     0.83342   0.17876   0.97718   0.00000  Uiso   1.00
C855   C     0.83284   0.17553   0.52375   0.00000  Uiso   1.00
C856   C     0.87171   0.18202   0.95516   0.00000  Uiso   1.00
C857   C     0.79480   0.17758   0.54642   0.00000  Uiso   1.00
C858   C     0.75905   0.18969   0.97581   0.00000  Uiso   1.00
C859   C     0.75897   0.19120   0.52264   0.00000  Uiso   1.00
C860   C     0.90742   0.16480   0.52258   0.00000  Uiso   1.00
C861   C     0.91235   0.18334   0.88406   0.00000  Uiso   1.00
C862   C     0.75533   0.15383   0.61357   0.00000  Uiso   1.00
C863   C     0.75911   0.15273   0.88301   0.00000  Uiso   1.00
C864   C     0.90989   0.17402   0.61893   0.00000  Uiso   1.00
C865   C     0.72204   0.20478   0.95122   0.00000  Uiso   1.00
C866   C     0.94159   0.13419   0.53486   0.00000  Uiso   1.00
C867   C     0.90826   0.18430   0.98119   0.00000  Uiso   1.00
C868   C     0.68742   0.12582   0.75851   0.00000  Uiso   1.00
C869   C     0.97973   0.20665   0.74392   0.00000  Uiso   1.00
C870   C     0.97949   0.12529   0.74526   0.00000  Uiso   1.00
C871   C     0.68737   0.20704   0.75793   0.00000  Uiso   1.00
C872   C     0.95799   0.16604   0.74239   0.00000  Uiso   1.00
H873   H     0.95065   0.15916   0.83722   0.00000  Uiso   1.00
H874   H     0.70240   0.11815   0.60805   0.00000  Uiso   1.00
H875   H     0.71107   0.10971   0.88182   0.00000  Uiso   1.00
H876   H     0.95453   0.14552   0.65522   0.00000  Uiso   1.00
H877   H     0.99850   0.18918   0.92834   0.00000  Uiso   1.00
H878   H     0.66768   0.11585   0.52638   0.00000  Uiso   1.00
I879   I     0.70966   0.22665   0.55538   0.00000  Uiso   1.00
I880   I     0.89866   0.27738   0.82331   0.00000  Uiso   1.00
I881   I     0.93677   0.24806   0.98773   0.00000  Uiso   1.00
I882   I     0.71217   0.06665   0.78770   0.00000  Uiso   1.00
I883   I     0.95692   0.26506   0.71211   0.00000  Uiso   1.00
I884   I     0.95561   0.06352   0.71761   0.00000  Uiso   1.00
I885   I     0.71077   0.26711   0.78913   0.00000  Uiso   1.00
I886   I     0.89653   0.05801   0.82724   0.00000  Uiso   1.00
I887   I     0.76760   0.27411   0.67529   0.00000  Uiso   1.00
I888   I     0.76919   0.05591   0.67438   0.00000  Uiso   1.00
N889   N     0.83333   0.28573   0.75000   0.00000  Uiso   1.00
N890   N     0.83333   0.04760   0.75000   0.00000  Uiso   1.00
O891   O     0.77226   0.20487   0.75000   0.00000  Uiso   1.00
O892   O     0.92224   0.15340   0.84985   0.00000  Uiso   1.00
O893   O     0.74683   0.16722   0.65107   0.00000  Uiso   1.00
O894   O     0.72807   0.12507   0.59039   0.00000  Uiso   1.00
O895   O     0.74537   0.17310   0.85138   0.00000  Uiso   1.00
O896   O     0.73810   0.11560   0.89856   0.00000  Uiso   1.00
O897   O     0.93060   0.20759   0.61385   0.00000  Uiso   1.00
O898   O     0.92462   0.14022   0.64583   0.00000  Uiso   1.00
O899   O     0.72302   0.23945   0.93069   0.00000  Uiso   1.00
O900   O     0.68685   0.17794   0.94977   0.00000  Uiso   1.00
O901   O     0.93487   0.10244   0.55850   0.00000  Uiso   1.00
O902   O     0.89441   0.12846   0.75000   0.00000  Uiso   1.00
O903   O     0.98087   0.13990   0.51715   0.00000  Uiso   1.00
O904   O     0.89441   0.20487   0.75001   0.00000  Uiso   1.00
O905   O     0.77226   0.12846   0.75000   0.00000  Uiso   1.00
O906   O     0.83333   0.20489   0.68393   0.00000  Uiso   1.00
O907   O     0.83334   0.12844   0.81608   0.00000  Uiso   1.00
O908   O     0.83334   0.20489   0.81608   0.00000  Uiso   1.00
O909   O     0.83333   0.12844   0.68393   0.00000  Uiso   1.00
O910   O     0.93622   0.21371   0.89322   0.00000  Uiso   1.00
Zn911  Zn    0.83333   0.21771   0.75000   0.00000  Uiso   1.00
Zn912  Zn    0.83333   0.11563   0.75000   0.00000  Uiso   1.00
C913   C     0.08691   0.50003   0.75441   0.00000  Uiso   1.00
C914   C     0.04232   0.49991   0.75970   0.00000  Uiso   1.00
C915   C     0.19126   0.35769   0.77925   0.00000  Uiso   1.00
C916   C     0.14160   0.64216   0.72103   0.00000  Uiso   1.00
C917   C     0.14185   0.35646   0.72084   0.00000  Uiso   1.00
C918   C     0.19157   0.64353   0.77879   0.00000  Uiso   1.00
C919   C     0.16633   0.49957   0.66367   0.00000  Uiso   1.00
C920   C     0.16789   0.50065   0.83646   0.00000  Uiso   1.00
C921   C     0.20583   0.51283   0.90823   0.00000  Uiso   1.00
C922   C     0.12778   0.50104   0.59210   0.00000  Uiso   1.00
C923   C     0.16839   0.50329   0.88478   0.00000  Uiso   1.00
C924   C     0.24653   0.49984   0.74589   0.00000  Uiso   1.00
C925   C     0.16589   0.49910   0.61564   0.00000  Uiso   1.00
C926   C     0.13028   0.50209   0.90694   0.00000  Uiso   1.00
C927   C     0.20383   0.50111   0.59357   0.00000  Uiso   1.00
C928   C     0.12922   0.51189   0.95301   0.00000  Uiso   1.00
C929   C     0.20381   0.50163   0.54698   0.00000  Uiso   1.00
C930   C     0.16675   0.51209   0.97718   0.00000  Uiso   1.00
C931   C     0.16617   0.50886   0.52375   0.00000  Uiso   1.00
C932   C     0.20504   0.51535   0.95516   0.00000  Uiso   1.00
C933   C     0.12813   0.51091   0.54642   0.00000  Uiso   1.00
C934   C     0.09238   0.52302   0.97581   0.00000  Uiso   1.00
C935   C     0.09231   0.52454   0.52264   0.00000  Uiso   1.00
C936   C     0.24076   0.49813   0.52258   0.00000  Uiso   1.00
C937   C     0.24568   0.51667   0.88406   0.00000  Uiso   1.00
C938   C     0.08867   0.48716   0.61357   0.00000  Uiso   1.00
C939   C     0.09244   0.48606   0.88301   0.00000  Uiso   1.00
C940   C     0.24323   0.50736   0.61893   0.00000  Uiso   1.00
C941   C     0.05537   0.53812   0.95122   0.00000  Uiso   1.00
C942   C     0.27492   0.46753   0.53486   0.00000  Uiso   1.00
C943   C     0.24159   0.51764   0.98119   0.00000  Uiso   1.00
C944   C     0.02075   0.45915   0.75851   0.00000  Uiso   1.00
C945   C     0.31307   0.53998   0.74392   0.00000  Uiso   1.00
C946   C     0.31282   0.45862   0.74526   0.00000  Uiso   1.00
C947   C     0.02070   0.54038   0.75793   0.00000  Uiso   1.00
C948   C     0.29132   0.49937   0.74239   0.00000  Uiso   1.00
H949   H     0.28399   0.49249   0.83722   0.00000  Uiso   1.00
H950   H     0.03573   0.45149   0.60805   0.00000  Uiso   1.00
H951   H     0.04441   0.44304   0.88182   0.00000  Uiso   1.00
H952   H     0.28786   0.47886   0.65522   0.00000  Uiso   1.00
H953   H     0.33184   0.52252   0.92834   0.00000  Uiso   1.00
H954   H     0.00101   0.44918   0.52638   0.00000  Uiso   1.00
I955   I     0.04299   0.55999   0.55538   0.00000  Uiso   1.00
I956   I     0.23200   0.61071   0.82331   0.00000  Uiso   1.00
I957   I     0.27011   0.58140   0.98773   0.00000  Uiso   1.00
I958   I     0.04551   0.39999   0.78770   0.00000  Uiso   1.00
I959   I     0.29026   0.59839   0.71211   0.00000  Uiso   1.00
I960   I     0.28894   0.39686   0.71761   0.00000  Uiso   1.00
I961   I     0.04410   0.60044   0.78913   0.00000  Uiso   1.00
I962   I     0.22987   0.39134   0.82724   0.00000  Uiso   1.00
I963   I     0.10093   0.60745   0.67529   0.00000  Uiso   1.00
I964   I     0.10253   0.38925   0.67438   0.00000  Uiso   1.00
N965   N     0.16667   0.61907   0.75000   0.00000  Uiso   1.00
N966   N     0.16667   0.38093   0.75000   0.00000  Uiso   1.00
O967   O     0.10559   0.53821   0.75000   0.00000  Uiso   1.00
O968   O     0.25557   0.48673   0.84985   0.00000  Uiso   1.00
O969   O     0.08017   0.50055   0.65107   0.00000  Uiso   1.00
O970   O     0.06140   0.45840   0.59039   0.00000  Uiso   1.00
O971   O     0.07870   0.50643   0.85138   0.00000  Uiso   1.00
O972   O     0.07143   0.44893   0.89856   0.00000  Uiso   1.00
O973   O     0.26393   0.54093   0.61385   0.00000  Uiso   1.00
O974   O     0.25795   0.47355   0.64583   0.00000  Uiso   1.00
O975   O     0.05635   0.57278   0.93069   0.00000  Uiso   1.00
O976   O     0.02018   0.51127   0.94977   0.00000  Uiso   1.00
O977   O     0.26821   0.43577   0.55850   0.00000  Uiso   1.00
O978   O     0.22774   0.46179   0.75000   0.00000  Uiso   1.00
O979   O     0.31420   0.47323   0.51715   0.00000  Uiso   1.00
O980   O     0.22774   0.53821   0.75001   0.00000  Uiso   1.00
O981   O     0.10559   0.46179   0.75000   0.00000  Uiso   1.00
O982   O     0.16666   0.53823   0.68393   0.00000  Uiso   1.00
O983   O     0.16667   0.46177   0.81608   0.00000  Uiso   1.00
O984   O     0.16667   0.53823   0.81608   0.00000  Uiso   1.00
O985   O     0.16666   0.46177   0.68393   0.00000  Uiso   1.00
O986   O     0.26956   0.54705   0.89322   0.00000  Uiso   1.00
Zn987  Zn    0.16667   0.55104   0.75000   0.00000  Uiso   1.00
Zn988  Zn    0.16667   0.44896   0.75000   0.00000  Uiso   1.00
C989   C     0.42024   0.50003   0.75441   0.00000  Uiso   1.00
C990   C     0.37565   0.49991   0.75970   0.00000  Uiso   1.00
C991   C     0.52460   0.35769   0.77925   0.00000  Uiso   1.00
C992   C     0.47493   0.64216   0.72103   0.00000  Uiso   1.00
C993   C     0.47519   0.35646   0.72084   0.00000  Uiso   1.00
C994   C     0.52490   0.64353   0.77879   0.00000  Uiso   1.00
C995   C     0.49966   0.49957   0.66367   0.00000  Uiso   1.00
C996   C     0.50122   0.50065   0.83646   0.00000  Uiso   1.00
C997   C     0.53917   0.51283   0.90823   0.00000  Uiso   1.00
C998   C     0.46112   0.50104   0.59210   0.00000  Uiso   1.00
C999   C     0.50172   0.50329   0.88478   0.00000  Uiso   1.00
C1000  C     0.57986   0.49984   0.74589   0.00000  Uiso   1.00
C1001  C     0.49923   0.49910   0.61564   0.00000  Uiso   1.00
C1002  C     0.46361   0.50209   0.90694   0.00000  Uiso   1.00
C1003  C     0.53716   0.50111   0.59357   0.00000  Uiso   1.00
C1004  C     0.46256   0.51189   0.95301   0.00000  Uiso   1.00
C1005  C     0.53714   0.50163   0.54698   0.00000  Uiso   1.00
C1006  C     0.50009   0.51209   0.97718   0.00000  Uiso   1.00
C1007  C     0.49951   0.50886   0.52375   0.00000  Uiso   1.00
C1008  C     0.53837   0.51535   0.95516   0.00000  Uiso   1.00
C1009  C     0.46146   0.51091   0.54642   0.00000  Uiso   1.00
C1010  C     0.42571   0.52302   0.97581   0.00000  Uiso   1.00
C1011  C     0.42564   0.52454   0.52264   0.00000  Uiso   1.00
C1012  C     0.57409   0.49813   0.52258   0.00000  Uiso   1.00
C1013  C     0.57901   0.51667   0.88406   0.00000  Uiso   1.00
C1014  C     0.42200   0.48716   0.61357   0.00000  Uiso   1.00
C1015  C     0.42577   0.48606   0.88301   0.00000  Uiso   1.00
C1016  C     0.57656   0.50736   0.61893   0.00000  Uiso   1.00
C1017  C     0.38871   0.53812   0.95122   0.00000  Uiso   1.00
C1018  C     0.60826   0.46753   0.53486   0.00000  Uiso   1.00
C1019  C     0.57493   0.51764   0.98119   0.00000  Uiso   1.00
C1020  C     0.35408   0.45915   0.75851   0.00000  Uiso   1.00
C1021  C     0.64640   0.53998   0.74392   0.00000  Uiso   1.00
C1022  C     0.64616   0.45862   0.74526   0.00000  Uiso   1.00
C1023  C     0.35403   0.54038   0.75793   0.00000  Uiso   1.00
C1024  C     0.62466   0.49937   0.74239   0.00000  Uiso   1.00
H1025  H     0.61732   0.49249   0.83722   0.00000  Uiso   1.00
H1026  H     0.36907   0.45149   0.60805   0.00000  Uiso   1.00
H1027  H     0.37774   0.44304   0.88182   0.00000  Uiso   1.00
H1028  H     0.62119   0.47886   0.65522   0.00000  Uiso   1.00
H1029  H     0.66517   0.52252   0.92834   0.00000  Uiso   1.00
H1030  H     0.33434   0.44918   0.52638   0.00000  Uiso   1.00
I1031  I     0.37632   0.55999   0.55538   0.00000  Uiso   1.00
I1032  I     0.56533   0.61071   0.82331   0.00000  Uiso   1.00
I1033  I     0.60344   0.58140   0.98773   0.00000  Uiso   1.00
I1034  I     0.37884   0.39999   0.78770   0.00000  Uiso   1.00
I1035  I     0.62359   0.59839   0.71211   0.00000  Uiso   1.00
I1036  I     0.62227   0.39686   0.71761   0.00000  Uiso   1.00
I1037  I     0.37744   0.60044   0.78913   0.00000  Uiso   1.00
I1038  I     0.56320   0.39134   0.82724   0.00000  Uiso   1.00
I1039  I     0.43426   0.60745   0.67529   0.00000  Uiso   1.00
I1040  I     0.43586   0.38925   0.67438   0.00000  Uiso   1.00
N1041  N     0.50000   0.61907   0.75000   0.00000  Uiso   1.00
N1042  N     0.50000   0.38093   0.75000   0.00000  Uiso   1.00
O1043  O     0.43892   0.53821   0.75000   0.00000  Uiso   1.00
O1044  O     0.58891   0.48673   0.84985   0.00000  Uiso   1.00
O1045  O     0.41350   0.50055   0.65107   0.00000  Uiso   1.00
O1046  O     0.39473   0.45840   0.59039   0.00000  Uiso   1.00
O1047  O     0.41203   0.50643   0.85138   0.00000  Uiso   1.00
O1048  O     0.40476   0.44893   0.89856   0.00000  Uiso   1.00
O1049  O     0.59727   0.54093   0.61385   0.00000  Uiso   1.00
O1050  O     0.59129   0.47355   0.64583   0.00000  Uiso   1.00
O1051  O     0.38969   0.57278   0.93069   0.00000  Uiso   1.00
O1052  O     0.35352   0.51127   0.94977   0.00000  Uiso   1.00
O1053  O     0.60154   0.43577   0.55850   0.00000  Uiso   1.00
O1054  O     0.56108   0.46179   0.75000   0.00000  Uiso   1.00
O1055  O     0.64753   0.47323   0.51715   0.00000  Uiso   1.00
O1056  O     0.56108   0.53821   0.75001   0.00000  Uiso   1.00
O1057  O     0.43892   0.46179   0.75000   0.00000  Uiso   1.00
O1058  O     0.49999   0.53823   0.68393   0.00000  Uiso   1.00
O1059  O     0.50001   0.46177   0.81608   0.00000  Uiso   1.00
O1060  O     0.50001   0.53823   0.81608   0.00000  Uiso   1.00
O1061  O     0.49999   0.46177   0.68393   0.00000  Uiso   1.00
O1062  O     0.60289   0.54705   0.89322   0.00000  Uiso   1.00
Zn1063 Zn    0.50000   0.55104   0.75000   0.00000  Uiso   1.00
Zn1064 Zn    0.50000   0.44896   0.75000   0.00000  Uiso   1.00
C1065  C     0.75357   0.50003   0.75441   0.00000  Uiso   1.00
C1066  C     0.70898   0.49991   0.75970   0.00000  Uiso   1.00
C1067  C     0.85793   0.35769   0.77925   0.00000  Uiso   1.00
C1068  C     0.80826   0.64216   0.72103   0.00000  Uiso   1.00
C1069  C     0.80852   0.35646   0.72084   0.00000  Uiso   1.00
C1070  C     0.85824   0.64353   0.77879   0.00000  Uiso   1.00
C1071  C     0.83299   0.49957   0.66367   0.00000  Uiso   1.00
C1072  C     0.83455   0.50065   0.83646   0.00000  Uiso   1.00
C1073  C     0.87250   0.51283   0.90823   0.00000  Uiso   1.00
C1074  C     0.79445   0.50104   0.59210   0.00000  Uiso   1.00
C1075  C     0.83506   0.50329   0.88478   0.00000  Uiso   1.00
C1076  C     0.91320   0.49984   0.74589   0.00000  Uiso   1.00
C1077  C     0.83256   0.49910   0.61564   0.00000  Uiso   1.00
C1078  C     0.79694   0.50209   0.90694   0.00000  Uiso   1.00
C1079  C     0.87049   0.50111   0.59357   0.00000  Uiso   1.00
C1080  C     0.79589   0.51189   0.95301   0.00000  Uiso   1.00
C1081  C     0.87047   0.50163   0.54698   0.00000  Uiso   1.00
C1082  C     0.83342   0.51209   0.97718   0.00000  Uiso   1.00
C1083  C     0.83284   0.50886   0.52375   0.00000  Uiso   1.00
C1084  C     0.87171   0.51535   0.95516   0.00000  Uiso   1.00
C1085  C     0.79480   0.51091   0.54642   0.00000  Uiso   1.00
C1086  C     0.75905   0.52302   0.97581   0.00000  Uiso   1.00
C1087  C     0.75897   0.52454   0.52264   0.00000  Uiso   1.00
C1088  C     0.90742   0.49813   0.52258   0.00000  Uiso   1.00
C1089  C     0.91235   0.51667   0.88406   0.00000  Uiso   1.00
C1090  C     0.75533   0.48716   0.61357   0.00000  Uiso   1.00
C1091  C     0.75911   0.48606   0.88301   0.00000  Uiso   1.00
C1092  C     0.90989   0.50736   0.61893   0.00000  Uiso   1.00
C1093  C     0.72204   0.53812   0.95122   0.00000  Uiso   1.00
C1094  C     0.94159   0.46753   0.53486   0.00000  Uiso   1.00
C1095  C     0.90826   0.51764   0.98119   0.00000  Uiso   1.00
C1096  C     0.68742   0.45915   0.75851   0.00000  Uiso   1.00
C1097  C     0.97973   0.53998   0.74392   0.00000  Uiso   1.00
C1098  C     0.97949   0.45862   0.74526   0.00000  Uiso   1.00
C1099  C     0.68737   0.54038   0.75793   0.00000  Uiso   1.00
C1100  C     0.95799   0.49937   0.74239   0.00000  Uiso   1.00
H1101  H     0.95065   0.49249   0.83722   0.00000  Uiso   1.00
H1102  H     0.70240   0.45149   0.60805   0.00000  Uiso   1.00
H1103  H     0.71107   0.44304   0.88182   0.00000  Uiso   1.00
H1104  H     0.95453   0.47886   0.65522   0.00000  Uiso   1.00
H1105  H     0.99850   0.52252   0.92834   0.00000  Uiso   1.00
H1106  H     0.66768   0.44918   0.52638   0.00000  Uiso   1.00
I1107  I     0.70966   0.55999   0.55538   0.00000  Uiso   1.00
I1108  I     0.89866   0.61071   0.82331   0.00000  Uiso   1.00
I1109  I     0.93677   0.58140   0.98773   0.00000  Uiso   1.00
I1110  I     0.71217   0.39999   0.78770   0.00000  Uiso   1.00
I1111  I     0.95692   0.59839   0.71211   0.00000  Uiso   1.00
I1112  I     0.95561   0.39686   0.71761   0.00000  Uiso   1.00
I1113  I     0.71077   0.60044   0.78913   0.00000  Uiso   1.00
I1114  I     0.89653   0.39134   0.82724   0.00000  Uiso   1.00
I1115  I     0.76760   0.60745   0.67529   0.00000  Uiso   1.00
I1116  I     0.76919   0.38925   0.67438   0.00000  Uiso   1.00
N1117  N     0.83333   0.61907   0.75000   0.00000  Uiso   1.00
N1118  N     0.83333   0.38093   0.75000   0.00000  Uiso   1.00
O1119  O     0.77226   0.53821   0.75000   0.00000  Uiso   1.00
O1120  O     0.92224   0.48673   0.84985   0.00000  Uiso   1.00
O1121  O     0.74683   0.50055   0.65107   0.00000  Uiso   1.00
O1122  O     0.72807   0.45840   0.59039   0.00000  Uiso   1.00
O1123  O     0.74537   0.50643   0.85138   0.00000  Uiso   1.00
O1124  O     0.73810   0.44893   0.89856   0.00000  Uiso   1.00
O1125  O     0.93060   0.54093   0.61385   0.00000  Uiso   1.00
O1126  O     0.92462   0.47355   0.64583   0.00000  Uiso   1.00
O1127  O     0.72302   0.57278   0.93069   0.00000  Uiso   1.00
O1128  O     0.68685   0.51127   0.94977   0.00000  Uiso   1.00
O1129  O     0.93487   0.43577   0.55850   0.00000  Uiso   1.00
O1130  O     0.89441   0.46179   0.75000   0.00000  Uiso   1.00
O1131  O     0.98087   0.47323   0.51715   0.00000  Uiso   1.00
O1132  O     0.89441   0.53821   0.75001   0.00000  Uiso   1.00
O1133  O     0.77226   0.46179   0.75000   0.00000  Uiso   1.00
O1134  O     0.83333   0.53823   0.68393   0.00000  Uiso   1.00
O1135  O     0.83334   0.46177   0.81608   0.00000  Uiso   1.00
O1136  O     0.83334   0.53823   0.81608   0.00000  Uiso   1.00
O1137  O     0.83333   0.46177   0.68393   0.00000  Uiso   1.00
O1138  O     0.93622   0.54705   0.89322   0.00000  Uiso   1.00
Zn1139 Zn    0.83333   0.55104   0.75000   0.00000  Uiso   1.00
Zn1140 Zn    0.83333   0.44896   0.75000   0.00000  Uiso   1.00
C1141  C     0.08691   0.83336   0.75441   0.00000  Uiso   1.00
C1142  C     0.04232   0.83324   0.75970   0.00000  Uiso   1.00
C1143  C     0.19126   0.69102   0.77925   0.00000  Uiso   1.00
C1144  C     0.14160   0.97549   0.72103   0.00000  Uiso   1.00
C1145  C     0.14185   0.68979   0.72084   0.00000  Uiso   1.00
C1146  C     0.19157   0.97686   0.77879   0.00000  Uiso   1.00
C1147  C     0.16633   0.83290   0.66367   0.00000  Uiso   1.00
C1148  C     0.16789   0.83398   0.83646   0.00000  Uiso   1.00
C1149  C     0.20583   0.84616   0.90823   0.00000  Uiso   1.00
C1150  C     0.12778   0.83437   0.59210   0.00000  Uiso   1.00
C1151  C     0.16839   0.83662   0.88478   0.00000  Uiso   1.00
C1152  C     0.24653   0.83318   0.74589   0.00000  Uiso   1.00
C1153  C     0.16589   0.83243   0.61564   0.00000  Uiso   1.00
C1154  C     0.13028   0.83542   0.90694   0.00000  Uiso   1.00
C1155  C     0.20383   0.83444   0.59357   0.00000  Uiso   1.00
C1156  C     0.12922   0.84523   0.95301   0.00000  Uiso   1.00
C1157  C     0.20381   0.83496   0.54698   0.00000  Uiso   1.00
C1158  C     0.16675   0.84542   0.97718   0.00000  Uiso   1.00
C1159  C     0.16617   0.84220   0.52375   0.00000  Uiso   1.00
C1160  C     0.20504   0.84869   0.95516   0.00000  Uiso   1.00
C1161  C     0.12813   0.84424   0.54642   0.00000  Uiso   1.00
C1162  C     0.09238   0.85636   0.97581   0.00000  Uiso   1.00
C1163  C     0.09231   0.85787   0.52264   0.00000  Uiso   1.00
C1164  C     0.24076   0.83146   0.52258   0.00000  Uiso   1.00
C1165  C     0.24568   0.85000   0.88406   0.00000  Uiso   1.00
C1166  C     0.08867   0.82050   0.61357   0.00000  Uiso   1.00
C1167  C     0.09244   0.81940   0.88301   0.00000  Uiso   1.00
C1168  C     0.24323   0.84069   0.61893   0.00000  Uiso   1.00
C1169  C     0.05537   0.87145   0.95122   0.00000  Uiso   1.00
C1170  C     0.27492   0.80086   0.53486   0.00000  Uiso   1.00
C1171  C     0.24159   0.85097   0.98119   0.00000  Uiso   1.00
C1172  C     0.02075   0.79249   0.75851   0.00000  Uiso   1.00
C1173  C     0.31307   0.87331   0.74392   0.00000  Uiso   1.00
C1174  C     0.31282   0.79195   0.74526   0.00000  Uiso   1.00
C1175  C     0.02070   0.87371   0.75793   0.00000  Uiso   1.00
C1176  C     0.29132   0.83271   0.74239   0.00000  Uiso   1.00
H1177  H     0.28399   0.82582   0.83722   0.00000  Uiso   1.00
H1178  H     0.03573   0.78482   0.60805   0.00000  Uiso   1.00
H1179  H     0.04441   0.77637   0.88182   0.00000  Uiso   1.00
H1180  H     0.28786   0.81219   0.65522   0.00000  Uiso   1.00
H1181  H     0.33184   0.85585   0.92834   0.00000  Uiso   1.00
H1182  H     0.00101   0.78252   0.52638   0.00000  Uiso   1.00
I1183  I     0.04299   0.89332   0.55538   0.00000  Uiso   1.00
I1184  I     0.23200   0.94404   0.82331   0.00000  Uiso   1.00
I1185  I     0.27011   0.91473   0.98773   0.00000  Uiso   1.00
I1186  I     0.04551   0.73332   0.78770   0.00000  Uiso   1.00
I1187  I     0.29026   0.93173   0.71211   0.00000  Uiso   1.00
I1188  I     0.28894   0.73019   0.71761   0.00000  Uiso   1.00
I1189  I     0.04410   0.93378   0.78913   0.00000  Uiso   1.00
I1190  I     0.22987   0.72468   0.82724   0.00000  Uiso   1.00
I1191  I     0.10093   0.94078   0.67529   0.00000  Uiso   1.00
I1192  I     0.10253   0.72258   0.67438   0.00000  Uiso   1.00
N1193  N     0.16667   0.95240   0.75000   0.00000  Uiso   1.00
N1194  N     0.16667   0.71427   0.75000   0.00000  Uiso   1.00
O1195  O     0.10559   0.87154   0.75000   0.00000  Uiso   1.00
O1196  O     0.25557   0.82007   0.84985   0.00000  Uiso   1.00
O1197  O     0.08017   0.83389   0.65107   0.00000  Uiso   1.00
O1198  O     0.06140   0.79173   0.59039   0.00000  Uiso   1.00
O1199  O     0.07870   0.83977   0.85138   0.00000  Uiso   1.00
O1200  O     0.07143   0.78227   0.89856   0.00000  Uiso   1.00
O1201  O     0.26393   0.87426   0.61385   0.00000  Uiso   1.00
O1202  O     0.25795   0.80688   0.64583   0.00000  Uiso   1.00
O1203  O     0.05635   0.90612   0.93069   0.00000  Uiso   1.00
O1204  O     0.02018   0.84461   0.94977   0.00000  Uiso   1.00
O1205  O     0.26821   0.76910   0.55850   0.00000  Uiso   1.00
O1206  O     0.22774   0.79513   0.75000   0.00000  Uiso   1.00
O1207  O     0.31420   0.80657   0.51715   0.00000  Uiso   1.00
O1208  O     0.22774   0.87154   0.75001   0.00000  Uiso   1.00
O1209  O     0.10559   0.79513   0.75000   0.00000  Uiso   1.00
O1210  O     0.16666   0.87156   0.68393   0.00000  Uiso   1.00
O1211  O     0.16667   0.79511   0.81608   0.00000  Uiso   1.00
O1212  O     0.16667   0.87156   0.81608   0.00000  Uiso   1.00
O1213  O     0.16666   0.79511   0.68393   0.00000  Uiso   1.00
O1214  O     0.26956   0.88038   0.89322   0.00000  Uiso   1.00
Zn1215 Zn    0.16667   0.88437   0.75000   0.00000  Uiso   1.00
Zn1216 Zn    0.16667   0.78229   0.75000   0.00000  Uiso   1.00
C1217  C     0.42024   0.83336   0.75441   0.00000  Uiso   1.00
C1218  C     0.37565   0.83324   0.75970   0.00000  Uiso   1.00
C1219  C     0.52460   0.69102   0.77925   0.00000  Uiso   1.00
C1220  C     0.47493   0.97549   0.72103   0.00000  Uiso   1.00
C1221  C     0.47519   0.68979   0.72084   0.00000  Uiso   1.00
C1222  C     0.52490   0.97686   0.77879   0.00000  Uiso   1.00
C1223  C     0.49966   0.83290   0.66367   0.00000  Uiso   1.00
C1224  C     0.50122   0.83398   0.83646   0.00000  Uiso   1.00
C1225  C     0.53917   0.84616   0.90823   0.00000  Uiso   1.00
C1226  C     0.46112   0.83437   0.59210   0.00000  Uiso   1.00
C1227  C     0.50172   0.83662   0.88478   0.00000  Uiso   1.00
C1228  C     0.57986   0.83318   0.74589   0.00000  Uiso   1.00
C1229  C     0.49923   0.83243   0.61564   0.00000  Uiso   1.00
C1230  C     0.46361   0.83542   0.90694   0.00000  Uiso   1.00
C1231  C     0.53716   0.83444   0.59357   0.00000  Uiso   1.00
C1232  C     0.46256   0.84523   0.95301   0.00000  Uiso   1.00
C1233  C     0.53714   0.83496   0.54698   0.00000  Uiso   1.00
C1234  C     0.50009   0.84542   0.97718   0.00000  Uiso   1.00
C1235  C     0.49951   0.84220   0.52375   0.00000  Uiso   1.00
C1236  C     0.53837   0.84869   0.95516   0.00000  Uiso   1.00
C1237  C     0.46146   0.84424   0.54642   0.00000  Uiso   1.00
C1238  C     0.42571   0.85636   0.97581   0.00000  Uiso   1.00
C1239  C     0.42564   0.85787   0.52264   0.00000  Uiso   1.00
C1240  C     0.57409   0.83146   0.52258   0.00000  Uiso   1.00
C1241  C     0.57901   0.85000   0.88406   0.00000  Uiso   1.00
C1242  C     0.42200   0.82050   0.61357   0.00000  Uiso   1.00
C1243  C     0.42577   0.81940   0.88301   0.00000  Uiso   1.00
C1244  C     0.57656   0.84069   0.61893   0.00000  Uiso   1.00
C1245  C     0.38871   0.87145   0.95122   0.00000  Uiso   1.00
C1246  C     0.60826   0.80086   0.53486   0.00000  Uiso   1.00
C1247  C     0.57493   0.85097   0.98119   0.00000  Uiso   1.00
C1248  C     0.35408   0.79249   0.75851   0.00000  Uiso   1.00
C1249  C     0.64640   0.87331   0.74392   0.00000  Uiso   1.00
C1250  C     0.64616   0.79195   0.74526   0.00000  Uiso   1.00
C1251  C     0.35403   0.87371   0.75793   0.00000  Uiso   1.00
C1252  C     0.62466   0.83271   0.74239   0.00000  Uiso   1.00
H1253  H     0.61732   0.82582   0.83722   0.00000  Uiso   1.00
H1254  H     0.36907   0.78482   0.60805   0.00000  Uiso   1.00
H1255  H     0.37774   0.77637   0.88182   0.00000  Uiso   1.00
H1256  H     0.62119   0.81219   0.65522   0.00000  Uiso   1.00
H1257  H     0.66517   0.85585   0.92834   0.00000  Uiso   1.00
H1258  H     0.33434   0.78252   0.52638   0.00000  Uiso   1.00
I1259  I     0.37632   0.89332   0.55538   0.00000  Uiso   1.00
I1260  I     0.56533   0.94404   0.82331   0.00000  Uiso   1.00
I1261  I     0.60344   0.91473   0.98773   0.00000  Uiso   1.00
I1262  I     0.37884   0.73332   0.78770   0.00000  Uiso   1.00
I1263  I     0.62359   0.93173   0.71211   0.00000  Uiso   1.00
I1264  I     0.62227   0.73019   0.71761   0.00000  Uiso   1.00
I1265  I     0.37744   0.93378   0.78913   0.00000  Uiso   1.00
I1266  I     0.56320   0.72468   0.82724   0.00000  Uiso   1.00
I1267  I     0.43426   0.94078   0.67529   0.00000  Uiso   1.00
I1268  I     0.43586   0.72258   0.67438   0.00000  Uiso   1.00
N1269  N     0.50000   0.95240   0.75000   0.00000  Uiso   1.00
N1270  N     0.50000   0.71427   0.75000   0.00000  Uiso   1.00
O1271  O     0.43892   0.87154   0.75000   0.00000  Uiso   1.00
O1272  O     0.58891   0.82007   0.84985   0.00000  Uiso   1.00
O1273  O     0.41350   0.83389   0.65107   0.00000  Uiso   1.00
O1274  O     0.39473   0.79173   0.59039   0.00000  Uiso   1.00
O1275  O     0.41203   0.83977   0.85138   0.00000  Uiso   1.00
O1276  O     0.40476   0.78227   0.89856   0.00000  Uiso   1.00
O1277  O     0.59727   0.87426   0.61385   0.00000  Uiso   1.00
O1278  O     0.59129   0.80688   0.64583   0.00000  Uiso   1.00
O1279  O     0.38969   0.90612   0.93069   0.00000  Uiso   1.00
O1280  O     0.35352   0.84461   0.94977   0.00000  Uiso   1.00
O1281  O     0.60154   0.76910   0.55850   0.00000  Uiso   1.00
O1282  O     0.56108   0.79513   0.75000   0.00000  Uiso   1.00
O1283  O     0.64753   0.80657   0.51715   0.00000  Uiso   1.00
O1284  O     0.56108   0.87154   0.75001   0.00000  Uiso   1.00
O1285  O     0.43892   0.79513   0.75000   0.00000  Uiso   1.00
O1286  O     0.49999   0.87156   0.68393   0.00000  Uiso   1.00
O1287  O     0.50001   0.79511   0.81608   0.00000  Uiso   1.00
O1288  O     0.50001   0.87156   0.81608   0.00000  Uiso   1.00
O1289  O     0.49999   0.79511   0.68393   0.00000  Uiso   1.00
O1290  O     0.60289   0.88038   0.89322   0.00000  Uiso   1.00
Zn1291 Zn    0.50000   0.88437   0.75000   0.00000  Uiso   1.00
Zn1292 Zn    0.50000   0.78229   0.75000   0.00000  Uiso   1.00
C1293  C     0.75357   0.83336   0.75441   0.00000  Uiso   1.00
C1294  C     0.70898   0.83324   0.75970   0.00000  Uiso   1.00
C1295  C     0.85793   0.69102   0.77925   0.00000  Uiso   1.00
C1296  C     0.80826   0.97549   0.72103   0.00000  Uiso   1.00
C1297  C     0.80852   0.68979   0.72084   0.00000  Uiso   1.00
C1298  C     0.85824   0.97686   0.77879   0.00000  Uiso   1.00
C1299  C     0.83299   0.83290   0.66367   0.00000  Uiso   1.00
C1300  C     0.83455   0.83398   0.83646   0.00000  Uiso   1.00
C1301  C     0.87250   0.84616   0.90823   0.00000  Uiso   1.00
C1302  C     0.79445   0.83437   0.59210   0.00000  Uiso   1.00
C1303  C     0.83506   0.83662   0.88478   0.00000  Uiso   1.00
C1304  C     0.91320   0.83318   0.74589   0.00000  Uiso   1.00
C1305  C     0.83256   0.83243   0.61564   0.00000  Uiso   1.00
C1306  C     0.79694   0.83542   0.90694   0.00000  Uiso   1.00
C1307  C     0.87049   0.83444   0.59357   0.00000  Uiso   1.00
C1308  C     0.79589   0.84523   0.95301   0.00000  Uiso   1.00
C1309  C     0.87047   0.83496   0.54698   0.00000  Uiso   1.00
C1310  C     0.83342   0.84542   0.97718   0.00000  Uiso   1.00
C1311  C     0.83284   0.84220   0.52375   0.00000  Uiso   1.00
C1312  C     0.87171   0.84869   0.95516   0.00000  Uiso   1.00
C1313  C     0.79480   0.84424   0.54642   0.00000  Uiso   1.00
C1314  C     0.75905   0.85636   0.97581   0.00000  Uiso   1.00
C1315  C     0.75897   0.85787   0.52264   0.00000  Uiso   1.00
C1316  C     0.90742   0.83146   0.52258   0.00000  Uiso   1.00
C1317  C     0.91235   0.85000   0.88406   0.00000  Uiso   1.00
C1318  C     0.75533   0.82050   0.61357   0.00000  Uiso   1.00
C1319  C     0.75911   0.81940   0.88301   0.00000  Uiso   1.00
C1320  C     0.90989   0.84069   0.61893   0.00000  Uiso   1.00
C1321  C     0.72204   0.87145   0.95122   0.00000  Uiso   1.00
C1322  C     0.94159   0.80086   0.53486   0.00000  Uiso   1.00
C1323  C     0.90826   0.85097   0.98119   0.00000  Uiso   1.00
C1324  C     0.68742   0.79249   0.75851   0.00000  Uiso   1.00
C1325  C     0.97973   0.87331   0.74392   0.00000  Uiso   1.00
C1326  C     0.97949   0.79195   0.74526   0.00000  Uiso   1.00
C1327  C     0.68737   0.87371   0.75793   0.00000  Uiso   1.00
C1328  C     0.95799   0.83271   0.74239   0.00000  Uiso   1.00
H1329  H     0.95065   0.82582   0.83722   0.00000  Uiso   1.00
H1330  H     0.70240   0.78482   0.60805   0.00000  Uiso   1.00
H1331  H     0.71107   0.77637   0.88182   0.00000  Uiso   1.00
H1332  H     0.95453   0.81219   0.65522   0.00000  Uiso   1.00
H1333  H     0.99850   0.85585   0.92834   0.00000  Uiso   1.00
H1334  H     0.66768   0.78252   0.52638   0.00000  Uiso   1.00
I1335  I     0.70966   0.89332   0.55538   0.00000  Uiso   1.00
I1336  I     0.89866   0.94404   0.82331   0.00000  Uiso   1.00
I1337  I     0.93677   0.91473   0.98773   0.00000  Uiso   1.00
I1338  I     0.71217   0.73332   0.78770   0.00000  Uiso   1.00
I1339  I     0.95692   0.93173   0.71211   0.00000  Uiso   1.00
I1340  I     0.95561   0.73019   0.71761   0.00000  Uiso   1.00
I1341  I     0.71077   0.93378   0.78913   0.00000  Uiso   1.00
I1342  I     0.89653   0.72468   0.82724   0.00000  Uiso   1.00
I1343  I     0.76760   0.94078   0.67529   0.00000  Uiso   1.00
I1344  I     0.76919   0.72258   0.67438   0.00000  Uiso   1.00
N1345  N     0.83333   0.95240   0.75000   0.00000  Uiso   1.00
N1346  N     0.83333   0.71427   0.75000   0.00000  Uiso   1.00
O1347  O     0.77226   0.87154   0.75000   0.00000  Uiso   1.00
O1348  O     0.92224   0.82007   0.84985   0.00000  Uiso   1.00
O1349  O     0.74683   0.83389   0.65107   0.00000  Uiso   1.00
O1350  O     0.72807   0.79173   0.59039   0.00000  Uiso   1.00
O1351  O     0.74537   0.83977   0.85138   0.00000  Uiso   1.00
O1352  O     0.73810   0.78227   0.89856   0.00000  Uiso   1.00
O1353  O     0.93060   0.87426   0.61385   0.00000  Uiso   1.00
O1354  O     0.92462   0.80688   0.64583   0.00000  Uiso   1.00
O1355  O     0.72302   0.90612   0.93069   0.00000  Uiso   1.00
O1356  O     0.68685   0.84461   0.94977   0.00000  Uiso   1.00
O1357  O     0.93487   0.76910   0.55850   0.00000  Uiso   1.00
O1358  O     0.89441   0.79513   0.75000   0.00000  Uiso   1.00
O1359  O     0.98087   0.80657   0.51715   0.00000  Uiso   1.00
O1360  O     0.89441   0.87154   0.75001   0.00000  Uiso   1.00
O1361  O     0.77226   0.79513   0.75000   0.00000  Uiso   1.00
O1362  O     0.83333   0.87156   0.68393   0.00000  Uiso   1.00
O1363  O     0.83334   0.79511   0.81608   0.00000  Uiso   1.00
O1364  O     0.83334   0.87156   0.81608   0.00000  Uiso   1.00
O1365  O     0.83333   0.79511   0.68393   0.00000  Uiso   1.00
O1366  O     0.93622   0.88038   0.89322   0.00000  Uiso   1.00
Zn1367 Zn    0.83333   0.88437   0.75000   0.00000  Uiso   1.00
Zn1368 Zn    0.83333   0.78229   0.75000   0.00000  Uiso   1.00
loop_
_geom_bond_atom_site_label_1
_geom_bond_atom_site_label_2
_geom_bond_distance
_geom_bond_site_symmetry_2
_ccdc_geom_bond_type
C1     C2      1.450   .     S
C1     O69     1.303   .     A
C1     O55     1.305   .     A
C2     C35     1.405   .     A
C2     C32     1.407   .     A
C3     N54     1.377   .     A
C3     I50     2.126   .     S
C3     C462    1.427   1_545 S
C4     N53     1.378   .     A
C4     I51     2.137   .     S
C4     C233    1.431   .     S
C5     I52     2.131   .     S
C5     N54     1.376   .     A
C5     C460    1.431   1_545 S
C6     I44     2.115   .     S
C6     N53     1.371   .     A
C6     C231    1.427   .     S
C7     O70     1.298   .     A
C7     O73     1.300   .     A
C7     C13     1.441   .     S
C8     O72     1.297   .     A
C8     O71     1.306   .     A
C8     C11     1.450   .     S
C9     C25     1.492   .     S
C9     C20     1.409   .     A
C9     C11     1.415   .     A
C10    C26     1.490   .     S
C10    C21     1.409   .     A
C10    C13     1.411   .     A
C11    C14     1.408   .     A
C12    O68     1.308   .     A
C12    C36     1.451   .     S
C12    O66     1.302   .     A
C13    C15     1.403   .     A
C14    C27     1.481   .     S
C14    C16     1.408   .     A
C15    C17     1.399   .     A
C15    C28     1.481   .     S
C16    C22     1.418   .     A
C16    C18     1.402   .     A
C17    C19     1.411   .     A
C17    C24     1.412   .     A
C18    C20     1.415   .     A
C18    C703    1.403   .     S
C19    C21     1.414   .     A
C19    C702    1.403   1_554 S
C20    C31     1.406   .     A
C21    C23     1.415   .     A
C22    C29     1.472   .     S
C22    C707    1.405   .     S
C23    I43     2.154   .     S
C23    C706    1.405   1_554 S
C24    C30     1.485   .     S
C24    C715    1.386   1_554 S
C25    O56     1.391   .     S
C25    O74     1.217   .     D
C26    O58     1.398   .     S
C26    O57     1.222   .     D
C27    O60     1.398   .     S
C27    O59     1.220   .     D
C28    O61     1.223   .     D
C28    O62     1.392   .     S
C29    O63     1.223   .     D
C29    O64     1.391   .     S
C30    O67     1.394   .     S
C30    O65     1.223   .     D
C31    I45     2.127   .     S
C31    C708    1.386   .     S
C32    I46     2.150   .     S
C32    C186    1.384   1_455 S
C33    C36     1.406   .     A
C33    I47     2.143   .     S
C33    C111    1.381   .     S
C34    C36     1.412   .     A
C34    I48     2.152   .     S
C34    C108    1.384   .     S
C35    I49     2.145   .     S
C35    C185    1.381   1_455 S
H37    O56     1.014   .     S
H38    O58     1.014   .     S
H39    O60     1.013   .     S
H40    O62     1.013   .     S
H41    O140    1.007   .     S
H42    O219    1.013   1_455 S
N53    Zn75    2.044   .     S
N54    Zn76    2.044   .     S
O55    Zn75    2.008   .     S
O64    H193    1.007   1_455 S
O66    Zn76    2.008   .     S
O67    H118    1.013   .     S
O68    Zn75    2.010   .     S
O69    Zn76    2.010   .     S
O70    Zn75    2.011   .     S
O71    Zn76    2.011   .     S
O72    Zn75    2.029   .     S
O73    Zn76    2.029   .     S
C77    C78     1.450   .     S
C77    O145    1.303   .     A
C77    O131    1.305   .     A
C78    C111    1.405   .     A
C78    C108    1.407   .     A
C79    N130    1.377   .     A
C79    I126    2.126   .     S
C79    C538    1.427   1_545 S
C80    N129    1.378   .     A
C80    I127    2.137   .     S
C80    C309    1.431   .     S
C81    I128    2.131   .     S
C81    N130    1.376   .     A
C81    C536    1.431   1_545 S
C82    I120    2.115   .     S
C82    N129    1.371   .     A
C82    C307    1.427   .     S
C83    O146    1.298   .     A
C83    O149    1.300   .     A
C83    C89     1.441   .     S
C84    O148    1.297   .     A
C84    O147    1.306   .     A
C84    C87     1.450   .     S
C85    C101    1.492   .     S
C85    C96     1.409   .     A
C85    C87     1.415   .     A
C86    C102    1.490   .     S
C86    C97     1.409   .     A
C86    C89     1.411   .     A
C87    C90     1.408   .     A
C88    O144    1.308   .     A
C88    C112    1.451   .     S
C88    O142    1.302   .     A
C89    C91     1.403   .     A
C90    C103    1.481   .     S
C90    C92     1.408   .     A
C91    C93     1.399   .     A
C91    C104    1.481   .     S
C92    C98     1.418   .     A
C92    C94     1.402   .     A
C93    C95     1.411   .     A
C93    C100    1.412   .     A
C94    C96     1.415   .     A
C94    C779    1.403   .     S
C95    C97     1.414   .     A
C95    C778    1.403   1_554 S
C96    C107    1.406   .     A
C97    C99     1.415   .     A
C98    C105    1.472   .     S
C98    C783    1.405   .     S
C99    I119    2.154   .     S
C99    C782    1.405   1_554 S
C100   C106    1.485   .     S
C100   C791    1.386   1_554 S
C101   O132    1.391   .     S
C101   O150    1.217   .     D
C102   O134    1.398   .     S
C102   O133    1.222   .     D
C103   O136    1.398   .     S
C103   O135    1.220   .     D
C104   O137    1.223   .     D
C104   O138    1.392   .     S
C105   O139    1.223   .     D
C105   O140    1.391   .     S
C106   O143    1.394   .     S
C106   O141    1.223   .     D
C107   I121    2.127   .     S
C107   C784    1.386   .     S
C108   I122    2.150   .     S
C109   C112    1.406   .     A
C109   I123    2.143   .     S
C109   C187    1.381   .     S
C110   C112    1.412   .     A
C110   I124    2.152   .     S
C110   C184    1.384   .     S
C111   I125    2.145   .     S
H113   O132    1.014   .     S
H114   O134    1.014   .     S
H115   O136    1.013   .     S
H116   O138    1.013   .     S
H117   O216    1.007   .     S
N129   Zn151   2.044   .     S
N130   Zn152   2.044   .     S
O131   Zn151   2.008   .     S
O142   Zn152   2.008   .     S
O143   H194    1.013   .     S
O144   Zn151   2.010   .     S
O145   Zn152   2.010   .     S
O146   Zn151   2.011   .     S
O147   Zn152   2.011   .     S
O148   Zn151   2.029   .     S
O149   Zn152   2.029   .     S
C153   C154    1.450   .     S
C153   O221    1.303   .     A
C153   O207    1.305   .     A
C154   C187    1.405   .     A
C154   C184    1.407   .     A
C155   N206    1.377   .     A
C155   I202    2.126   .     S
C155   C614    1.427   1_545 S
C156   N205    1.378   .     A
C156   I203    2.137   .     S
C156   C385    1.431   .     S
C157   I204    2.131   .     S
C157   N206    1.376   .     A
C157   C612    1.431   1_545 S
C158   I196    2.115   .     S
C158   N205    1.371   .     A
C158   C383    1.427   .     S
C159   O222    1.298   .     A
C159   O225    1.300   .     A
C159   C165    1.441   .     S
C160   O224    1.297   .     A
C160   O223    1.306   .     A
C160   C163    1.450   .     S
C161   C177    1.492   .     S
C161   C172    1.409   .     A
C161   C163    1.415   .     A
C162   C178    1.490   .     S
C162   C173    1.409   .     A
C162   C165    1.411   .     A
C163   C166    1.408   .     A
C164   O220    1.308   .     A
C164   C188    1.451   .     S
C164   O218    1.302   .     A
C165   C167    1.403   .     A
C166   C179    1.481   .     S
C166   C168    1.408   .     A
C167   C169    1.399   .     A
C167   C180    1.481   .     S
C168   C174    1.418   .     A
C168   C170    1.402   .     A
C169   C171    1.411   .     A
C169   C176    1.412   .     A
C170   C172    1.415   .     A
C170   C855    1.403   .     S
C171   C173    1.414   .     A
C171   C854    1.403   1_554 S
C172   C183    1.406   .     A
C173   C175    1.415   .     A
C174   C181    1.472   .     S
C174   C859    1.405   .     S
C175   I195    2.154   .     S
C175   C858    1.405   1_554 S
C176   C182    1.485   .     S
C176   C867    1.386   1_554 S
C177   O208    1.391   .     S
C177   O226    1.217   .     D
C178   O210    1.398   .     S
C178   O209    1.222   .     D
C179   O212    1.398   .     S
C179   O211    1.220   .     D
C180   O213    1.223   .     D
C180   O214    1.392   .     S
C181   O215    1.223   .     D
C181   O216    1.391   .     S
C182   O219    1.394   .     S
C182   O217    1.223   .     D
C183   I197    2.127   .     S
C183   C860    1.386   .     S
C184   I198    2.150   .     S
C185   C188    1.406   .     A
C185   I199    2.143   .     S
C185   C35     1.381   1_655 S
C186   C188    1.412   .     A
C186   I200    2.152   .     S
C186   C32     1.384   1_655 S
C187   I201    2.145   .     S
H189   O208    1.014   .     S
H190   O210    1.014   .     S
H191   O212    1.013   .     S
H192   O214    1.013   .     S
H193   O64     1.007   1_655 S
N205   Zn227   2.044   .     S
N206   Zn228   2.044   .     S
O207   Zn227   2.008   .     S
O218   Zn228   2.008   .     S
O219   H42     1.013   1_655 S
O220   Zn227   2.010   .     S
O221   Zn228   2.010   .     S
O222   Zn227   2.011   .     S
O223   Zn228   2.011   .     S
O224   Zn227   2.029   .     S
O225   Zn228   2.029   .     S
C229   C230    1.450   .     S
C229   O297    1.303   .     A
C229   O283    1.305   .     A
C230   C263    1.405   .     A
C230   C260    1.407   .     A
C231   N282    1.377   .     A
C231   I278    2.126   .     S
C232   N281    1.378   .     A
C232   I279    2.137   .     S
C232   C461    1.431   .     S
C233   I280    2.131   .     S
C233   N282    1.376   .     A
C234   I272    2.115   .     S
C234   N281    1.371   .     A
C234   C459    1.427   .     S
C235   O298    1.298   .     A
C235   O301    1.300   .     A
C235   C241    1.441   .     S
C236   O300    1.297   .     A
C236   O299    1.306   .     A
C236   C239    1.450   .     S
C237   C253    1.492   .     S
C237   C248    1.409   .     A
C237   C239    1.415   .     A
C238   C254    1.490   .     S
C238   C249    1.409   .     A
C238   C241    1.411   .     A
C239   C242    1.408   .     A
C240   O296    1.308   .     A
C240   C264    1.451   .     S
C240   O294    1.302   .     A
C241   C243    1.403   .     A
C242   C255    1.481   .     S
C242   C244    1.408   .     A
C243   C245    1.399   .     A
C243   C256    1.481   .     S
C244   C250    1.418   .     A
C244   C246    1.402   .     A
C245   C247    1.411   .     A
C245   C252    1.412   .     A
C246   C248    1.415   .     A
C246   C931    1.403   .     S
C247   C249    1.414   .     A
C247   C930    1.403   1_554 S
C248   C259    1.406   .     A
C249   C251    1.415   .     A
C250   C257    1.472   .     S
C250   C935    1.405   .     S
C251   I271    2.154   .     S
C251   C934    1.405   1_554 S
C252   C258    1.485   .     S
C252   C943    1.386   1_554 S
C253   O284    1.391   .     S
C253   O302    1.217   .     D
C254   O286    1.398   .     S
C254   O285    1.222   .     D
C255   O288    1.398   .     S
C255   O287    1.220   .     D
C256   O289    1.223   .     D
C256   O290    1.392   .     S
C257   O291    1.223   .     D
C257   O292    1.391   .     S
C258   O295    1.394   .     S
C258   O293    1.223   .     D
C259   I273    2.127   .     S
C259   C936    1.386   .     S
C260   I274    2.150   .     S
C260   C414    1.384   1_455 S
C261   C264    1.406   .     A
C261   I275    2.143   .     S
C261   C339    1.381   .     S
C262   C264    1.412   .     A
C262   I276    2.152   .     S
C262   C336    1.384   .     S
C263   I277    2.145   .     S
C263   C413    1.381   1_455 S
H265   O284    1.014   .     S
H266   O286    1.014   .     S
H267   O288    1.013   .     S
H268   O290    1.013   .     S
H269   O368    1.007   .     S
H270   O447    1.013   1_455 S
N281   Zn303   2.044   .     S
N282   Zn304   2.044   .     S
O283   Zn303   2.008   .     S
O292   H421    1.007   1_455 S
O294   Zn304   2.008   .     S
O295   H346    1.013   .     S
O296   Zn303   2.010   .     S
O297   Zn304   2.010   .     S
O298   Zn303   2.011   .     S
O299   Zn304   2.011   .     S
O300   Zn303   2.029   .     S
O301   Zn304   2.029   .     S
C305   C306    1.450   .     S
C305   O373    1.303   .     A
C305   O359    1.305   .     A
C306   C339    1.405   .     A
C306   C336    1.407   .     A
C307   N358    1.377   .     A
C307   I354    2.126   .     S
C308   N357    1.378   .     A
C308   I355    2.137   .     S
C308   C537    1.431   .     S
C309   I356    2.131   .     S
C309   N358    1.376   .     A
C310   I348    2.115   .     S
C310   N357    1.371   .     A
C310   C535    1.427   .     S
C311   O374    1.298   .     A
C311   O377    1.300   .     A
C311   C317    1.441   .     S
C312   O376    1.297   .     A
C312   O375    1.306   .     A
C312   C315    1.450   .     S
C313   C329    1.492   .     S
C313   C324    1.409   .     A
C313   C315    1.415   .     A
C314   C330    1.490   .     S
C314   C325    1.409   .     A
C314   C317    1.411   .     A
C315   C318    1.408   .     A
C316   O372    1.308   .     A
C316   C340    1.451   .     S
C316   O370    1.302   .     A
C317   C319    1.403   .     A
C318   C331    1.481   .     S
C318   C320    1.408   .     A
C319   C321    1.399   .     A
C319   C332    1.481   .     S
C320   C326    1.418   .     A
C320   C322    1.402   .     A
C321   C323    1.411   .     A
C321   C328    1.412   .     A
C322   C324    1.415   .     A
C322   C1007   1.403   .     S
C323   C325    1.414   .     A
C323   C1006   1.403   1_554 S
C324   C335    1.406   .     A
C325   C327    1.415   .     A
C326   C333    1.472   .     S
C326   C1011   1.405   .     S
C327   I347    2.154   .     S
C327   C1010   1.405   1_554 S
C328   C334    1.485   .     S
C328   C1019   1.386   1_554 S
C329   O360    1.391   .     S
C329   O378    1.217   .     D
C330   O362    1.398   .     S
C330   O361    1.222   .     D
C331   O364    1.398   .     S
C331   O363    1.220   .     D
C332   O365    1.223   .     D
C332   O366    1.392   .     S
C333   O367    1.223   .     D
C333   O368    1.391   .     S
C334   O371    1.394   .     S
C334   O369    1.223   .     D
C335   I349    2.127   .     S
C335   C1012   1.386   .     S
C336   I350    2.150   .     S
C337   C340    1.406   .     A
C337   I351    2.143   .     S
C337   C415    1.381   .     S
C338   C340    1.412   .     A
C338   I352    2.152   .     S
C338   C412    1.384   .     S
C339   I353    2.145   .     S
H341   O360    1.014   .     S
H342   O362    1.014   .     S
H343   O364    1.013   .     S
H344   O366    1.013   .     S
H345   O444    1.007   .     S
N357   Zn379   2.044   .     S
N358   Zn380   2.044   .     S
O359   Zn379   2.008   .     S
O370   Zn380   2.008   .     S
O371   H422    1.013   .     S
O372   Zn379   2.010   .     S
O373   Zn380   2.010   .     S
O374   Zn379   2.011   .     S
O375   Zn380   2.011   .     S
O376   Zn379   2.029   .     S
O377   Zn380   2.029   .     S
C381   C382    1.450   .     S
C381   O449    1.303   .     A
C381   O435    1.305   .     A
C382   C415    1.405   .     A
C382   C412    1.407   .     A
C383   N434    1.377   .     A
C383   I430    2.126   .     S
C384   N433    1.378   .     A
C384   I431    2.137   .     S
C384   C613    1.431   .     S
C385   I432    2.131   .     S
C385   N434    1.376   .     A
C386   I424    2.115   .     S
C386   N433    1.371   .     A
C386   C611    1.427   .     S
C387   O450    1.298   .     A
C387   O453    1.300   .     A
C387   C393    1.441   .     S
C388   O452    1.297   .     A
C388   O451    1.306   .     A
C388   C391    1.450   .     S
C389   C405    1.492   .     S
C389   C400    1.409   .     A
C389   C391    1.415   .     A
C390   C406    1.490   .     S
C390   C401    1.409   .     A
C390   C393    1.411   .     A
C391   C394    1.408   .     A
C392   O448    1.308   .     A
C392   C416    1.451   .     S
C392   O446    1.302   .     A
C393   C395    1.403   .     A
C394   C407    1.481   .     S
C394   C396    1.408   .     A
C395   C397    1.399   .     A
C395   C408    1.481   .     S
C396   C402    1.418   .     A
C396   C398    1.402   .     A
C397   C399    1.411   .     A
C397   C404    1.412   .     A
C398   C400    1.415   .     A
C398   C1083   1.403   .     S
C399   C401    1.414   .     A
C399   C1082   1.403   1_554 S
C400   C411    1.406   .     A
C401   C403    1.415   .     A
C402   C409    1.472   .     S
C402   C1087   1.405   .     S
C403   I423    2.154   .     S
C403   C1086   1.405   1_554 S
C404   C410    1.485   .     S
C404   C1095   1.386   1_554 S
C405   O436    1.391   .     S
C405   O454    1.217   .     D
C406   O438    1.398   .     S
C406   O437    1.222   .     D
C407   O440    1.398   .     S
C407   O439    1.220   .     D
C408   O441    1.223   .     D
C408   O442    1.392   .     S
C409   O443    1.223   .     D
C409   O444    1.391   .     S
C410   O447    1.394   .     S
C410   O445    1.223   .     D
C411   I425    2.127   .     S
C411   C1088   1.386   .     S
C412   I426    2.150   .     S
C413   C416    1.406   .     A
C413   I427    2.143   .     S
C413   C263    1.381   1_655 S
C414   C416    1.412   .     A
C414   I428    2.152   .     S
C414   C260    1.384   1_655 S
C415   I429    2.145   .     S
H417   O436    1.014   .     S
H418   O438    1.014   .     S
H419   O440    1.013   .     S
H420   O442    1.013   .     S
H421   O292    1.007   1_655 S
N433   Zn455   2.044   .     S
N434   Zn456   2.044   .     S
O435   Zn455   2.008   .     S
O446   Zn456   2.008   .     S
O447   H270    1.013   1_655 S
O448   Zn455   2.010   .     S
O449   Zn456   2.010   .     S
O450   Zn455   2.011   .     S
O451   Zn456   2.011   .     S
O452   Zn455   2.029   .     S
O453   Zn456   2.029   .     S
C457   C458    1.450   .     S
C457   O525    1.303   .     A
C457   O511    1.305   .     A
C458   C491    1.405   .     A
C458   C488    1.407   .     A
C459   N510    1.377   .     A
C459   I506    2.126   .     S
C460   N509    1.378   .     A
C460   I507    2.137   .     S
C460   C5      1.431   1_565 S
C461   I508    2.131   .     S
C461   N510    1.376   .     A
C462   I500    2.115   .     S
C462   N509    1.371   .     A
C462   C3      1.427   1_565 S
C463   O526    1.298   .     A
C463   O529    1.300   .     A
C463   C469    1.441   .     S
C464   O528    1.297   .     A
C464   O527    1.306   .     A
C464   C467    1.450   .     S
C465   C481    1.492   .     S
C465   C476    1.409   .     A
C465   C467    1.415   .     A
C466   C482    1.490   .     S
C466   C477    1.409   .     A
C466   C469    1.411   .     A
C467   C470    1.408   .     A
C468   O524    1.308   .     A
C468   C492    1.451   .     S
C468   O522    1.302   .     A
C469   C471    1.403   .     A
C470   C483    1.481   .     S
C470   C472    1.408   .     A
C471   C473    1.399   .     A
C471   C484    1.481   .     S
C472   C478    1.418   .     A
C472   C474    1.402   .     A
C473   C475    1.411   .     A
C473   C480    1.412   .     A
C474   C476    1.415   .     A
C474   C1159   1.403   .     S
C475   C477    1.414   .     A
C475   C1158   1.403   1_554 S
C476   C487    1.406   .     A
C477   C479    1.415   .     A
C478   C485    1.472   .     S
C478   C1163   1.405   .     S
C479   I499    2.154   .     S
C479   C1162   1.405   1_554 S
C480   C486    1.485   .     S
C480   C1171   1.386   1_554 S
C481   O512    1.391   .     S
C481   O530    1.217   .     D
C482   O514    1.398   .     S
C482   O513    1.222   .     D
C483   O516    1.398   .     S
C483   O515    1.220   .     D
C484   O517    1.223   .     D
C484   O518    1.392   .     S
C485   O519    1.223   .     D
C485   O520    1.391   .     S
C486   O523    1.394   .     S
C486   O521    1.223   .     D
C487   I501    2.127   .     S
C487   C1164   1.386   .     S
C488   I502    2.150   .     S
C488   C642    1.384   1_455 S
C489   C492    1.406   .     A
C489   I503    2.143   .     S
C489   C567    1.381   .     S
C490   C492    1.412   .     A
C490   I504    2.152   .     S
C490   C564    1.384   .     S
C491   I505    2.145   .     S
C491   C641    1.381   1_455 S
H493   O512    1.014   .     S
H494   O514    1.014   .     S
H495   O516    1.013   .     S
H496   O518    1.013   .     S
H497   O596    1.007   .     S
H498   O675    1.013   1_455 S
N509   Zn531   2.044   .     S
N510   Zn532   2.044   .     S
O511   Zn531   2.008   .     S
O520   H649    1.007   1_455 S
O522   Zn532   2.008   .     S
O523   H574    1.013   .     S
O524   Zn531   2.010   .     S
O525   Zn532   2.010   .     S
O526   Zn531   2.011   .     S
O527   Zn532   2.011   .     S
O528   Zn531   2.029   .     S
O529   Zn532   2.029   .     S
C533   C534    1.450   .     S
C533   O601    1.303   .     A
C533   O587    1.305   .     A
C534   C567    1.405   .     A
C534   C564    1.407   .     A
C535   N586    1.377   .     A
C535   I582    2.126   .     S
C536   N585    1.378   .     A
C536   I583    2.137   .     S
C536   C81     1.431   1_565 S
C537   I584    2.131   .     S
C537   N586    1.376   .     A
C538   I576    2.115   .     S
C538   N585    1.371   .     A
C538   C79     1.427   1_565 S
C539   O602    1.298   .     A
C539   O605    1.300   .     A
C539   C545    1.441   .     S
C540   O604    1.297   .     A
C540   O603    1.306   .     A
C540   C543    1.450   .     S
C541   C557    1.492   .     S
C541   C552    1.409   .     A
C541   C543    1.415   .     A
C542   C558    1.490   .     S
C542   C553    1.409   .     A
C542   C545    1.411   .     A
C543   C546    1.408   .     A
C544   O600    1.308   .     A
C544   C568    1.451   .     S
C544   O598    1.302   .     A
C545   C547    1.403   .     A
C546   C559    1.481   .     S
C546   C548    1.408   .     A
C547   C549    1.399   .     A
C547   C560    1.481   .     S
C548   C554    1.418   .     A
C548   C550    1.402   .     A
C549   C551    1.411   .     A
C549   C556    1.412   .     A
C550   C552    1.415   .     A
C550   C1235   1.403   .     S
C551   C553    1.414   .     A
C551   C1234   1.403   1_554 S
C552   C563    1.406   .     A
C553   C555    1.415   .     A
C554   C561    1.472   .     S
C554   C1239   1.405   .     S
C555   I575    2.154   .     S
C555   C1238   1.405   1_554 S
C556   C562    1.485   .     S
C556   C1247   1.386   1_554 S
C557   O588    1.391   .     S
C557   O606    1.217   .     D
C558   O590    1.398   .     S
C558   O589    1.222   .     D
C559   O592    1.398   .     S
C559   O591    1.220   .     D
C560   O593    1.223   .     D
C560   O594    1.392   .     S
C561   O595    1.223   .     D
C561   O596    1.391   .     S
C562   O599    1.394   .     S
C562   O597    1.223   .     D
C563   I577    2.127   .     S
C563   C1240   1.386   .     S
C564   I578    2.150   .     S
C565   C568    1.406   .     A
C565   I579    2.143   .     S
C565   C643    1.381   .     S
C566   C568    1.412   .     A
C566   I580    2.152   .     S
C566   C640    1.384   .     S
C567   I581    2.145   .     S
H569   O588    1.014   .     S
H570   O590    1.014   .     S
H571   O592    1.013   .     S
H572   O594    1.013   .     S
H573   O672    1.007   .     S
N585   Zn607   2.044   .     S
N586   Zn608   2.044   .     S
O587   Zn607   2.008   .     S
O598   Zn608   2.008   .     S
O599   H650    1.013   .     S
O600   Zn607   2.010   .     S
O601   Zn608   2.010   .     S
O602   Zn607   2.011   .     S
O603   Zn608   2.011   .     S
O604   Zn607   2.029   .     S
O605   Zn608   2.029   .     S
C609   C610    1.450   .     S
C609   O677    1.303   .     A
C609   O663    1.305   .     A
C610   C643    1.405   .     A
C610   C640    1.407   .     A
C611   N662    1.377   .     A
C611   I658    2.126   .     S
C612   N661    1.378   .     A
C612   I659    2.137   .     S
C612   C157    1.431   1_565 S
C613   I660    2.131   .     S
C613   N662    1.376   .     A
C614   I652    2.115   .     S
C614   N661    1.371   .     A
C614   C155    1.427   1_565 S
C615   O678    1.298   .     A
C615   O681    1.300   .     A
C615   C621    1.441   .     S
C616   O680    1.297   .     A
C616   O679    1.306   .     A
C616   C619    1.450   .     S
C617   C633    1.492   .     S
C617   C628    1.409   .     A
C617   C619    1.415   .     A
C618   C634    1.490   .     S
C618   C629    1.409   .     A
C618   C621    1.411   .     A
C619   C622    1.408   .     A
C620   O676    1.308   .     A
C620   C644    1.451   .     S
C620   O674    1.302   .     A
C621   C623    1.403   .     A
C622   C635    1.481   .     S
C622   C624    1.408   .     A
C623   C625    1.399   .     A
C623   C636    1.481   .     S
C624   C630    1.418   .     A
C624   C626    1.402   .     A
C625   C627    1.411   .     A
C625   C632    1.412   .     A
C626   C628    1.415   .     A
C626   C1311   1.403   .     S
C627   C629    1.414   .     A
C627   C1310   1.403   1_554 S
C628   C639    1.406   .     A
C629   C631    1.415   .     A
C630   C637    1.472   .     S
C630   C1315   1.405   .     S
C631   I651    2.154   .     S
C631   C1314   1.405   1_554 S
C632   C638    1.485   .     S
C632   C1323   1.386   1_554 S
C633   O664    1.391   .     S
C633   O682    1.217   .     D
C634   O666    1.398   .     S
C634   O665    1.222   .     D
C635   O668    1.398   .     S
C635   O667    1.220   .     D
C636   O669    1.223   .     D
C636   O670    1.392   .     S
C637   O671    1.223   .     D
C637   O672    1.391   .     S
C638   O675    1.394   .     S
C638   O673    1.223   .     D
C639   I653    2.127   .     S
C639   C1316   1.386   .     S
C640   I654    2.150   .     S
C641   C644    1.406   .     A
C641   I655    2.143   .     S
C641   C491    1.381   1_655 S
C642   C644    1.412   .     A
C642   I656    2.152   .     S
C642   C488    1.384   1_655 S
C643   I657    2.145   .     S
H645   O664    1.014   .     S
H646   O666    1.014   .     S
H647   O668    1.013   .     S
H648   O670    1.013   .     S
H649   O520    1.007   1_655 S
N661   Zn683   2.044   .     S
N662   Zn684   2.044   .     S
O663   Zn683   2.008   .     S
O674   Zn684   2.008   .     S
O675   H498    1.013   1_655 S
O676   Zn683   2.010   .     S
O677   Zn684   2.010   .     S
O678   Zn683   2.011   .     S
O679   Zn684   2.011   .     S
O680   Zn683   2.029   .     S
O681   Zn684   2.029   .     S
C685   C686    1.450   .     S
C685   O753    1.303   .     A
C685   O739    1.305   .     A
C686   C719    1.405   .     A
C686   C716    1.407   .     A
C687   N738    1.377   .     A
C687   I734    2.126   .     S
C687   C1146   1.427   1_545 S
C688   N737    1.378   .     A
C688   I735    2.137   .     S
C688   C917    1.431   .     S
C689   I736    2.131   .     S
C689   N738    1.376   .     A
C689   C1144   1.431   1_545 S
C690   I728    2.115   .     S
C690   N737    1.371   .     A
C690   C915    1.427   .     S
C691   O754    1.298   .     A
C691   O757    1.300   .     A
C691   C697    1.441   .     S
C692   O756    1.297   .     A
C692   O755    1.306   .     A
C692   C695    1.450   .     S
C693   C709    1.492   .     S
C693   C704    1.409   .     A
C693   C695    1.415   .     A
C694   C710    1.490   .     S
C694   C705    1.409   .     A
C694   C697    1.411   .     A
C695   C698    1.408   .     A
C696   O752    1.308   .     A
C696   C720    1.451   .     S
C696   O750    1.302   .     A
C697   C699    1.403   .     A
C698   C711    1.481   .     S
C698   C700    1.408   .     A
C699   C701    1.399   .     A
C699   C712    1.481   .     S
C700   C706    1.418   .     A
C700   C702    1.402   .     A
C701   C703    1.411   .     A
C701   C708    1.412   .     A
C702   C704    1.415   .     A
C702   C19     1.403   1_556 S
C703   C705    1.414   .     A
C704   C715    1.406   .     A
C705   C707    1.415   .     A
C706   C713    1.472   .     S
C706   C23     1.405   1_556 S
C707   I727    2.154   .     S
C708   C714    1.485   .     S
C709   O740    1.391   .     S
C709   O758    1.217   .     D
C710   O742    1.398   .     S
C710   O741    1.222   .     D
C711   O744    1.398   .     S
C711   O743    1.220   .     D
C712   O745    1.223   .     D
C712   O746    1.392   .     S
C713   O747    1.223   .     D
C713   O748    1.391   .     S
C714   O751    1.394   .     S
C714   O749    1.223   .     D
C715   I729    2.127   .     S
C715   C24     1.386   1_556 S
C716   I730    2.150   .     S
C716   C870    1.384   1_455 S
C717   C720    1.406   .     A
C717   I731    2.143   .     S
C717   C795    1.381   .     S
C718   C720    1.412   .     A
C718   I732    2.152   .     S
C718   C792    1.384   .     S
C719   I733    2.145   .     S
C719   C869    1.381   1_455 S
H721   O740    1.014   .     S
H722   O742    1.014   .     S
H723   O744    1.013   .     S
H724   O746    1.013   .     S
H725   O824    1.007   .     S
H726   O903    1.013   1_455 S
N737   Zn759   2.044   .     S
N738   Zn760   2.044   .     S
O739   Zn759   2.008   .     S
O748   H877    1.007   1_455 S
O750   Zn760   2.008   .     S
O751   H802    1.013   .     S
O752   Zn759   2.010   .     S
O753   Zn760   2.010   .     S
O754   Zn759   2.011   .     S
O755   Zn760   2.011   .     S
O756   Zn759   2.029   .     S
O757   Zn760   2.029   .     S
C761   C762    1.450   .     S
C761   O829    1.303   .     A
C761   O815    1.305   .     A
C762   C795    1.405   .     A
C762   C792    1.407   .     A
C763   N814    1.377   .     A
C763   I810    2.126   .     S
C763   C1222   1.427   1_545 S
C764   N813    1.378   .     A
C764   I811    2.137   .     S
C764   C993    1.431   .     S
C765   I812    2.131   .     S
C765   N814    1.376   .     A
C765   C1220   1.431   1_545 S
C766   I804    2.115   .     S
C766   N813    1.371   .     A
C766   C991    1.427   .     S
C767   O830    1.298   .     A
C767   O833    1.300   .     A
C767   C773    1.441   .     S
C768   O832    1.297   .     A
C768   O831    1.306   .     A
C768   C771    1.450   .     S
C769   C785    1.492   .     S
C769   C780    1.409   .     A
C769   C771    1.415   .     A
C770   C786    1.490   .     S
C770   C781    1.409   .     A
C770   C773    1.411   .     A
C771   C774    1.408   .     A
C772   O828    1.308   .     A
C772   C796    1.451   .     S
C772   O826    1.302   .     A
C773   C775    1.403   .     A
C774   C787    1.481   .     S
C774   C776    1.408   .     A
C775   C777    1.399   .     A
C775   C788    1.481   .     S
C776   C782    1.418   .     A
C776   C778    1.402   .     A
C777   C779    1.411   .     A
C777   C784    1.412   .     A
C778   C780    1.415   .     A
C778   C95     1.403   1_556 S
C779   C781    1.414   .     A
C780   C791    1.406   .     A
C781   C783    1.415   .     A
C782   C789    1.472   .     S
C782   C99     1.405   1_556 S
C783   I803    2.154   .     S
C784   C790    1.485   .     S
C785   O816    1.391   .     S
C785   O834    1.217   .     D
C786   O818    1.398   .     S
C786   O817    1.222   .     D
C787   O820    1.398   .     S
C787   O819    1.220   .     D
C788   O821    1.223   .     D
C788   O822    1.392   .     S
C789   O823    1.223   .     D
C789   O824    1.391   .     S
C790   O827    1.394   .     S
C790   O825    1.223   .     D
C791   I805    2.127   .     S
C791   C100    1.386   1_556 S
C792   I806    2.150   .     S
C793   C796    1.406   .     A
C793   I807    2.143   .     S
C793   C871    1.381   .     S
C794   C796    1.412   .     A
C794   I808    2.152   .     S
C794   C868    1.384   .     S
C795   I809    2.145   .     S
H797   O816    1.014   .     S
H798   O818    1.014   .     S
H799   O820    1.013   .     S
H800   O822    1.013   .     S
H801   O900    1.007   .     S
N813   Zn835   2.044   .     S
N814   Zn836   2.044   .     S
O815   Zn835   2.008   .     S
O826   Zn836   2.008   .     S
O827   H878    1.013   .     S
O828   Zn835   2.010   .     S
O829   Zn836   2.010   .     S
O830   Zn835   2.011   .     S
O831   Zn836   2.011   .     S
O832   Zn835   2.029   .     S
O833   Zn836   2.029   .     S
C837   C838    1.450   .     S
C837   O905    1.303   .     A
C837   O891    1.305   .     A
C838   C871    1.405   .     A
C838   C868    1.407   .     A
C839   N890    1.377   .     A
C839   I886    2.126   .     S
C839   C1298   1.427   1_545 S
C840   N889    1.378   .     A
C840   I887    2.137   .     S
C840   C1069   1.431   .     S
C841   I888    2.131   .     S
C841   N890    1.376   .     A
C841   C1296   1.431   1_545 S
C842   I880    2.115   .     S
C842   N889    1.371   .     A
C842   C1067   1.427   .     S
C843   O906    1.298   .     A
C843   O909    1.300   .     A
C843   C849    1.441   .     S
C844   O908    1.297   .     A
C844   O907    1.306   .     A
C844   C847    1.450   .     S
C845   C861    1.492   .     S
C845   C856    1.409   .     A
C845   C847    1.415   .     A
C846   C862    1.490   .     S
C846   C857    1.409   .     A
C846   C849    1.411   .     A
C847   C850    1.408   .     A
C848   O904    1.308   .     A
C848   C872    1.451   .     S
C848   O902    1.302   .     A
C849   C851    1.403   .     A
C850   C863    1.481   .     S
C850   C852    1.408   .     A
C851   C853    1.399   .     A
C851   C864    1.481   .     S
C852   C858    1.418   .     A
C852   C854    1.402   .     A
C853   C855    1.411   .     A
C853   C860    1.412   .     A
C854   C856    1.415   .     A
C854   C171    1.403   1_556 S
C855   C857    1.414   .     A
C856   C867    1.406   .     A
C857   C859    1.415   .     A
C858   C865    1.472   .     S
C858   C175    1.405   1_556 S
C859   I879    2.154   .     S
C860   C866    1.485   .     S
C861   O892    1.391   .     S
C861   O910    1.217   .     D
C862   O894    1.398   .     S
C862   O893    1.222   .     D
C863   O896    1.398   .     S
C863   O895    1.220   .     D
C864   O897    1.223   .     D
C864   O898    1.392   .     S
C865   O899    1.223   .     D
C865   O900    1.391   .     S
C866   O903    1.394   .     S
C866   O901    1.223   .     D
C867   I881    2.127   .     S
C867   C176    1.386   1_556 S
C868   I882    2.150   .     S
C869   C872    1.406   .     A
C869   I883    2.143   .     S
C869   C719    1.381   1_655 S
C870   C872    1.412   .     A
C870   I884    2.152   .     S
C870   C716    1.384   1_655 S
C871   I885    2.145   .     S
H873   O892    1.014   .     S
H874   O894    1.014   .     S
H875   O896    1.013   .     S
H876   O898    1.013   .     S
H877   O748    1.007   1_655 S
N889   Zn911   2.044   .     S
N890   Zn912   2.044   .     S
O891   Zn911   2.008   .     S
O902   Zn912   2.008   .     S
O903   H726    1.013   1_655 S
O904   Zn911   2.010   .     S
O905   Zn912   2.010   .     S
O906   Zn911   2.011   .     S
O907   Zn912   2.011   .     S
O908   Zn911   2.029   .     S
O909   Zn912   2.029   .     S
C913   C914    1.450   .     S
C913   O981    1.303   .     A
C913   O967    1.305   .     A
C914   C947    1.405   .     A
C914   C944    1.407   .     A
C915   N966    1.377   .     A
C915   I962    2.126   .     S
C916   N965    1.378   .     A
C916   I963    2.137   .     S
C916   C1145   1.431   .     S
C917   I964    2.131   .     S
C917   N966    1.376   .     A
C918   I956    2.115   .     S
C918   N965    1.371   .     A
C918   C1143   1.427   .     S
C919   O982    1.298   .     A
C919   O985    1.300   .     A
C919   C925    1.441   .     S
C920   O984    1.297   .     A
C920   O983    1.306   .     A
C920   C923    1.450   .     S
C921   C937    1.492   .     S
C921   C932    1.409   .     A
C921   C923    1.415   .     A
C922   C938    1.490   .     S
C922   C933    1.409   .     A
C922   C925    1.411   .     A
C923   C926    1.408   .     A
C924   O980    1.308   .     A
C924   C948    1.451   .     S
C924   O978    1.302   .     A
C925   C927    1.403   .     A
C926   C939    1.481   .     S
C926   C928    1.408   .     A
C927   C929    1.399   .     A
C927   C940    1.481   .     S
C928   C934    1.418   .     A
C928   C930    1.402   .     A
C929   C931    1.411   .     A
C929   C936    1.412   .     A
C930   C932    1.415   .     A
C930   C247    1.403   1_556 S
C931   C933    1.414   .     A
C932   C943    1.406   .     A
C933   C935    1.415   .     A
C934   C941    1.472   .     S
C934   C251    1.405   1_556 S
C935   I955    2.154   .     S
C936   C942    1.485   .     S
C937   O968    1.391   .     S
C937   O986    1.217   .     D
C938   O970    1.398   .     S
C938   O969    1.222   .     D
C939   O972    1.398   .     S
C939   O971    1.220   .     D
C940   O973    1.223   .     D
C940   O974    1.392   .     S
C941   O975    1.223   .     D
C941   O976    1.391   .     S
C942   O979    1.394   .     S
C942   O977    1.223   .     D
C943   I957    2.127   .     S
C943   C252    1.386   1_556 S
C944   I958    2.150   .     S
C944   C1098   1.384   1_455 S
C945   C948    1.406   .     A
C945   I959    2.143   .     S
C945   C1023   1.381   .     S
C946   C948    1.412   .     A
C946   I960    2.152   .     S
C946   C1020   1.384   .     S
C947   I961    2.145   .     S
C947   C1097   1.381   1_455 S
H949   O968    1.014   .     S
H950   O970    1.014   .     S
H951   O972    1.013   .     S
H952   O974    1.013   .     S
H953   O1052   1.007   .     S
H954   O1131   1.013   1_455 S
N965   Zn987   2.044   .     S
N966   Zn988   2.044   .     S
O967   Zn987   2.008   .     S
O976   H1105   1.007   1_455 S
O978   Zn988   2.008   .     S
O979   H1030   1.013   .     S
O980   Zn987   2.010   .     S
O981   Zn988   2.010   .     S
O982   Zn987   2.011   .     S
O983   Zn988   2.011   .     S
O984   Zn987   2.029   .     S
O985   Zn988   2.029   .     S
C989   C990    1.450   .     S
C989   O1057   1.303   .     A
C989   O1043   1.305   .     A
C990   C1023   1.405   .     A
C990   C1020   1.407   .     A
C991   N1042   1.377   .     A
C991   I1038   2.126   .     S
C992   N1041   1.378   .     A
C992   I1039   2.137   .     S
C992   C1221   1.431   .     S
C993   I1040   2.131   .     S
C993   N1042   1.376   .     A
C994   I1032   2.115   .     S
C994   N1041   1.371   .     A
C994   C1219   1.427   .     S
C995   O1058   1.298   .     A
C995   O1061   1.300   .     A
C995   C1001   1.441   .     S
C996   O1060   1.297   .     A
C996   O1059   1.306   .     A
C996   C999    1.450   .     S
C997   C1013   1.492   .     S
C997   C1008   1.409   .     A
C997   C999    1.415   .     A
C998   C1014   1.490   .     S
C998   C1009   1.409   .     A
C998   C1001   1.411   .     A
C999   C1002   1.408   .     A
C1000  O1056   1.308   .     A
C1000  C1024   1.451   .     S
C1000  O1054   1.302   .     A
C1001  C1003   1.403   .     A
C1002  C1015   1.481   .     S
C1002  C1004   1.408   .     A
C1003  C1005   1.399   .     A
C1003  C1016   1.481   .     S
C1004  C1010   1.418   .     A
C1004  C1006   1.402   .     A
C1005  C1007   1.411   .     A
C1005  C1012   1.412   .     A
C1006  C1008   1.415   .     A
C1006  C323    1.403   1_556 S
C1007  C1009   1.414   .     A
C1008  C1019   1.406   .     A
C1009  C1011   1.415   .     A
C1010  C1017   1.472   .     S
C1010  C327    1.405   1_556 S
C1011  I1031   2.154   .     S
C1012  C1018   1.485   .     S
C1013  O1044   1.391   .     S
C1013  O1062   1.217   .     D
C1014  O1046   1.398   .     S
C1014  O1045   1.222   .     D
C1015  O1048   1.398   .     S
C1015  O1047   1.220   .     D
C1016  O1049   1.223   .     D
C1016  O1050   1.392   .     S
C1017  O1051   1.223   .     D
C1017  O1052   1.391   .     S
C1018  O1055   1.394   .     S
C1018  O1053   1.223   .     D
C1019  I1033   2.127   .     S
C1019  C328    1.386   1_556 S
C1020  I1034   2.150   .     S
C1021  C1024   1.406   .     A
C1021  I1035   2.143   .     S
C1021  C1099   1.381   .     S
C1022  C1024   1.412   .     A
C1022  I1036   2.152   .     S
C1022  C1096   1.384   .     S
C1023  I1037   2.145   .     S
H1025  O1044   1.014   .     S
H1026  O1046   1.014   .     S
H1027  O1048   1.013   .     S
H1028  O1050   1.013   .     S
H1029  O1128   1.007   .     S
N1041  Zn1063  2.044   .     S
N1042  Zn1064  2.044   .     S
O1043  Zn1063  2.008   .     S
O1054  Zn1064  2.008   .     S
O1055  H1106   1.013   .     S
O1056  Zn1063  2.010   .     S
O1057  Zn1064  2.010   .     S
O1058  Zn1063  2.011   .     S
O1059  Zn1064  2.011   .     S
O1060  Zn1063  2.029   .     S
O1061  Zn1064  2.029   .     S
C1065  C1066   1.450   .     S
C1065  O1133   1.303   .     A
C1065  O1119   1.305   .     A
C1066  C1099   1.405   .     A
C1066  C1096   1.407   .     A
C1067  N1118   1.377   .     A
C1067  I1114   2.126   .     S
C1068  N1117   1.378   .     A
C1068  I1115   2.137   .     S
C1068  C1297   1.431   .     S
C1069  I1116   2.131   .     S
C1069  N1118   1.376   .     A
C1070  I1108   2.115   .     S
C1070  N1117   1.371   .     A
C1070  C1295   1.427   .     S
C1071  O1134   1.298   .     A
C1071  O1137   1.300   .     A
C1071  C1077   1.441   .     S
C1072  O1136   1.297   .     A
C1072  O1135   1.306   .     A
C1072  C1075   1.450   .     S
C1073  C1089   1.492   .     S
C1073  C1084   1.409   .     A
C1073  C1075   1.415   .     A
C1074  C1090   1.490   .     S
C1074  C1085   1.409   .     A
C1074  C1077   1.411   .     A
C1075  C1078   1.408   .     A
C1076  O1132   1.308   .     A
C1076  C1100   1.451   .     S
C1076  O1130   1.302   .     A
C1077  C1079   1.403   .     A
C1078  C1091   1.481   .     S
C1078  C1080   1.408   .     A
C1079  C1081   1.399   .     A
C1079  C1092   1.481   .     S
C1080  C1086   1.418   .     A
C1080  C1082   1.402   .     A
C1081  C1083   1.411   .     A
C1081  C1088   1.412   .     A
C1082  C1084   1.415   .     A
C1082  C399    1.403   1_556 S
C1083  C1085   1.414   .     A
C1084  C1095   1.406   .     A
C1085  C1087   1.415   .     A
C1086  C1093   1.472   .     S
C1086  C403    1.405   1_556 S
C1087  I1107   2.154   .     S
C1088  C1094   1.485   .     S
C1089  O1120   1.391   .     S
C1089  O1138   1.217   .     D
C1090  O1122   1.398   .     S
C1090  O1121   1.222   .     D
C1091  O1124   1.398   .     S
C1091  O1123   1.220   .     D
C1092  O1125   1.223   .     D
C1092  O1126   1.392   .     S
C1093  O1127   1.223   .     D
C1093  O1128   1.391   .     S
C1094  O1131   1.394   .     S
C1094  O1129   1.223   .     D
C1095  I1109   2.127   .     S
C1095  C404    1.386   1_556 S
C1096  I1110   2.150   .     S
C1097  C1100   1.406   .     A
C1097  I1111   2.143   .     S
C1097  C947    1.381   1_655 S
C1098  C1100   1.412   .     A
C1098  I1112   2.152   .     S
C1098  C944    1.384   1_655 S
C1099  I1113   2.145   .     S
H1101  O1120   1.014   .     S
H1102  O1122   1.014   .     S
H1103  O1124   1.013   .     S
H1104  O1126   1.013   .     S
H1105  O976    1.007   1_655 S
N1117  Zn1139  2.044   .     S
N1118  Zn1140  2.044   .     S
O1119  Zn1139  2.008   .     S
O1130  Zn1140  2.008   .     S
O1131  H954    1.013   1_655 S
O1132  Zn1139  2.010   .     S
O1133  Zn1140  2.010   .     S
O1134  Zn1139  2.011   .     S
O1135  Zn1140  2.011   .     S
O1136  Zn1139  2.029   .     S
O1137  Zn1140  2.029   .     S
C1141  C1142   1.450   .     S
C1141  O1209   1.303   .     A
C1141  O1195   1.305   .     A
C1142  C1175   1.405   .     A
C1142  C1172   1.407   .     A
C1143  N1194   1.377   .     A
C1143  I1190   2.126   .     S
C1144  N1193   1.378   .     A
C1144  I1191   2.137   .     S
C1144  C689    1.431   1_565 S
C1145  I1192   2.131   .     S
C1145  N1194   1.376   .     A
C1146  I1184   2.115   .     S
C1146  N1193   1.371   .     A
C1146  C687    1.427   1_565 S
C1147  O1210   1.298   .     A
C1147  O1213   1.300   .     A
C1147  C1153   1.441   .     S
C1148  O1212   1.297   .     A
C1148  O1211   1.306   .     A
C1148  C1151   1.450   .     S
C1149  C1165   1.492   .     S
C1149  C1160   1.409   .     A
C1149  C1151   1.415   .     A
C1150  C1166   1.490   .     S
C1150  C1161   1.409   .     A
C1150  C1153   1.411   .     A
C1151  C1154   1.408   .     A
C1152  O1208   1.308   .     A
C1152  C1176   1.451   .     S
C1152  O1206   1.302   .     A
C1153  C1155   1.403   .     A
C1154  C1167   1.481   .     S
C1154  C1156   1.408   .     A
C1155  C1157   1.399   .     A
C1155  C1168   1.481   .     S
C1156  C1162   1.418   .     A
C1156  C1158   1.402   .     A
C1157  C1159   1.411   .     A
C1157  C1164   1.412   .     A
C1158  C1160   1.415   .     A
C1158  C475    1.403   1_556 S
C1159  C1161   1.414   .     A
C1160  C1171   1.406   .     A
C1161  C1163   1.415   .     A
C1162  C1169   1.472   .     S
C1162  C479    1.405   1_556 S
C1163  I1183   2.154   .     S
C1164  C1170   1.485   .     S
C1165  O1196   1.391   .     S
C1165  O1214   1.217   .     D
C1166  O1198   1.398   .     S
C1166  O1197   1.222   .     D
C1167  O1200   1.398   .     S
C1167  O1199   1.220   .     D
C1168  O1201   1.223   .     D
C1168  O1202   1.392   .     S
C1169  O1203   1.223   .     D
C1169  O1204   1.391   .     S
C1170  O1207   1.394   .     S
C1170  O1205   1.223   .     D
C1171  I1185   2.127   .     S
C1171  C480    1.386   1_556 S
C1172  I1186   2.150   .     S
C1172  C1326   1.384   1_455 S
C1173  C1176   1.406   .     A
C1173  I1187   2.143   .     S
C1173  C1251   1.381   .     S
C1174  C1176   1.412   .     A
C1174  I1188   2.152   .     S
C1174  C1248   1.384   .     S
C1175  I1189   2.145   .     S
C1175  C1325   1.381   1_455 S
H1177  O1196   1.014   .     S
H1178  O1198   1.014   .     S
H1179  O1200   1.013   .     S
H1180  O1202   1.013   .     S
H1181  O1280   1.007   .     S
H1182  O1359   1.013   1_455 S
N1193  Zn1215  2.044   .     S
N1194  Zn1216  2.044   .     S
O1195  Zn1215  2.008   .     S
O1204  H1333   1.007   1_455 S
O1206  Zn1216  2.008   .     S
O1207  H1258   1.013   .     S
O1208  Zn1215  2.010   .     S
O1209  Zn1216  2.010   .     S
O1210  Zn1215  2.011   .     S
O1211  Zn1216  2.011   .     S
O1212  Zn1215  2.029   .     S
O1213  Zn1216  2.029   .     S
C1217  C1218   1.450   .     S
C1217  O1285   1.303   .     A
C1217  O1271   1.305   .     A
C1218  C1251   1.405   .     A
C1218  C1248   1.407   .     A
C1219  N1270   1.377   .     A
C1219  I1266   2.126   .     S
C1220  N1269   1.378   .     A
C1220  I1267   2.137   .     S
C1220  C765    1.431   1_565 S
C1221  I1268   2.131   .     S
C1221  N1270   1.376   .     A
C1222  I1260   2.115   .     S
C1222  N1269   1.371   .     A
C1222  C763    1.427   1_565 S
C1223  O1286   1.298   .     A
C1223  O1289   1.300   .     A
C1223  C1229   1.441   .     S
C1224  O1288   1.297   .     A
C1224  O1287   1.306   .     A
C1224  C1227   1.450   .     S
C1225  C1241   1.492   .     S
C1225  C1236   1.409   .     A
C1225  C1227   1.415   .     A
C1226  C1242   1.490   .     S
C1226  C1237   1.409   .     A
C1226  C1229   1.411   .     A
C1227  C1230   1.408   .     A
C1228  O1284   1.308   .     A
C1228  C1252   1.451   .     S
C1228  O1282   1.302   .     A
C1229  C1231   1.403   .     A
C1230  C1243   1.481   .     S
C1230  C1232   1.408   .     A
C1231  C1233   1.399   .     A
C1231  C1244   1.481   .     S
C1232  C1238   1.418   .     A
C1232  C1234   1.402   .     A
C1233  C1235   1.411   .     A
C1233  C1240   1.412   .     A
C1234  C1236   1.415   .     A
C1234  C551    1.403   1_556 S
C1235  C1237   1.414   .     A
C1236  C1247   1.406   .     A
C1237  C1239   1.415   .     A
C1238  C1245   1.472   .     S
C1238  C555    1.405   1_556 S
C1239  I1259   2.154   .     S
C1240  C1246   1.485   .     S
C1241  O1272   1.391   .     S
C1241  O1290   1.217   .     D
C1242  O1274   1.398   .     S
C1242  O1273   1.222   .     D
C1243  O1276   1.398   .     S
C1243  O1275   1.220   .     D
C1244  O1277   1.223   .     D
C1244  O1278   1.392   .     S
C1245  O1279   1.223   .     D
C1245  O1280   1.391   .     S
C1246  O1283   1.394   .     S
C1246  O1281   1.223   .     D
C1247  I1261   2.127   .     S
C1247  C556    1.386   1_556 S
C1248  I1262   2.150   .     S
C1249  C1252   1.406   .     A
C1249  I1263   2.143   .     S
C1249  C1327   1.381   .     S
C1250  C1252   1.412   .     A
C1250  I1264   2.152   .     S
C1250  C1324   1.384   .     S
C1251  I1265   2.145   .     S
H1253  O1272   1.014   .     S
H1254  O1274   1.014   .     S
H1255  O1276   1.013   .     S
H1256  O1278   1.013   .     S
H1257  O1356   1.007   .     S
N1269  Zn1291  2.044   .     S
N1270  Zn1292  2.044   .     S
O1271  Zn1291  2.008   .     S
O1282  Zn1292  2.008   .     S
O1283  H1334   1.013   .     S
O1284  Zn1291  2.010   .     S
O1285  Zn1292  2.010   .     S
O1286  Zn1291  2.011   .     S
O1287  Zn1292  2.011   .     S
O1288  Zn1291  2.029   .     S
O1289  Zn1292  2.029   .     S
C1293  C1294   1.450   .     S
C1293  O1361   1.303   .     A
C1293  O1347   1.305   .     A
C1294  C1327   1.405   .     A
C1294  C1324   1.407   .     A
C1295  N1346   1.377   .     A
C1295  I1342   2.126   .     S
C1296  N1345   1.378   .     A
C1296  I1343   2.137   .     S
C1296  C841    1.431   1_565 S
C1297  I1344   2.131   .     S
C1297  N1346   1.376   .     A
C1298  I1336   2.115   .     S
C1298  N1345   1.371   .     A
C1298  C839    1.427   1_565 S
C1299  O1362   1.298   .     A
C1299  O1365   1.300   .     A
C1299  C1305   1.441   .     S
C1300  O1364   1.297   .     A
C1300  O1363   1.306   .     A
C1300  C1303   1.450   .     S
C1301  C1317   1.492   .     S
C1301  C1312   1.409   .     A
C1301  C1303   1.415   .     A
C1302  C1318   1.490   .     S
C1302  C1313   1.409   .     A
C1302  C1305   1.411   .     A
C1303  C1306   1.408   .     A
C1304  O1360   1.308   .     A
C1304  C1328   1.451   .     S
C1304  O1358   1.302   .     A
C1305  C1307   1.403   .     A
C1306  C1319   1.481   .     S
C1306  C1308   1.408   .     A
C1307  C1309   1.399   .     A
C1307  C1320   1.481   .     S
C1308  C1314   1.418   .     A
C1308  C1310   1.402   .     A
C1309  C1311   1.411   .     A
C1309  C1316   1.412   .     A
C1310  C1312   1.415   .     A
C1310  C627    1.403   1_556 S
C1311  C1313   1.414   .     A
C1312  C1323   1.406   .     A
C1313  C1315   1.415   .     A
C1314  C1321   1.472   .     S
C1314  C631    1.405   1_556 S
C1315  I1335   2.154   .     S
C1316  C1322   1.485   .     S
C1317  O1348   1.391   .     S
C1317  O1366   1.217   .     D
C1318  O1350   1.398   .     S
C1318  O1349   1.222   .     D
C1319  O1352   1.398   .     S
C1319  O1351   1.220   .     D
C1320  O1353   1.223   .     D
C1320  O1354   1.392   .     S
C1321  O1355   1.223   .     D
C1321  O1356   1.391   .     S
C1322  O1359   1.394   .     S
C1322  O1357   1.223   .     D
C1323  I1337   2.127   .     S
C1323  C632    1.386   1_556 S
C1324  I1338   2.150   .     S
C1325  C1328   1.406   .     A
C1325  I1339   2.143   .     S
C1325  C1175   1.381   1_655 S
C1326  C1328   1.412   .     A
C1326  I1340   2.152   .     S
C1326  C1172   1.384   1_655 S
C1327  I1341   2.145   .     S
H1329  O1348   1.014   .     S
H1330  O1350   1.014   .     S
H1331  O1352   1.013   .     S
H1332  O1354   1.013   .     S
H1333  O1204   1.007   1_655 S
N1345  Zn1367  2.044   .     S
N1346  Zn1368  2.044   .     S
O1347  Zn1367  2.008   .     S
O1358  Zn1368  2.008   .     S
O1359  H1182   1.013   1_655 S
O1360  Zn1367  2.010   .     S
O1361  Zn1368  2.010   .     S
O1362  Zn1367  2.011   .     S
O1363  Zn1368  2.011   .     S
O1364  Zn1367  2.029   .     S
O1365  Zn1368  2.029   .     S
