data_str_m3_o1_o10_pcu_sym.167
_audit_creation_date              2020-01-03
_audit_creation_method            'Materials Studio'
_symmetry_space_group_name_H-M    'P1'
_symmetry_Int_Tables_number       1
_symmetry_cell_setting            triclinic
loop_
_symmetry_equiv_pos_as_xyz
  x,y,z
_cell_length_a                    25.7830
_cell_length_b                    32.1872
_cell_length_c                    29.5398
_cell_angle_alpha                 90.0002
_cell_angle_beta                  98.6556
_cell_angle_gamma                 90.1109
loop_
_atom_site_label
_atom_site_type_symbol
_atom_site_fract_x
_atom_site_fract_y
_atom_site_fract_z
_atom_site_U_iso_or_equiv
_atom_site_adp_type
_atom_site_occupancy
C1     C     0.16663   0.08662   0.16665   0.00000  Uiso   1.00
C2     C     0.16671   0.24671   0.16669   0.00000  Uiso   1.00
C3     C     0.06703   0.16666   0.15469   0.00000  Uiso   1.00
C4     C     0.26630   0.16667   0.17865   0.00000  Uiso   1.00
C5     C     0.01199   0.16670   0.14824   0.00000  Uiso   1.00
C6     C     0.32134   0.16664   0.18509   0.00000  Uiso   1.00
C7     C     0.16733   0.02127   0.12546   0.00000  Uiso   1.00
C8     C     0.16600   0.31206   0.20787   0.00000  Uiso   1.00
C9     C     0.16740   0.31205   0.12548   0.00000  Uiso   1.00
C10    C     0.16593   0.02128   0.20785   0.00000  Uiso   1.00
C11    C     0.16672   0.29087   0.16668   0.00000  Uiso   1.00
C12    C     0.16662   0.04247   0.16665   0.00000  Uiso   1.00
C13    C     0.19834   0.19324   0.02812   0.00000  Uiso   1.00
C14    C     0.13499   0.14009   0.30521   0.00000  Uiso   1.00
C15    C     0.19832   0.19323   0.31350   0.00000  Uiso   1.00
C16    C     0.13501   0.14010   0.01983   0.00000  Uiso   1.00
H17    H     0.16788   0.03740   0.09334   0.00000  Uiso   1.00
H18    H     0.16546   0.29593   0.23999   0.00000  Uiso   1.00
H19    H     0.16800   0.29592   0.09337   0.00000  Uiso   1.00
H20    H     0.16533   0.03742   0.23996   0.00000  Uiso   1.00
H21    H     0.22363   0.21448   0.29866   0.00000  Uiso   1.00
H22    H     0.10970   0.11885   0.03468   0.00000  Uiso   1.00
N23    N     0.16665   0.16666   0.28573   0.00000  Uiso   1.00
N24    N     0.16668   0.16668   0.04760   0.00000  Uiso   1.00
O25    O     0.16666   0.10558   0.20487   0.00000  Uiso   1.00
O26    O     0.16667   0.22775   0.12846   0.00000  Uiso   1.00
O27    O     0.16666   0.10559   0.12843   0.00000  Uiso   1.00
O28    O     0.16667   0.22774   0.20490   0.00000  Uiso   1.00
O29    O     0.09058   0.16666   0.19595   0.00000  Uiso   1.00
O30    O     0.24275   0.16667   0.13739   0.00000  Uiso   1.00
O31    O     0.09058   0.16667   0.11950   0.00000  Uiso   1.00
O32    O     0.24275   0.16666   0.21383   0.00000  Uiso   1.00
Zn33   Zn    0.16667   0.16666   0.21771   0.00000  Uiso   1.00
Zn34   Zn    0.16667   0.16667   0.11563   0.00000  Uiso   1.00
H35    H     0.32469   0.16679   0.11329   0.00000  Uiso   1.00
H36    H     0.00864   0.16654   0.22005   0.00000  Uiso   1.00
H37    H     0.22368   0.21449   0.04960   0.00000  Uiso   1.00
H38    H     0.10966   0.11885   0.28373   0.00000  Uiso   1.00
C39    C     0.49996   0.08662   0.16665   0.00000  Uiso   1.00
C40    C     0.50004   0.24671   0.16669   0.00000  Uiso   1.00
C41    C     0.40036   0.16666   0.15469   0.00000  Uiso   1.00
C42    C     0.59964   0.16667   0.17865   0.00000  Uiso   1.00
C43    C     0.34532   0.16670   0.14824   0.00000  Uiso   1.00
C44    C     0.65468   0.16664   0.18509   0.00000  Uiso   1.00
C45    C     0.50067   0.02127   0.12546   0.00000  Uiso   1.00
C46    C     0.49933   0.31206   0.20787   0.00000  Uiso   1.00
C47    C     0.50073   0.31205   0.12548   0.00000  Uiso   1.00
C48    C     0.49927   0.02128   0.20785   0.00000  Uiso   1.00
C49    C     0.50005   0.29087   0.16668   0.00000  Uiso   1.00
C50    C     0.49995   0.04247   0.16665   0.00000  Uiso   1.00
C51    C     0.53167   0.19324   0.02812   0.00000  Uiso   1.00
C52    C     0.46833   0.14009   0.30521   0.00000  Uiso   1.00
C53    C     0.53166   0.19323   0.31350   0.00000  Uiso   1.00
C54    C     0.46834   0.14010   0.01983   0.00000  Uiso   1.00
H55    H     0.50121   0.03740   0.09334   0.00000  Uiso   1.00
H56    H     0.49879   0.29593   0.23999   0.00000  Uiso   1.00
H57    H     0.50134   0.29592   0.09337   0.00000  Uiso   1.00
H58    H     0.49866   0.03742   0.23996   0.00000  Uiso   1.00
H59    H     0.55697   0.21448   0.29866   0.00000  Uiso   1.00
H60    H     0.44303   0.11885   0.03468   0.00000  Uiso   1.00
N61    N     0.49999   0.16666   0.28573   0.00000  Uiso   1.00
N62    N     0.50001   0.16668   0.04760   0.00000  Uiso   1.00
O63    O     0.50000   0.10558   0.20487   0.00000  Uiso   1.00
O64    O     0.50000   0.22775   0.12846   0.00000  Uiso   1.00
O65    O     0.50000   0.10559   0.12843   0.00000  Uiso   1.00
O66    O     0.50000   0.22774   0.20490   0.00000  Uiso   1.00
O67    O     0.42392   0.16666   0.19595   0.00000  Uiso   1.00
O68    O     0.57608   0.16667   0.13739   0.00000  Uiso   1.00
O69    O     0.42392   0.16667   0.11950   0.00000  Uiso   1.00
O70    O     0.57608   0.16666   0.21383   0.00000  Uiso   1.00
Zn71   Zn    0.50000   0.16666   0.21771   0.00000  Uiso   1.00
Zn72   Zn    0.50000   0.16667   0.11563   0.00000  Uiso   1.00
H73    H     0.65802   0.16679   0.11329   0.00000  Uiso   1.00
H74    H     0.34198   0.16654   0.22005   0.00000  Uiso   1.00
H75    H     0.55701   0.21449   0.04960   0.00000  Uiso   1.00
H76    H     0.44299   0.11885   0.28373   0.00000  Uiso   1.00
C77    C     0.83329   0.08662   0.16665   0.00000  Uiso   1.00
C78    C     0.83337   0.24671   0.16669   0.00000  Uiso   1.00
C79    C     0.73370   0.16666   0.15469   0.00000  Uiso   1.00
C80    C     0.93297   0.16667   0.17865   0.00000  Uiso   1.00
C81    C     0.67866   0.16670   0.14824   0.00000  Uiso   1.00
C82    C     0.98801   0.16664   0.18509   0.00000  Uiso   1.00
C83    C     0.83400   0.02127   0.12546   0.00000  Uiso   1.00
C84    C     0.83267   0.31206   0.20787   0.00000  Uiso   1.00
C85    C     0.83407   0.31205   0.12548   0.00000  Uiso   1.00
C86    C     0.83260   0.02128   0.20785   0.00000  Uiso   1.00
C87    C     0.83338   0.29087   0.16668   0.00000  Uiso   1.00
C88    C     0.83328   0.04247   0.16665   0.00000  Uiso   1.00
C89    C     0.86501   0.19324   0.02812   0.00000  Uiso   1.00
C90    C     0.80166   0.14009   0.30521   0.00000  Uiso   1.00
C91    C     0.86499   0.19323   0.31350   0.00000  Uiso   1.00
C92    C     0.80168   0.14010   0.01983   0.00000  Uiso   1.00
H93    H     0.83454   0.03740   0.09334   0.00000  Uiso   1.00
H94    H     0.83212   0.29593   0.23999   0.00000  Uiso   1.00
H95    H     0.83467   0.29592   0.09337   0.00000  Uiso   1.00
H96    H     0.83200   0.03742   0.23996   0.00000  Uiso   1.00
H97    H     0.89030   0.21448   0.29866   0.00000  Uiso   1.00
H98    H     0.77637   0.11885   0.03468   0.00000  Uiso   1.00
N99    N     0.83332   0.16666   0.28573   0.00000  Uiso   1.00
N100   N     0.83335   0.16668   0.04760   0.00000  Uiso   1.00
O101   O     0.83333   0.10558   0.20487   0.00000  Uiso   1.00
O102   O     0.83334   0.22775   0.12846   0.00000  Uiso   1.00
O103   O     0.83333   0.10559   0.12843   0.00000  Uiso   1.00
O104   O     0.83334   0.22774   0.20490   0.00000  Uiso   1.00
O105   O     0.75725   0.16666   0.19595   0.00000  Uiso   1.00
O106   O     0.90942   0.16667   0.13739   0.00000  Uiso   1.00
O107   O     0.75725   0.16667   0.11950   0.00000  Uiso   1.00
O108   O     0.90942   0.16666   0.21383   0.00000  Uiso   1.00
Zn109  Zn    0.83333   0.16666   0.21771   0.00000  Uiso   1.00
Zn110  Zn    0.83333   0.16667   0.11563   0.00000  Uiso   1.00
H111   H     0.99135   0.16679   0.11329   0.00000  Uiso   1.00
H112   H     0.67531   0.16654   0.22005   0.00000  Uiso   1.00
H113   H     0.89034   0.21449   0.04960   0.00000  Uiso   1.00
H114   H     0.77632   0.11885   0.28373   0.00000  Uiso   1.00
C115   C     0.16663   0.41996   0.16665   0.00000  Uiso   1.00
C116   C     0.16671   0.58005   0.16669   0.00000  Uiso   1.00
C117   C     0.06703   0.49999   0.15469   0.00000  Uiso   1.00
C118   C     0.26630   0.50001   0.17865   0.00000  Uiso   1.00
C119   C     0.01199   0.50003   0.14824   0.00000  Uiso   1.00
C120   C     0.32134   0.49997   0.18509   0.00000  Uiso   1.00
C121   C     0.16733   0.35461   0.12546   0.00000  Uiso   1.00
C122   C     0.16600   0.64540   0.20787   0.00000  Uiso   1.00
C123   C     0.16740   0.64539   0.12548   0.00000  Uiso   1.00
C124   C     0.16593   0.35461   0.20785   0.00000  Uiso   1.00
C125   C     0.16672   0.62420   0.16668   0.00000  Uiso   1.00
C126   C     0.16662   0.37580   0.16665   0.00000  Uiso   1.00
C127   C     0.19834   0.52658   0.02812   0.00000  Uiso   1.00
C128   C     0.13499   0.47342   0.30521   0.00000  Uiso   1.00
C129   C     0.19832   0.52657   0.31350   0.00000  Uiso   1.00
C130   C     0.13501   0.47343   0.01983   0.00000  Uiso   1.00
H131   H     0.16788   0.37073   0.09334   0.00000  Uiso   1.00
H132   H     0.16546   0.62927   0.23999   0.00000  Uiso   1.00
H133   H     0.16800   0.62925   0.09337   0.00000  Uiso   1.00
H134   H     0.16533   0.37075   0.23996   0.00000  Uiso   1.00
H135   H     0.22363   0.54781   0.29866   0.00000  Uiso   1.00
H136   H     0.10970   0.45219   0.03468   0.00000  Uiso   1.00
N137   N     0.16665   0.49999   0.28573   0.00000  Uiso   1.00
N138   N     0.16668   0.50001   0.04760   0.00000  Uiso   1.00
O139   O     0.16666   0.43892   0.20487   0.00000  Uiso   1.00
O140   O     0.16667   0.56108   0.12846   0.00000  Uiso   1.00
O141   O     0.16666   0.43893   0.12843   0.00000  Uiso   1.00
O142   O     0.16667   0.56107   0.20490   0.00000  Uiso   1.00
O143   O     0.09058   0.50000   0.19595   0.00000  Uiso   1.00
O144   O     0.24275   0.50000   0.13739   0.00000  Uiso   1.00
O145   O     0.09058   0.50000   0.11950   0.00000  Uiso   1.00
O146   O     0.24275   0.50000   0.21383   0.00000  Uiso   1.00
Zn147  Zn    0.16667   0.49999   0.21771   0.00000  Uiso   1.00
Zn148  Zn    0.16667   0.50001   0.11563   0.00000  Uiso   1.00
H149   H     0.32469   0.50013   0.11329   0.00000  Uiso   1.00
H150   H     0.00864   0.49987   0.22005   0.00000  Uiso   1.00
H151   H     0.22368   0.54782   0.04960   0.00000  Uiso   1.00
H152   H     0.10966   0.45218   0.28373   0.00000  Uiso   1.00
C153   C     0.49996   0.41996   0.16665   0.00000  Uiso   1.00
C154   C     0.50004   0.58005   0.16669   0.00000  Uiso   1.00
C155   C     0.40036   0.49999   0.15469   0.00000  Uiso   1.00
C156   C     0.59964   0.50001   0.17865   0.00000  Uiso   1.00
C157   C     0.34532   0.50003   0.14824   0.00000  Uiso   1.00
C158   C     0.65468   0.49997   0.18509   0.00000  Uiso   1.00
C159   C     0.50067   0.35461   0.12546   0.00000  Uiso   1.00
C160   C     0.49933   0.64540   0.20787   0.00000  Uiso   1.00
C161   C     0.50073   0.64539   0.12548   0.00000  Uiso   1.00
C162   C     0.49927   0.35461   0.20785   0.00000  Uiso   1.00
C163   C     0.50005   0.62420   0.16668   0.00000  Uiso   1.00
C164   C     0.49995   0.37580   0.16665   0.00000  Uiso   1.00
C165   C     0.53167   0.52658   0.02812   0.00000  Uiso   1.00
C166   C     0.46833   0.47342   0.30521   0.00000  Uiso   1.00
C167   C     0.53166   0.52657   0.31350   0.00000  Uiso   1.00
C168   C     0.46834   0.47343   0.01983   0.00000  Uiso   1.00
H169   H     0.50121   0.37073   0.09334   0.00000  Uiso   1.00
H170   H     0.49879   0.62927   0.23999   0.00000  Uiso   1.00
H171   H     0.50134   0.62925   0.09337   0.00000  Uiso   1.00
H172   H     0.49866   0.37075   0.23996   0.00000  Uiso   1.00
H173   H     0.55697   0.54781   0.29866   0.00000  Uiso   1.00
H174   H     0.44303   0.45219   0.03468   0.00000  Uiso   1.00
N175   N     0.49999   0.49999   0.28573   0.00000  Uiso   1.00
N176   N     0.50001   0.50001   0.04760   0.00000  Uiso   1.00
O177   O     0.50000   0.43892   0.20487   0.00000  Uiso   1.00
O178   O     0.50000   0.56108   0.12846   0.00000  Uiso   1.00
O179   O     0.50000   0.43893   0.12843   0.00000  Uiso   1.00
O180   O     0.50000   0.56107   0.20490   0.00000  Uiso   1.00
O181   O     0.42392   0.50000   0.19595   0.00000  Uiso   1.00
O182   O     0.57608   0.50000   0.13739   0.00000  Uiso   1.00
O183   O     0.42392   0.50000   0.11950   0.00000  Uiso   1.00
O184   O     0.57608   0.50000   0.21383   0.00000  Uiso   1.00
Zn185  Zn    0.50000   0.49999   0.21771   0.00000  Uiso   1.00
Zn186  Zn    0.50000   0.50001   0.11563   0.00000  Uiso   1.00
H187   H     0.65802   0.50013   0.11329   0.00000  Uiso   1.00
H188   H     0.34198   0.49987   0.22005   0.00000  Uiso   1.00
H189   H     0.55701   0.54782   0.04960   0.00000  Uiso   1.00
H190   H     0.44299   0.45218   0.28373   0.00000  Uiso   1.00
C191   C     0.83329   0.41996   0.16665   0.00000  Uiso   1.00
C192   C     0.83337   0.58005   0.16669   0.00000  Uiso   1.00
C193   C     0.73370   0.49999   0.15469   0.00000  Uiso   1.00
C194   C     0.93297   0.50001   0.17865   0.00000  Uiso   1.00
C195   C     0.67866   0.50003   0.14824   0.00000  Uiso   1.00
C196   C     0.98801   0.49997   0.18509   0.00000  Uiso   1.00
C197   C     0.83400   0.35461   0.12546   0.00000  Uiso   1.00
C198   C     0.83267   0.64540   0.20787   0.00000  Uiso   1.00
C199   C     0.83407   0.64539   0.12548   0.00000  Uiso   1.00
C200   C     0.83260   0.35461   0.20785   0.00000  Uiso   1.00
C201   C     0.83338   0.62420   0.16668   0.00000  Uiso   1.00
C202   C     0.83328   0.37580   0.16665   0.00000  Uiso   1.00
C203   C     0.86501   0.52658   0.02812   0.00000  Uiso   1.00
C204   C     0.80166   0.47342   0.30521   0.00000  Uiso   1.00
C205   C     0.86499   0.52657   0.31350   0.00000  Uiso   1.00
C206   C     0.80168   0.47343   0.01983   0.00000  Uiso   1.00
H207   H     0.83454   0.37073   0.09334   0.00000  Uiso   1.00
H208   H     0.83212   0.62927   0.23999   0.00000  Uiso   1.00
H209   H     0.83467   0.62925   0.09337   0.00000  Uiso   1.00
H210   H     0.83200   0.37075   0.23996   0.00000  Uiso   1.00
H211   H     0.89030   0.54781   0.29866   0.00000  Uiso   1.00
H212   H     0.77637   0.45219   0.03468   0.00000  Uiso   1.00
N213   N     0.83332   0.49999   0.28573   0.00000  Uiso   1.00
N214   N     0.83335   0.50001   0.04760   0.00000  Uiso   1.00
O215   O     0.83333   0.43892   0.20487   0.00000  Uiso   1.00
O216   O     0.83334   0.56108   0.12846   0.00000  Uiso   1.00
O217   O     0.83333   0.43893   0.12843   0.00000  Uiso   1.00
O218   O     0.83334   0.56107   0.20490   0.00000  Uiso   1.00
O219   O     0.75725   0.50000   0.19595   0.00000  Uiso   1.00
O220   O     0.90942   0.50000   0.13739   0.00000  Uiso   1.00
O221   O     0.75725   0.50000   0.11950   0.00000  Uiso   1.00
O222   O     0.90942   0.50000   0.21383   0.00000  Uiso   1.00
Zn223  Zn    0.83333   0.49999   0.21771   0.00000  Uiso   1.00
Zn224  Zn    0.83333   0.50001   0.11563   0.00000  Uiso   1.00
H225   H     0.99135   0.50013   0.11329   0.00000  Uiso   1.00
H226   H     0.67531   0.49987   0.22005   0.00000  Uiso   1.00
H227   H     0.89034   0.54782   0.04960   0.00000  Uiso   1.00
H228   H     0.77632   0.45218   0.28373   0.00000  Uiso   1.00
C229   C     0.16663   0.75329   0.16665   0.00000  Uiso   1.00
C230   C     0.16671   0.91338   0.16669   0.00000  Uiso   1.00
C231   C     0.06703   0.83333   0.15469   0.00000  Uiso   1.00
C232   C     0.26630   0.83334   0.17865   0.00000  Uiso   1.00
C233   C     0.01199   0.83336   0.14824   0.00000  Uiso   1.00
C234   C     0.32134   0.83330   0.18509   0.00000  Uiso   1.00
C235   C     0.16733   0.68794   0.12546   0.00000  Uiso   1.00
C236   C     0.16600   0.97873   0.20787   0.00000  Uiso   1.00
C237   C     0.16740   0.97872   0.12548   0.00000  Uiso   1.00
C238   C     0.16593   0.68795   0.20785   0.00000  Uiso   1.00
C239   C     0.16672   0.95753   0.16668   0.00000  Uiso   1.00
C240   C     0.16662   0.70913   0.16665   0.00000  Uiso   1.00
C241   C     0.19834   0.85991   0.02812   0.00000  Uiso   1.00
C242   C     0.13499   0.80676   0.30521   0.00000  Uiso   1.00
C243   C     0.19832   0.85990   0.31350   0.00000  Uiso   1.00
C244   C     0.13501   0.80677   0.01983   0.00000  Uiso   1.00
H245   H     0.16788   0.70407   0.09334   0.00000  Uiso   1.00
H246   H     0.16546   0.96260   0.23999   0.00000  Uiso   1.00
H247   H     0.16800   0.96258   0.09337   0.00000  Uiso   1.00
H248   H     0.16533   0.70408   0.23996   0.00000  Uiso   1.00
H249   H     0.22363   0.88115   0.29866   0.00000  Uiso   1.00
H250   H     0.10970   0.78552   0.03468   0.00000  Uiso   1.00
N251   N     0.16665   0.83332   0.28573   0.00000  Uiso   1.00
N252   N     0.16668   0.83334   0.04760   0.00000  Uiso   1.00
O253   O     0.16666   0.77225   0.20487   0.00000  Uiso   1.00
O254   O     0.16667   0.89442   0.12846   0.00000  Uiso   1.00
O255   O     0.16666   0.77226   0.12843   0.00000  Uiso   1.00
O256   O     0.16667   0.89441   0.20490   0.00000  Uiso   1.00
O257   O     0.09058   0.83333   0.19595   0.00000  Uiso   1.00
O258   O     0.24275   0.83334   0.13739   0.00000  Uiso   1.00
O259   O     0.09058   0.83334   0.11950   0.00000  Uiso   1.00
O260   O     0.24275   0.83333   0.21383   0.00000  Uiso   1.00
Zn261  Zn    0.16667   0.83333   0.21771   0.00000  Uiso   1.00
Zn262  Zn    0.16667   0.83334   0.11563   0.00000  Uiso   1.00
H263   H     0.32469   0.83346   0.11329   0.00000  Uiso   1.00
H264   H     0.00864   0.83321   0.22005   0.00000  Uiso   1.00
H265   H     0.22368   0.88115   0.04960   0.00000  Uiso   1.00
H266   H     0.10966   0.78551   0.28373   0.00000  Uiso   1.00
C267   C     0.49996   0.75329   0.16665   0.00000  Uiso   1.00
C268   C     0.50004   0.91338   0.16669   0.00000  Uiso   1.00
C269   C     0.40036   0.83333   0.15469   0.00000  Uiso   1.00
C270   C     0.59964   0.83334   0.17865   0.00000  Uiso   1.00
C271   C     0.34532   0.83336   0.14824   0.00000  Uiso   1.00
C272   C     0.65468   0.83330   0.18509   0.00000  Uiso   1.00
C273   C     0.50067   0.68794   0.12546   0.00000  Uiso   1.00
C274   C     0.49933   0.97873   0.20787   0.00000  Uiso   1.00
C275   C     0.50073   0.97872   0.12548   0.00000  Uiso   1.00
C276   C     0.49927   0.68795   0.20785   0.00000  Uiso   1.00
C277   C     0.50005   0.95753   0.16668   0.00000  Uiso   1.00
C278   C     0.49995   0.70913   0.16665   0.00000  Uiso   1.00
C279   C     0.53167   0.85991   0.02812   0.00000  Uiso   1.00
C280   C     0.46833   0.80676   0.30521   0.00000  Uiso   1.00
C281   C     0.53166   0.85990   0.31350   0.00000  Uiso   1.00
C282   C     0.46834   0.80677   0.01983   0.00000  Uiso   1.00
H283   H     0.50121   0.70407   0.09334   0.00000  Uiso   1.00
H284   H     0.49879   0.96260   0.23999   0.00000  Uiso   1.00
H285   H     0.50134   0.96258   0.09337   0.00000  Uiso   1.00
H286   H     0.49866   0.70408   0.23996   0.00000  Uiso   1.00
H287   H     0.55697   0.88115   0.29866   0.00000  Uiso   1.00
H288   H     0.44303   0.78552   0.03468   0.00000  Uiso   1.00
N289   N     0.49999   0.83332   0.28573   0.00000  Uiso   1.00
N290   N     0.50001   0.83334   0.04760   0.00000  Uiso   1.00
O291   O     0.50000   0.77225   0.20487   0.00000  Uiso   1.00
O292   O     0.50000   0.89442   0.12846   0.00000  Uiso   1.00
O293   O     0.50000   0.77226   0.12843   0.00000  Uiso   1.00
O294   O     0.50000   0.89441   0.20490   0.00000  Uiso   1.00
O295   O     0.42392   0.83333   0.19595   0.00000  Uiso   1.00
O296   O     0.57608   0.83334   0.13739   0.00000  Uiso   1.00
O297   O     0.42392   0.83334   0.11950   0.00000  Uiso   1.00
O298   O     0.57608   0.83333   0.21383   0.00000  Uiso   1.00
Zn299  Zn    0.50000   0.83333   0.21771   0.00000  Uiso   1.00
Zn300  Zn    0.50000   0.83334   0.11563   0.00000  Uiso   1.00
H301   H     0.65802   0.83346   0.11329   0.00000  Uiso   1.00
H302   H     0.34198   0.83321   0.22005   0.00000  Uiso   1.00
H303   H     0.55701   0.88115   0.04960   0.00000  Uiso   1.00
H304   H     0.44299   0.78551   0.28373   0.00000  Uiso   1.00
C305   C     0.83329   0.75329   0.16665   0.00000  Uiso   1.00
C306   C     0.83337   0.91338   0.16669   0.00000  Uiso   1.00
C307   C     0.73370   0.83333   0.15469   0.00000  Uiso   1.00
C308   C     0.93297   0.83334   0.17865   0.00000  Uiso   1.00
C309   C     0.67866   0.83336   0.14824   0.00000  Uiso   1.00
C310   C     0.98801   0.83330   0.18509   0.00000  Uiso   1.00
C311   C     0.83400   0.68794   0.12546   0.00000  Uiso   1.00
C312   C     0.83267   0.97873   0.20787   0.00000  Uiso   1.00
C313   C     0.83407   0.97872   0.12548   0.00000  Uiso   1.00
C314   C     0.83260   0.68795   0.20785   0.00000  Uiso   1.00
C315   C     0.83338   0.95753   0.16668   0.00000  Uiso   1.00
C316   C     0.83328   0.70913   0.16665   0.00000  Uiso   1.00
C317   C     0.86501   0.85991   0.02812   0.00000  Uiso   1.00
C318   C     0.80166   0.80676   0.30521   0.00000  Uiso   1.00
C319   C     0.86499   0.85990   0.31350   0.00000  Uiso   1.00
C320   C     0.80168   0.80677   0.01983   0.00000  Uiso   1.00
H321   H     0.83454   0.70407   0.09334   0.00000  Uiso   1.00
H322   H     0.83212   0.96260   0.23999   0.00000  Uiso   1.00
H323   H     0.83467   0.96258   0.09337   0.00000  Uiso   1.00
H324   H     0.83200   0.70408   0.23996   0.00000  Uiso   1.00
H325   H     0.89030   0.88115   0.29866   0.00000  Uiso   1.00
H326   H     0.77637   0.78552   0.03468   0.00000  Uiso   1.00
N327   N     0.83332   0.83332   0.28573   0.00000  Uiso   1.00
N328   N     0.83335   0.83334   0.04760   0.00000  Uiso   1.00
O329   O     0.83333   0.77225   0.20487   0.00000  Uiso   1.00
O330   O     0.83334   0.89442   0.12846   0.00000  Uiso   1.00
O331   O     0.83333   0.77226   0.12843   0.00000  Uiso   1.00
O332   O     0.83334   0.89441   0.20490   0.00000  Uiso   1.00
O333   O     0.75725   0.83333   0.19595   0.00000  Uiso   1.00
O334   O     0.90942   0.83334   0.13739   0.00000  Uiso   1.00
O335   O     0.75725   0.83334   0.11950   0.00000  Uiso   1.00
O336   O     0.90942   0.83333   0.21383   0.00000  Uiso   1.00
Zn337  Zn    0.83333   0.83333   0.21771   0.00000  Uiso   1.00
Zn338  Zn    0.83333   0.83334   0.11563   0.00000  Uiso   1.00
H339   H     0.99135   0.83346   0.11329   0.00000  Uiso   1.00
H340   H     0.67531   0.83321   0.22005   0.00000  Uiso   1.00
H341   H     0.89034   0.88115   0.04960   0.00000  Uiso   1.00
H342   H     0.77632   0.78551   0.28373   0.00000  Uiso   1.00
C343   C     0.16663   0.08662   0.49998   0.00000  Uiso   1.00
C344   C     0.16671   0.24671   0.50002   0.00000  Uiso   1.00
C345   C     0.06703   0.16666   0.48802   0.00000  Uiso   1.00
C346   C     0.26630   0.16667   0.51198   0.00000  Uiso   1.00
C347   C     0.01199   0.16670   0.48157   0.00000  Uiso   1.00
C348   C     0.32134   0.16664   0.51843   0.00000  Uiso   1.00
C349   C     0.16733   0.02127   0.45880   0.00000  Uiso   1.00
C350   C     0.16600   0.31206   0.54120   0.00000  Uiso   1.00
C351   C     0.16740   0.31205   0.45882   0.00000  Uiso   1.00
C352   C     0.16593   0.02128   0.54118   0.00000  Uiso   1.00
C353   C     0.16672   0.29087   0.50002   0.00000  Uiso   1.00
C354   C     0.16662   0.04247   0.49998   0.00000  Uiso   1.00
C355   C     0.19834   0.19324   0.36146   0.00000  Uiso   1.00
C356   C     0.13499   0.14009   0.63854   0.00000  Uiso   1.00
C357   C     0.19832   0.19323   0.64684   0.00000  Uiso   1.00
C358   C     0.13501   0.14010   0.35316   0.00000  Uiso   1.00
H359   H     0.16788   0.03740   0.42667   0.00000  Uiso   1.00
H360   H     0.16546   0.29593   0.57333   0.00000  Uiso   1.00
H361   H     0.16800   0.29592   0.42671   0.00000  Uiso   1.00
H362   H     0.16533   0.03742   0.57329   0.00000  Uiso   1.00
H363   H     0.22363   0.21448   0.63199   0.00000  Uiso   1.00
H364   H     0.10970   0.11885   0.36801   0.00000  Uiso   1.00
N365   N     0.16665   0.16666   0.61907   0.00000  Uiso   1.00
N366   N     0.16668   0.16668   0.38093   0.00000  Uiso   1.00
O367   O     0.16666   0.10558   0.53821   0.00000  Uiso   1.00
O368   O     0.16667   0.22775   0.46179   0.00000  Uiso   1.00
O369   O     0.16666   0.10559   0.46176   0.00000  Uiso   1.00
O370   O     0.16667   0.22774   0.53824   0.00000  Uiso   1.00
O371   O     0.09058   0.16666   0.52928   0.00000  Uiso   1.00
O372   O     0.24275   0.16667   0.47072   0.00000  Uiso   1.00
O373   O     0.09058   0.16667   0.45284   0.00000  Uiso   1.00
O374   O     0.24275   0.16666   0.54716   0.00000  Uiso   1.00
Zn375  Zn    0.16667   0.16666   0.55104   0.00000  Uiso   1.00
Zn376  Zn    0.16667   0.16667   0.44896   0.00000  Uiso   1.00
H377   H     0.32469   0.16679   0.44662   0.00000  Uiso   1.00
H378   H     0.00864   0.16654   0.55338   0.00000  Uiso   1.00
H379   H     0.22368   0.21449   0.38294   0.00000  Uiso   1.00
H380   H     0.10966   0.11885   0.61706   0.00000  Uiso   1.00
C381   C     0.49996   0.08662   0.49998   0.00000  Uiso   1.00
C382   C     0.50004   0.24671   0.50002   0.00000  Uiso   1.00
C383   C     0.40036   0.16666   0.48802   0.00000  Uiso   1.00
C384   C     0.59964   0.16667   0.51198   0.00000  Uiso   1.00
C385   C     0.34532   0.16670   0.48157   0.00000  Uiso   1.00
C386   C     0.65468   0.16664   0.51843   0.00000  Uiso   1.00
C387   C     0.50067   0.02127   0.45880   0.00000  Uiso   1.00
C388   C     0.49933   0.31206   0.54120   0.00000  Uiso   1.00
C389   C     0.50073   0.31205   0.45882   0.00000  Uiso   1.00
C390   C     0.49927   0.02128   0.54118   0.00000  Uiso   1.00
C391   C     0.50005   0.29087   0.50002   0.00000  Uiso   1.00
C392   C     0.49995   0.04247   0.49998   0.00000  Uiso   1.00
C393   C     0.53167   0.19324   0.36146   0.00000  Uiso   1.00
C394   C     0.46833   0.14009   0.63854   0.00000  Uiso   1.00
C395   C     0.53166   0.19323   0.64684   0.00000  Uiso   1.00
C396   C     0.46834   0.14010   0.35316   0.00000  Uiso   1.00
H397   H     0.50121   0.03740   0.42667   0.00000  Uiso   1.00
H398   H     0.49879   0.29593   0.57333   0.00000  Uiso   1.00
H399   H     0.50134   0.29592   0.42671   0.00000  Uiso   1.00
H400   H     0.49866   0.03742   0.57329   0.00000  Uiso   1.00
H401   H     0.55697   0.21448   0.63199   0.00000  Uiso   1.00
H402   H     0.44303   0.11885   0.36801   0.00000  Uiso   1.00
N403   N     0.49999   0.16666   0.61907   0.00000  Uiso   1.00
N404   N     0.50001   0.16668   0.38093   0.00000  Uiso   1.00
O405   O     0.50000   0.10558   0.53821   0.00000  Uiso   1.00
O406   O     0.50000   0.22775   0.46179   0.00000  Uiso   1.00
O407   O     0.50000   0.10559   0.46176   0.00000  Uiso   1.00
O408   O     0.50000   0.22774   0.53824   0.00000  Uiso   1.00
O409   O     0.42392   0.16666   0.52928   0.00000  Uiso   1.00
O410   O     0.57608   0.16667   0.47072   0.00000  Uiso   1.00
O411   O     0.42392   0.16667   0.45284   0.00000  Uiso   1.00
O412   O     0.57608   0.16666   0.54716   0.00000  Uiso   1.00
Zn413  Zn    0.50000   0.16666   0.55104   0.00000  Uiso   1.00
Zn414  Zn    0.50000   0.16667   0.44896   0.00000  Uiso   1.00
H415   H     0.65802   0.16679   0.44662   0.00000  Uiso   1.00
H416   H     0.34198   0.16654   0.55338   0.00000  Uiso   1.00
H417   H     0.55701   0.21449   0.38294   0.00000  Uiso   1.00
H418   H     0.44299   0.11885   0.61706   0.00000  Uiso   1.00
C419   C     0.83329   0.08662   0.49998   0.00000  Uiso   1.00
C420   C     0.83337   0.24671   0.50002   0.00000  Uiso   1.00
C421   C     0.73370   0.16666   0.48802   0.00000  Uiso   1.00
C422   C     0.93297   0.16667   0.51198   0.00000  Uiso   1.00
C423   C     0.67866   0.16670   0.48157   0.00000  Uiso   1.00
C424   C     0.98801   0.16664   0.51843   0.00000  Uiso   1.00
C425   C     0.83400   0.02127   0.45880   0.00000  Uiso   1.00
C426   C     0.83267   0.31206   0.54120   0.00000  Uiso   1.00
C427   C     0.83407   0.31205   0.45882   0.00000  Uiso   1.00
C428   C     0.83260   0.02128   0.54118   0.00000  Uiso   1.00
C429   C     0.83338   0.29087   0.50002   0.00000  Uiso   1.00
C430   C     0.83328   0.04247   0.49998   0.00000  Uiso   1.00
C431   C     0.86501   0.19324   0.36146   0.00000  Uiso   1.00
C432   C     0.80166   0.14009   0.63854   0.00000  Uiso   1.00
C433   C     0.86499   0.19323   0.64684   0.00000  Uiso   1.00
C434   C     0.80168   0.14010   0.35316   0.00000  Uiso   1.00
H435   H     0.83454   0.03740   0.42667   0.00000  Uiso   1.00
H436   H     0.83212   0.29593   0.57333   0.00000  Uiso   1.00
H437   H     0.83467   0.29592   0.42671   0.00000  Uiso   1.00
H438   H     0.83200   0.03742   0.57329   0.00000  Uiso   1.00
H439   H     0.89030   0.21448   0.63199   0.00000  Uiso   1.00
H440   H     0.77637   0.11885   0.36801   0.00000  Uiso   1.00
N441   N     0.83332   0.16666   0.61907   0.00000  Uiso   1.00
N442   N     0.83335   0.16668   0.38093   0.00000  Uiso   1.00
O443   O     0.83333   0.10558   0.53821   0.00000  Uiso   1.00
O444   O     0.83334   0.22775   0.46179   0.00000  Uiso   1.00
O445   O     0.83333   0.10559   0.46176   0.00000  Uiso   1.00
O446   O     0.83334   0.22774   0.53824   0.00000  Uiso   1.00
O447   O     0.75725   0.16666   0.52928   0.00000  Uiso   1.00
O448   O     0.90942   0.16667   0.47072   0.00000  Uiso   1.00
O449   O     0.75725   0.16667   0.45284   0.00000  Uiso   1.00
O450   O     0.90942   0.16666   0.54716   0.00000  Uiso   1.00
Zn451  Zn    0.83333   0.16666   0.55104   0.00000  Uiso   1.00
Zn452  Zn    0.83333   0.16667   0.44896   0.00000  Uiso   1.00
H453   H     0.99135   0.16679   0.44662   0.00000  Uiso   1.00
H454   H     0.67531   0.16654   0.55338   0.00000  Uiso   1.00
H455   H     0.89034   0.21449   0.38294   0.00000  Uiso   1.00
H456   H     0.77632   0.11885   0.61706   0.00000  Uiso   1.00
C457   C     0.16663   0.41996   0.49998   0.00000  Uiso   1.00
C458   C     0.16671   0.58005   0.50002   0.00000  Uiso   1.00
C459   C     0.06703   0.49999   0.48802   0.00000  Uiso   1.00
C460   C     0.26630   0.50001   0.51198   0.00000  Uiso   1.00
C461   C     0.01199   0.50003   0.48157   0.00000  Uiso   1.00
C462   C     0.32134   0.49997   0.51843   0.00000  Uiso   1.00
C463   C     0.16733   0.35461   0.45880   0.00000  Uiso   1.00
C464   C     0.16600   0.64540   0.54120   0.00000  Uiso   1.00
C465   C     0.16740   0.64539   0.45882   0.00000  Uiso   1.00
C466   C     0.16593   0.35461   0.54118   0.00000  Uiso   1.00
C467   C     0.16672   0.62420   0.50002   0.00000  Uiso   1.00
C468   C     0.16662   0.37580   0.49998   0.00000  Uiso   1.00
C469   C     0.19834   0.52658   0.36146   0.00000  Uiso   1.00
C470   C     0.13499   0.47342   0.63854   0.00000  Uiso   1.00
C471   C     0.19832   0.52657   0.64684   0.00000  Uiso   1.00
C472   C     0.13501   0.47343   0.35316   0.00000  Uiso   1.00
H473   H     0.16788   0.37073   0.42667   0.00000  Uiso   1.00
H474   H     0.16546   0.62927   0.57333   0.00000  Uiso   1.00
H475   H     0.16800   0.62925   0.42671   0.00000  Uiso   1.00
H476   H     0.16533   0.37075   0.57329   0.00000  Uiso   1.00
H477   H     0.22363   0.54781   0.63199   0.00000  Uiso   1.00
H478   H     0.10970   0.45219   0.36801   0.00000  Uiso   1.00
N479   N     0.16665   0.49999   0.61907   0.00000  Uiso   1.00
N480   N     0.16668   0.50001   0.38093   0.00000  Uiso   1.00
O481   O     0.16666   0.43892   0.53821   0.00000  Uiso   1.00
O482   O     0.16667   0.56108   0.46179   0.00000  Uiso   1.00
O483   O     0.16666   0.43893   0.46176   0.00000  Uiso   1.00
O484   O     0.16667   0.56107   0.53824   0.00000  Uiso   1.00
O485   O     0.09058   0.50000   0.52928   0.00000  Uiso   1.00
O486   O     0.24275   0.50000   0.47072   0.00000  Uiso   1.00
O487   O     0.09058   0.50000   0.45284   0.00000  Uiso   1.00
O488   O     0.24275   0.50000   0.54716   0.00000  Uiso   1.00
Zn489  Zn    0.16667   0.49999   0.55104   0.00000  Uiso   1.00
Zn490  Zn    0.16667   0.50001   0.44896   0.00000  Uiso   1.00
H491   H     0.32469   0.50013   0.44662   0.00000  Uiso   1.00
H492   H     0.00864   0.49987   0.55338   0.00000  Uiso   1.00
H493   H     0.22368   0.54782   0.38294   0.00000  Uiso   1.00
H494   H     0.10966   0.45218   0.61706   0.00000  Uiso   1.00
C495   C     0.49996   0.41996   0.49998   0.00000  Uiso   1.00
C496   C     0.50004   0.58005   0.50002   0.00000  Uiso   1.00
C497   C     0.40036   0.49999   0.48802   0.00000  Uiso   1.00
C498   C     0.59964   0.50001   0.51198   0.00000  Uiso   1.00
C499   C     0.34532   0.50003   0.48157   0.00000  Uiso   1.00
C500   C     0.65468   0.49997   0.51843   0.00000  Uiso   1.00
C501   C     0.50067   0.35461   0.45880   0.00000  Uiso   1.00
C502   C     0.49933   0.64540   0.54120   0.00000  Uiso   1.00
C503   C     0.50073   0.64539   0.45882   0.00000  Uiso   1.00
C504   C     0.49927   0.35461   0.54118   0.00000  Uiso   1.00
C505   C     0.50005   0.62420   0.50002   0.00000  Uiso   1.00
C506   C     0.49995   0.37580   0.49998   0.00000  Uiso   1.00
C507   C     0.53167   0.52658   0.36146   0.00000  Uiso   1.00
C508   C     0.46833   0.47342   0.63854   0.00000  Uiso   1.00
C509   C     0.53166   0.52657   0.64684   0.00000  Uiso   1.00
C510   C     0.46834   0.47343   0.35316   0.00000  Uiso   1.00
H511   H     0.50121   0.37073   0.42667   0.00000  Uiso   1.00
H512   H     0.49879   0.62927   0.57333   0.00000  Uiso   1.00
H513   H     0.50134   0.62925   0.42671   0.00000  Uiso   1.00
H514   H     0.49866   0.37075   0.57329   0.00000  Uiso   1.00
H515   H     0.55697   0.54781   0.63199   0.00000  Uiso   1.00
H516   H     0.44303   0.45219   0.36801   0.00000  Uiso   1.00
N517   N     0.49999   0.49999   0.61907   0.00000  Uiso   1.00
N518   N     0.50001   0.50001   0.38093   0.00000  Uiso   1.00
O519   O     0.50000   0.43892   0.53821   0.00000  Uiso   1.00
O520   O     0.50000   0.56108   0.46179   0.00000  Uiso   1.00
O521   O     0.50000   0.43893   0.46176   0.00000  Uiso   1.00
O522   O     0.50000   0.56107   0.53824   0.00000  Uiso   1.00
O523   O     0.42392   0.50000   0.52928   0.00000  Uiso   1.00
O524   O     0.57608   0.50000   0.47072   0.00000  Uiso   1.00
O525   O     0.42392   0.50000   0.45284   0.00000  Uiso   1.00
O526   O     0.57608   0.50000   0.54716   0.00000  Uiso   1.00
Zn527  Zn    0.50000   0.49999   0.55104   0.00000  Uiso   1.00
Zn528  Zn    0.50000   0.50001   0.44896   0.00000  Uiso   1.00
H529   H     0.65802   0.50013   0.44662   0.00000  Uiso   1.00
H530   H     0.34198   0.49987   0.55338   0.00000  Uiso   1.00
H531   H     0.55701   0.54782   0.38294   0.00000  Uiso   1.00
H532   H     0.44299   0.45218   0.61706   0.00000  Uiso   1.00
C533   C     0.83329   0.41996   0.49998   0.00000  Uiso   1.00
C534   C     0.83337   0.58005   0.50002   0.00000  Uiso   1.00
C535   C     0.73370   0.49999   0.48802   0.00000  Uiso   1.00
C536   C     0.93297   0.50001   0.51198   0.00000  Uiso   1.00
C537   C     0.67866   0.50003   0.48157   0.00000  Uiso   1.00
C538   C     0.98801   0.49997   0.51843   0.00000  Uiso   1.00
C539   C     0.83400   0.35461   0.45880   0.00000  Uiso   1.00
C540   C     0.83267   0.64540   0.54120   0.00000  Uiso   1.00
C541   C     0.83407   0.64539   0.45882   0.00000  Uiso   1.00
C542   C     0.83260   0.35461   0.54118   0.00000  Uiso   1.00
C543   C     0.83338   0.62420   0.50002   0.00000  Uiso   1.00
C544   C     0.83328   0.37580   0.49998   0.00000  Uiso   1.00
C545   C     0.86501   0.52658   0.36146   0.00000  Uiso   1.00
C546   C     0.80166   0.47342   0.63854   0.00000  Uiso   1.00
C547   C     0.86499   0.52657   0.64684   0.00000  Uiso   1.00
C548   C     0.80168   0.47343   0.35316   0.00000  Uiso   1.00
H549   H     0.83454   0.37073   0.42667   0.00000  Uiso   1.00
H550   H     0.83212   0.62927   0.57333   0.00000  Uiso   1.00
H551   H     0.83467   0.62925   0.42671   0.00000  Uiso   1.00
H552   H     0.83200   0.37075   0.57329   0.00000  Uiso   1.00
H553   H     0.89030   0.54781   0.63199   0.00000  Uiso   1.00
H554   H     0.77637   0.45219   0.36801   0.00000  Uiso   1.00
N555   N     0.83332   0.49999   0.61907   0.00000  Uiso   1.00
N556   N     0.83335   0.50001   0.38093   0.00000  Uiso   1.00
O557   O     0.83333   0.43892   0.53821   0.00000  Uiso   1.00
O558   O     0.83334   0.56108   0.46179   0.00000  Uiso   1.00
O559   O     0.83333   0.43893   0.46176   0.00000  Uiso   1.00
O560   O     0.83334   0.56107   0.53824   0.00000  Uiso   1.00
O561   O     0.75725   0.50000   0.52928   0.00000  Uiso   1.00
O562   O     0.90942   0.50000   0.47072   0.00000  Uiso   1.00
O563   O     0.75725   0.50000   0.45284   0.00000  Uiso   1.00
O564   O     0.90942   0.50000   0.54716   0.00000  Uiso   1.00
Zn565  Zn    0.83333   0.49999   0.55104   0.00000  Uiso   1.00
Zn566  Zn    0.83333   0.50001   0.44896   0.00000  Uiso   1.00
H567   H     0.99135   0.50013   0.44662   0.00000  Uiso   1.00
H568   H     0.67531   0.49987   0.55338   0.00000  Uiso   1.00
H569   H     0.89034   0.54782   0.38294   0.00000  Uiso   1.00
H570   H     0.77632   0.45218   0.61706   0.00000  Uiso   1.00
C571   C     0.16663   0.75329   0.49998   0.00000  Uiso   1.00
C572   C     0.16671   0.91338   0.50002   0.00000  Uiso   1.00
C573   C     0.06703   0.83333   0.48802   0.00000  Uiso   1.00
C574   C     0.26630   0.83334   0.51198   0.00000  Uiso   1.00
C575   C     0.01199   0.83336   0.48157   0.00000  Uiso   1.00
C576   C     0.32134   0.83330   0.51843   0.00000  Uiso   1.00
C577   C     0.16733   0.68794   0.45880   0.00000  Uiso   1.00
C578   C     0.16600   0.97873   0.54120   0.00000  Uiso   1.00
C579   C     0.16740   0.97872   0.45882   0.00000  Uiso   1.00
C580   C     0.16593   0.68795   0.54118   0.00000  Uiso   1.00
C581   C     0.16672   0.95753   0.50002   0.00000  Uiso   1.00
C582   C     0.16662   0.70913   0.49998   0.00000  Uiso   1.00
C583   C     0.19834   0.85991   0.36146   0.00000  Uiso   1.00
C584   C     0.13499   0.80676   0.63854   0.00000  Uiso   1.00
C585   C     0.19832   0.85990   0.64684   0.00000  Uiso   1.00
C586   C     0.13501   0.80677   0.35316   0.00000  Uiso   1.00
H587   H     0.16788   0.70407   0.42667   0.00000  Uiso   1.00
H588   H     0.16546   0.96260   0.57333   0.00000  Uiso   1.00
H589   H     0.16800   0.96258   0.42671   0.00000  Uiso   1.00
H590   H     0.16533   0.70408   0.57329   0.00000  Uiso   1.00
H591   H     0.22363   0.88115   0.63199   0.00000  Uiso   1.00
H592   H     0.10970   0.78552   0.36801   0.00000  Uiso   1.00
N593   N     0.16665   0.83332   0.61907   0.00000  Uiso   1.00
N594   N     0.16668   0.83334   0.38093   0.00000  Uiso   1.00
O595   O     0.16666   0.77225   0.53821   0.00000  Uiso   1.00
O596   O     0.16667   0.89442   0.46179   0.00000  Uiso   1.00
O597   O     0.16666   0.77226   0.46176   0.00000  Uiso   1.00
O598   O     0.16667   0.89441   0.53824   0.00000  Uiso   1.00
O599   O     0.09058   0.83333   0.52928   0.00000  Uiso   1.00
O600   O     0.24275   0.83334   0.47072   0.00000  Uiso   1.00
O601   O     0.09058   0.83334   0.45284   0.00000  Uiso   1.00
O602   O     0.24275   0.83333   0.54716   0.00000  Uiso   1.00
Zn603  Zn    0.16667   0.83333   0.55104   0.00000  Uiso   1.00
Zn604  Zn    0.16667   0.83334   0.44896   0.00000  Uiso   1.00
H605   H     0.32469   0.83346   0.44662   0.00000  Uiso   1.00
H606   H     0.00864   0.83321   0.55338   0.00000  Uiso   1.00
H607   H     0.22368   0.88115   0.38294   0.00000  Uiso   1.00
H608   H     0.10966   0.78551   0.61706   0.00000  Uiso   1.00
C609   C     0.49996   0.75329   0.49998   0.00000  Uiso   1.00
C610   C     0.50004   0.91338   0.50002   0.00000  Uiso   1.00
C611   C     0.40036   0.83333   0.48802   0.00000  Uiso   1.00
C612   C     0.59964   0.83334   0.51198   0.00000  Uiso   1.00
C613   C     0.34532   0.83336   0.48157   0.00000  Uiso   1.00
C614   C     0.65468   0.83330   0.51843   0.00000  Uiso   1.00
C615   C     0.50067   0.68794   0.45880   0.00000  Uiso   1.00
C616   C     0.49933   0.97873   0.54120   0.00000  Uiso   1.00
C617   C     0.50073   0.97872   0.45882   0.00000  Uiso   1.00
C618   C     0.49927   0.68795   0.54118   0.00000  Uiso   1.00
C619   C     0.50005   0.95753   0.50002   0.00000  Uiso   1.00
C620   C     0.49995   0.70913   0.49998   0.00000  Uiso   1.00
C621   C     0.53167   0.85991   0.36146   0.00000  Uiso   1.00
C622   C     0.46833   0.80676   0.63854   0.00000  Uiso   1.00
C623   C     0.53166   0.85990   0.64684   0.00000  Uiso   1.00
C624   C     0.46834   0.80677   0.35316   0.00000  Uiso   1.00
H625   H     0.50121   0.70407   0.42667   0.00000  Uiso   1.00
H626   H     0.49879   0.96260   0.57333   0.00000  Uiso   1.00
H627   H     0.50134   0.96258   0.42671   0.00000  Uiso   1.00
H628   H     0.49866   0.70408   0.57329   0.00000  Uiso   1.00
H629   H     0.55697   0.88115   0.63199   0.00000  Uiso   1.00
H630   H     0.44303   0.78552   0.36801   0.00000  Uiso   1.00
N631   N     0.49999   0.83332   0.61907   0.00000  Uiso   1.00
N632   N     0.50001   0.83334   0.38093   0.00000  Uiso   1.00
O633   O     0.50000   0.77225   0.53821   0.00000  Uiso   1.00
O634   O     0.50000   0.89442   0.46179   0.00000  Uiso   1.00
O635   O     0.50000   0.77226   0.46176   0.00000  Uiso   1.00
O636   O     0.50000   0.89441   0.53824   0.00000  Uiso   1.00
O637   O     0.42392   0.83333   0.52928   0.00000  Uiso   1.00
O638   O     0.57608   0.83334   0.47072   0.00000  Uiso   1.00
O639   O     0.42392   0.83334   0.45284   0.00000  Uiso   1.00
O640   O     0.57608   0.83333   0.54716   0.00000  Uiso   1.00
Zn641  Zn    0.50000   0.83333   0.55104   0.00000  Uiso   1.00
Zn642  Zn    0.50000   0.83334   0.44896   0.00000  Uiso   1.00
H643   H     0.65802   0.83346   0.44662   0.00000  Uiso   1.00
H644   H     0.34198   0.83321   0.55338   0.00000  Uiso   1.00
H645   H     0.55701   0.88115   0.38294   0.00000  Uiso   1.00
H646   H     0.44299   0.78551   0.61706   0.00000  Uiso   1.00
C647   C     0.83329   0.75329   0.49998   0.00000  Uiso   1.00
C648   C     0.83337   0.91338   0.50002   0.00000  Uiso   1.00
C649   C     0.73370   0.83333   0.48802   0.00000  Uiso   1.00
C650   C     0.93297   0.83334   0.51198   0.00000  Uiso   1.00
C651   C     0.67866   0.83336   0.48157   0.00000  Uiso   1.00
C652   C     0.98801   0.83330   0.51843   0.00000  Uiso   1.00
C653   C     0.83400   0.68794   0.45880   0.00000  Uiso   1.00
C654   C     0.83267   0.97873   0.54120   0.00000  Uiso   1.00
C655   C     0.83407   0.97872   0.45882   0.00000  Uiso   1.00
C656   C     0.83260   0.68795   0.54118   0.00000  Uiso   1.00
C657   C     0.83338   0.95753   0.50002   0.00000  Uiso   1.00
C658   C     0.83328   0.70913   0.49998   0.00000  Uiso   1.00
C659   C     0.86501   0.85991   0.36146   0.00000  Uiso   1.00
C660   C     0.80166   0.80676   0.63854   0.00000  Uiso   1.00
C661   C     0.86499   0.85990   0.64684   0.00000  Uiso   1.00
C662   C     0.80168   0.80677   0.35316   0.00000  Uiso   1.00
H663   H     0.83454   0.70407   0.42667   0.00000  Uiso   1.00
H664   H     0.83212   0.96260   0.57333   0.00000  Uiso   1.00
H665   H     0.83467   0.96258   0.42671   0.00000  Uiso   1.00
H666   H     0.83200   0.70408   0.57329   0.00000  Uiso   1.00
H667   H     0.89030   0.88115   0.63199   0.00000  Uiso   1.00
H668   H     0.77637   0.78552   0.36801   0.00000  Uiso   1.00
N669   N     0.83332   0.83332   0.61907   0.00000  Uiso   1.00
N670   N     0.83335   0.83334   0.38093   0.00000  Uiso   1.00
O671   O     0.83333   0.77225   0.53821   0.00000  Uiso   1.00
O672   O     0.83334   0.89442   0.46179   0.00000  Uiso   1.00
O673   O     0.83333   0.77226   0.46176   0.00000  Uiso   1.00
O674   O     0.83334   0.89441   0.53824   0.00000  Uiso   1.00
O675   O     0.75725   0.83333   0.52928   0.00000  Uiso   1.00
O676   O     0.90942   0.83334   0.47072   0.00000  Uiso   1.00
O677   O     0.75725   0.83334   0.45284   0.00000  Uiso   1.00
O678   O     0.90942   0.83333   0.54716   0.00000  Uiso   1.00
Zn679  Zn    0.83333   0.83333   0.55104   0.00000  Uiso   1.00
Zn680  Zn    0.83333   0.83334   0.44896   0.00000  Uiso   1.00
H681   H     0.99135   0.83346   0.44662   0.00000  Uiso   1.00
H682   H     0.67531   0.83321   0.55338   0.00000  Uiso   1.00
H683   H     0.89034   0.88115   0.38294   0.00000  Uiso   1.00
H684   H     0.77632   0.78551   0.61706   0.00000  Uiso   1.00
C685   C     0.16663   0.08662   0.83331   0.00000  Uiso   1.00
C686   C     0.16671   0.24671   0.83335   0.00000  Uiso   1.00
C687   C     0.06703   0.16666   0.82135   0.00000  Uiso   1.00
C688   C     0.26630   0.16667   0.84531   0.00000  Uiso   1.00
C689   C     0.01199   0.16670   0.81491   0.00000  Uiso   1.00
C690   C     0.32134   0.16664   0.85176   0.00000  Uiso   1.00
C691   C     0.16733   0.02127   0.79213   0.00000  Uiso   1.00
C692   C     0.16600   0.31206   0.87454   0.00000  Uiso   1.00
C693   C     0.16740   0.31205   0.79215   0.00000  Uiso   1.00
C694   C     0.16593   0.02128   0.87452   0.00000  Uiso   1.00
C695   C     0.16672   0.29087   0.83335   0.00000  Uiso   1.00
C696   C     0.16662   0.04247   0.83332   0.00000  Uiso   1.00
C697   C     0.19834   0.19324   0.69479   0.00000  Uiso   1.00
C698   C     0.13499   0.14009   0.97188   0.00000  Uiso   1.00
C699   C     0.19832   0.19323   0.98017   0.00000  Uiso   1.00
C700   C     0.13501   0.14010   0.68650   0.00000  Uiso   1.00
H701   H     0.16788   0.03740   0.76001   0.00000  Uiso   1.00
H702   H     0.16546   0.29593   0.90666   0.00000  Uiso   1.00
H703   H     0.16800   0.29592   0.76004   0.00000  Uiso   1.00
H704   H     0.16533   0.03742   0.90663   0.00000  Uiso   1.00
H705   H     0.22363   0.21448   0.96532   0.00000  Uiso   1.00
H706   H     0.10970   0.11885   0.70134   0.00000  Uiso   1.00
N707   N     0.16665   0.16666   0.95240   0.00000  Uiso   1.00
N708   N     0.16668   0.16668   0.71427   0.00000  Uiso   1.00
O709   O     0.16666   0.10558   0.87154   0.00000  Uiso   1.00
O710   O     0.16667   0.22775   0.79513   0.00000  Uiso   1.00
O711   O     0.16666   0.10559   0.79510   0.00000  Uiso   1.00
O712   O     0.16667   0.22774   0.87157   0.00000  Uiso   1.00
O713   O     0.09058   0.16666   0.86261   0.00000  Uiso   1.00
O714   O     0.24275   0.16667   0.80405   0.00000  Uiso   1.00
O715   O     0.09058   0.16667   0.78617   0.00000  Uiso   1.00
O716   O     0.24275   0.16666   0.88050   0.00000  Uiso   1.00
Zn717  Zn    0.16667   0.16666   0.88437   0.00000  Uiso   1.00
Zn718  Zn    0.16667   0.16667   0.78229   0.00000  Uiso   1.00
H719   H     0.32469   0.16679   0.77995   0.00000  Uiso   1.00
H720   H     0.00864   0.16654   0.88671   0.00000  Uiso   1.00
H721   H     0.22368   0.21449   0.71627   0.00000  Uiso   1.00
H722   H     0.10966   0.11885   0.95040   0.00000  Uiso   1.00
C723   C     0.49996   0.08662   0.83331   0.00000  Uiso   1.00
C724   C     0.50004   0.24671   0.83335   0.00000  Uiso   1.00
C725   C     0.40036   0.16666   0.82135   0.00000  Uiso   1.00
C726   C     0.59964   0.16667   0.84531   0.00000  Uiso   1.00
C727   C     0.34532   0.16670   0.81491   0.00000  Uiso   1.00
C728   C     0.65468   0.16664   0.85176   0.00000  Uiso   1.00
C729   C     0.50067   0.02127   0.79213   0.00000  Uiso   1.00
C730   C     0.49933   0.31206   0.87454   0.00000  Uiso   1.00
C731   C     0.50073   0.31205   0.79215   0.00000  Uiso   1.00
C732   C     0.49927   0.02128   0.87452   0.00000  Uiso   1.00
C733   C     0.50005   0.29087   0.83335   0.00000  Uiso   1.00
C734   C     0.49995   0.04247   0.83332   0.00000  Uiso   1.00
C735   C     0.53167   0.19324   0.69479   0.00000  Uiso   1.00
C736   C     0.46833   0.14009   0.97188   0.00000  Uiso   1.00
C737   C     0.53166   0.19323   0.98017   0.00000  Uiso   1.00
C738   C     0.46834   0.14010   0.68650   0.00000  Uiso   1.00
H739   H     0.50121   0.03740   0.76001   0.00000  Uiso   1.00
H740   H     0.49879   0.29593   0.90666   0.00000  Uiso   1.00
H741   H     0.50134   0.29592   0.76004   0.00000  Uiso   1.00
H742   H     0.49866   0.03742   0.90663   0.00000  Uiso   1.00
H743   H     0.55697   0.21448   0.96532   0.00000  Uiso   1.00
H744   H     0.44303   0.11885   0.70134   0.00000  Uiso   1.00
N745   N     0.49999   0.16666   0.95240   0.00000  Uiso   1.00
N746   N     0.50001   0.16668   0.71427   0.00000  Uiso   1.00
O747   O     0.50000   0.10558   0.87154   0.00000  Uiso   1.00
O748   O     0.50000   0.22775   0.79513   0.00000  Uiso   1.00
O749   O     0.50000   0.10559   0.79510   0.00000  Uiso   1.00
O750   O     0.50000   0.22774   0.87157   0.00000  Uiso   1.00
O751   O     0.42392   0.16666   0.86261   0.00000  Uiso   1.00
O752   O     0.57608   0.16667   0.80405   0.00000  Uiso   1.00
O753   O     0.42392   0.16667   0.78617   0.00000  Uiso   1.00
O754   O     0.57608   0.16666   0.88050   0.00000  Uiso   1.00
Zn755  Zn    0.50000   0.16666   0.88437   0.00000  Uiso   1.00
Zn756  Zn    0.50000   0.16667   0.78229   0.00000  Uiso   1.00
H757   H     0.65802   0.16679   0.77995   0.00000  Uiso   1.00
H758   H     0.34198   0.16654   0.88671   0.00000  Uiso   1.00
H759   H     0.55701   0.21449   0.71627   0.00000  Uiso   1.00
H760   H     0.44299   0.11885   0.95040   0.00000  Uiso   1.00
C761   C     0.83329   0.08662   0.83331   0.00000  Uiso   1.00
C762   C     0.83337   0.24671   0.83335   0.00000  Uiso   1.00
C763   C     0.73370   0.16666   0.82135   0.00000  Uiso   1.00
C764   C     0.93297   0.16667   0.84531   0.00000  Uiso   1.00
C765   C     0.67866   0.16670   0.81491   0.00000  Uiso   1.00
C766   C     0.98801   0.16664   0.85176   0.00000  Uiso   1.00
C767   C     0.83400   0.02127   0.79213   0.00000  Uiso   1.00
C768   C     0.83267   0.31206   0.87454   0.00000  Uiso   1.00
C769   C     0.83407   0.31205   0.79215   0.00000  Uiso   1.00
C770   C     0.83260   0.02128   0.87452   0.00000  Uiso   1.00
C771   C     0.83338   0.29087   0.83335   0.00000  Uiso   1.00
C772   C     0.83328   0.04247   0.83332   0.00000  Uiso   1.00
C773   C     0.86501   0.19324   0.69479   0.00000  Uiso   1.00
C774   C     0.80166   0.14009   0.97188   0.00000  Uiso   1.00
C775   C     0.86499   0.19323   0.98017   0.00000  Uiso   1.00
C776   C     0.80168   0.14010   0.68650   0.00000  Uiso   1.00
H777   H     0.83454   0.03740   0.76001   0.00000  Uiso   1.00
H778   H     0.83212   0.29593   0.90666   0.00000  Uiso   1.00
H779   H     0.83467   0.29592   0.76004   0.00000  Uiso   1.00
H780   H     0.83200   0.03742   0.90663   0.00000  Uiso   1.00
H781   H     0.89030   0.21448   0.96532   0.00000  Uiso   1.00
H782   H     0.77637   0.11885   0.70134   0.00000  Uiso   1.00
N783   N     0.83332   0.16666   0.95240   0.00000  Uiso   1.00
N784   N     0.83335   0.16668   0.71427   0.00000  Uiso   1.00
O785   O     0.83333   0.10558   0.87154   0.00000  Uiso   1.00
O786   O     0.83334   0.22775   0.79513   0.00000  Uiso   1.00
O787   O     0.83333   0.10559   0.79510   0.00000  Uiso   1.00
O788   O     0.83334   0.22774   0.87157   0.00000  Uiso   1.00
O789   O     0.75725   0.16666   0.86261   0.00000  Uiso   1.00
O790   O     0.90942   0.16667   0.80405   0.00000  Uiso   1.00
O791   O     0.75725   0.16667   0.78617   0.00000  Uiso   1.00
O792   O     0.90942   0.16666   0.88050   0.00000  Uiso   1.00
Zn793  Zn    0.83333   0.16666   0.88437   0.00000  Uiso   1.00
Zn794  Zn    0.83333   0.16667   0.78229   0.00000  Uiso   1.00
H795   H     0.99135   0.16679   0.77995   0.00000  Uiso   1.00
H796   H     0.67531   0.16654   0.88671   0.00000  Uiso   1.00
H797   H     0.89034   0.21449   0.71627   0.00000  Uiso   1.00
H798   H     0.77632   0.11885   0.95040   0.00000  Uiso   1.00
C799   C     0.16663   0.41996   0.83331   0.00000  Uiso   1.00
C800   C     0.16671   0.58005   0.83335   0.00000  Uiso   1.00
C801   C     0.06703   0.49999   0.82135   0.00000  Uiso   1.00
C802   C     0.26630   0.50001   0.84531   0.00000  Uiso   1.00
C803   C     0.01199   0.50003   0.81491   0.00000  Uiso   1.00
C804   C     0.32134   0.49997   0.85176   0.00000  Uiso   1.00
C805   C     0.16733   0.35461   0.79213   0.00000  Uiso   1.00
C806   C     0.16600   0.64540   0.87454   0.00000  Uiso   1.00
C807   C     0.16740   0.64539   0.79215   0.00000  Uiso   1.00
C808   C     0.16593   0.35461   0.87452   0.00000  Uiso   1.00
C809   C     0.16672   0.62420   0.83335   0.00000  Uiso   1.00
C810   C     0.16662   0.37580   0.83332   0.00000  Uiso   1.00
C811   C     0.19834   0.52658   0.69479   0.00000  Uiso   1.00
C812   C     0.13499   0.47342   0.97188   0.00000  Uiso   1.00
C813   C     0.19832   0.52657   0.98017   0.00000  Uiso   1.00
C814   C     0.13501   0.47343   0.68650   0.00000  Uiso   1.00
H815   H     0.16788   0.37073   0.76001   0.00000  Uiso   1.00
H816   H     0.16546   0.62927   0.90666   0.00000  Uiso   1.00
H817   H     0.16800   0.62925   0.76004   0.00000  Uiso   1.00
H818   H     0.16533   0.37075   0.90663   0.00000  Uiso   1.00
H819   H     0.22363   0.54781   0.96532   0.00000  Uiso   1.00
H820   H     0.10970   0.45219   0.70134   0.00000  Uiso   1.00
N821   N     0.16665   0.49999   0.95240   0.00000  Uiso   1.00
N822   N     0.16668   0.50001   0.71427   0.00000  Uiso   1.00
O823   O     0.16666   0.43892   0.87154   0.00000  Uiso   1.00
O824   O     0.16667   0.56108   0.79513   0.00000  Uiso   1.00
O825   O     0.16666   0.43893   0.79510   0.00000  Uiso   1.00
O826   O     0.16667   0.56107   0.87157   0.00000  Uiso   1.00
O827   O     0.09058   0.50000   0.86261   0.00000  Uiso   1.00
O828   O     0.24275   0.50000   0.80405   0.00000  Uiso   1.00
O829   O     0.09058   0.50000   0.78617   0.00000  Uiso   1.00
O830   O     0.24275   0.50000   0.88050   0.00000  Uiso   1.00
Zn831  Zn    0.16667   0.49999   0.88437   0.00000  Uiso   1.00
Zn832  Zn    0.16667   0.50001   0.78229   0.00000  Uiso   1.00
H833   H     0.32469   0.50013   0.77995   0.00000  Uiso   1.00
H834   H     0.00864   0.49987   0.88671   0.00000  Uiso   1.00
H835   H     0.22368   0.54782   0.71627   0.00000  Uiso   1.00
H836   H     0.10966   0.45218   0.95040   0.00000  Uiso   1.00
C837   C     0.49996   0.41996   0.83331   0.00000  Uiso   1.00
C838   C     0.50004   0.58005   0.83335   0.00000  Uiso   1.00
C839   C     0.40036   0.49999   0.82135   0.00000  Uiso   1.00
C840   C     0.59964   0.50001   0.84531   0.00000  Uiso   1.00
C841   C     0.34532   0.50003   0.81491   0.00000  Uiso   1.00
C842   C     0.65468   0.49997   0.85176   0.00000  Uiso   1.00
C843   C     0.50067   0.35461   0.79213   0.00000  Uiso   1.00
C844   C     0.49933   0.64540   0.87454   0.00000  Uiso   1.00
C845   C     0.50073   0.64539   0.79215   0.00000  Uiso   1.00
C846   C     0.49927   0.35461   0.87452   0.00000  Uiso   1.00
C847   C     0.50005   0.62420   0.83335   0.00000  Uiso   1.00
C848   C     0.49995   0.37580   0.83332   0.00000  Uiso   1.00
C849   C     0.53167   0.52658   0.69479   0.00000  Uiso   1.00
C850   C     0.46833   0.47342   0.97188   0.00000  Uiso   1.00
C851   C     0.53166   0.52657   0.98017   0.00000  Uiso   1.00
C852   C     0.46834   0.47343   0.68650   0.00000  Uiso   1.00
H853   H     0.50121   0.37073   0.76001   0.00000  Uiso   1.00
H854   H     0.49879   0.62927   0.90666   0.00000  Uiso   1.00
H855   H     0.50134   0.62925   0.76004   0.00000  Uiso   1.00
H856   H     0.49866   0.37075   0.90663   0.00000  Uiso   1.00
H857   H     0.55697   0.54781   0.96532   0.00000  Uiso   1.00
H858   H     0.44303   0.45219   0.70134   0.00000  Uiso   1.00
N859   N     0.49999   0.49999   0.95240   0.00000  Uiso   1.00
N860   N     0.50001   0.50001   0.71427   0.00000  Uiso   1.00
O861   O     0.50000   0.43892   0.87154   0.00000  Uiso   1.00
O862   O     0.50000   0.56108   0.79513   0.00000  Uiso   1.00
O863   O     0.50000   0.43893   0.79510   0.00000  Uiso   1.00
O864   O     0.50000   0.56107   0.87157   0.00000  Uiso   1.00
O865   O     0.42392   0.50000   0.86261   0.00000  Uiso   1.00
O866   O     0.57608   0.50000   0.80405   0.00000  Uiso   1.00
O867   O     0.42392   0.50000   0.78617   0.00000  Uiso   1.00
O868   O     0.57608   0.50000   0.88050   0.00000  Uiso   1.00
Zn869  Zn    0.50000   0.49999   0.88437   0.00000  Uiso   1.00
Zn870  Zn    0.50000   0.50001   0.78229   0.00000  Uiso   1.00
H871   H     0.65802   0.50013   0.77995   0.00000  Uiso   1.00
H872   H     0.34198   0.49987   0.88671   0.00000  Uiso   1.00
H873   H     0.55701   0.54782   0.71627   0.00000  Uiso   1.00
H874   H     0.44299   0.45218   0.95040   0.00000  Uiso   1.00
C875   C     0.83329   0.41996   0.83331   0.00000  Uiso   1.00
C876   C     0.83337   0.58005   0.83335   0.00000  Uiso   1.00
C877   C     0.73370   0.49999   0.82135   0.00000  Uiso   1.00
C878   C     0.93297   0.50001   0.84531   0.00000  Uiso   1.00
C879   C     0.67866   0.50003   0.81491   0.00000  Uiso   1.00
C880   C     0.98801   0.49997   0.85176   0.00000  Uiso   1.00
C881   C     0.83400   0.35461   0.79213   0.00000  Uiso   1.00
C882   C     0.83267   0.64540   0.87454   0.00000  Uiso   1.00
C883   C     0.83407   0.64539   0.79215   0.00000  Uiso   1.00
C884   C     0.83260   0.35461   0.87452   0.00000  Uiso   1.00
C885   C     0.83338   0.62420   0.83335   0.00000  Uiso   1.00
C886   C     0.83328   0.37580   0.83332   0.00000  Uiso   1.00
C887   C     0.86501   0.52658   0.69479   0.00000  Uiso   1.00
C888   C     0.80166   0.47342   0.97188   0.00000  Uiso   1.00
C889   C     0.86499   0.52657   0.98017   0.00000  Uiso   1.00
C890   C     0.80168   0.47343   0.68650   0.00000  Uiso   1.00
H891   H     0.83454   0.37073   0.76001   0.00000  Uiso   1.00
H892   H     0.83212   0.62927   0.90666   0.00000  Uiso   1.00
H893   H     0.83467   0.62925   0.76004   0.00000  Uiso   1.00
H894   H     0.83200   0.37075   0.90663   0.00000  Uiso   1.00
H895   H     0.89030   0.54781   0.96532   0.00000  Uiso   1.00
H896   H     0.77637   0.45219   0.70134   0.00000  Uiso   1.00
N897   N     0.83332   0.49999   0.95240   0.00000  Uiso   1.00
N898   N     0.83335   0.50001   0.71427   0.00000  Uiso   1.00
O899   O     0.83333   0.43892   0.87154   0.00000  Uiso   1.00
O900   O     0.83334   0.56108   0.79513   0.00000  Uiso   1.00
O901   O     0.83333   0.43893   0.79510   0.00000  Uiso   1.00
O902   O     0.83334   0.56107   0.87157   0.00000  Uiso   1.00
O903   O     0.75725   0.50000   0.86261   0.00000  Uiso   1.00
O904   O     0.90942   0.50000   0.80405   0.00000  Uiso   1.00
O905   O     0.75725   0.50000   0.78617   0.00000  Uiso   1.00
O906   O     0.90942   0.50000   0.88050   0.00000  Uiso   1.00
Zn907  Zn    0.83333   0.49999   0.88437   0.00000  Uiso   1.00
Zn908  Zn    0.83333   0.50001   0.78229   0.00000  Uiso   1.00
H909   H     0.99135   0.50013   0.77995   0.00000  Uiso   1.00
H910   H     0.67531   0.49987   0.88671   0.00000  Uiso   1.00
H911   H     0.89034   0.54782   0.71627   0.00000  Uiso   1.00
H912   H     0.77632   0.45218   0.95040   0.00000  Uiso   1.00
C913   C     0.16663   0.75329   0.83331   0.00000  Uiso   1.00
C914   C     0.16671   0.91338   0.83335   0.00000  Uiso   1.00
C915   C     0.06703   0.83333   0.82135   0.00000  Uiso   1.00
C916   C     0.26630   0.83334   0.84531   0.00000  Uiso   1.00
C917   C     0.01199   0.83336   0.81491   0.00000  Uiso   1.00
C918   C     0.32134   0.83330   0.85176   0.00000  Uiso   1.00
C919   C     0.16733   0.68794   0.79213   0.00000  Uiso   1.00
C920   C     0.16600   0.97873   0.87454   0.00000  Uiso   1.00
C921   C     0.16740   0.97872   0.79215   0.00000  Uiso   1.00
C922   C     0.16593   0.68795   0.87452   0.00000  Uiso   1.00
C923   C     0.16672   0.95753   0.83335   0.00000  Uiso   1.00
C924   C     0.16662   0.70913   0.83332   0.00000  Uiso   1.00
C925   C     0.19834   0.85991   0.69479   0.00000  Uiso   1.00
C926   C     0.13499   0.80676   0.97188   0.00000  Uiso   1.00
C927   C     0.19832   0.85990   0.98017   0.00000  Uiso   1.00
C928   C     0.13501   0.80677   0.68650   0.00000  Uiso   1.00
H929   H     0.16788   0.70407   0.76001   0.00000  Uiso   1.00
H930   H     0.16546   0.96260   0.90666   0.00000  Uiso   1.00
H931   H     0.16800   0.96258   0.76004   0.00000  Uiso   1.00
H932   H     0.16533   0.70408   0.90663   0.00000  Uiso   1.00
H933   H     0.22363   0.88115   0.96532   0.00000  Uiso   1.00
H934   H     0.10970   0.78552   0.70134   0.00000  Uiso   1.00
N935   N     0.16665   0.83332   0.95240   0.00000  Uiso   1.00
N936   N     0.16668   0.83334   0.71427   0.00000  Uiso   1.00
O937   O     0.16666   0.77225   0.87154   0.00000  Uiso   1.00
O938   O     0.16667   0.89442   0.79513   0.00000  Uiso   1.00
O939   O     0.16666   0.77226   0.79510   0.00000  Uiso   1.00
O940   O     0.16667   0.89441   0.87157   0.00000  Uiso   1.00
O941   O     0.09058   0.83333   0.86261   0.00000  Uiso   1.00
O942   O     0.24275   0.83334   0.80405   0.00000  Uiso   1.00
O943   O     0.09058   0.83334   0.78617   0.00000  Uiso   1.00
O944   O     0.24275   0.83333   0.88050   0.00000  Uiso   1.00
Zn945  Zn    0.16667   0.83333   0.88437   0.00000  Uiso   1.00
Zn946  Zn    0.16667   0.83334   0.78229   0.00000  Uiso   1.00
H947   H     0.32469   0.83346   0.77995   0.00000  Uiso   1.00
H948   H     0.00864   0.83321   0.88671   0.00000  Uiso   1.00
H949   H     0.22368   0.88115   0.71627   0.00000  Uiso   1.00
H950   H     0.10966   0.78551   0.95040   0.00000  Uiso   1.00
C951   C     0.49996   0.75329   0.83331   0.00000  Uiso   1.00
C952   C     0.50004   0.91338   0.83335   0.00000  Uiso   1.00
C953   C     0.40036   0.83333   0.82135   0.00000  Uiso   1.00
C954   C     0.59964   0.83334   0.84531   0.00000  Uiso   1.00
C955   C     0.34532   0.83336   0.81491   0.00000  Uiso   1.00
C956   C     0.65468   0.83330   0.85176   0.00000  Uiso   1.00
C957   C     0.50067   0.68794   0.79213   0.00000  Uiso   1.00
C958   C     0.49933   0.97873   0.87454   0.00000  Uiso   1.00
C959   C     0.50073   0.97872   0.79215   0.00000  Uiso   1.00
C960   C     0.49927   0.68795   0.87452   0.00000  Uiso   1.00
C961   C     0.50005   0.95753   0.83335   0.00000  Uiso   1.00
C962   C     0.49995   0.70913   0.83332   0.00000  Uiso   1.00
C963   C     0.53167   0.85991   0.69479   0.00000  Uiso   1.00
C964   C     0.46833   0.80676   0.97188   0.00000  Uiso   1.00
C965   C     0.53166   0.85990   0.98017   0.00000  Uiso   1.00
C966   C     0.46834   0.80677   0.68650   0.00000  Uiso   1.00
H967   H     0.50121   0.70407   0.76001   0.00000  Uiso   1.00
H968   H     0.49879   0.96260   0.90666   0.00000  Uiso   1.00
H969   H     0.50134   0.96258   0.76004   0.00000  Uiso   1.00
H970   H     0.49866   0.70408   0.90663   0.00000  Uiso   1.00
H971   H     0.55697   0.88115   0.96532   0.00000  Uiso   1.00
H972   H     0.44303   0.78552   0.70134   0.00000  Uiso   1.00
N973   N     0.49999   0.83332   0.95240   0.00000  Uiso   1.00
N974   N     0.50001   0.83334   0.71427   0.00000  Uiso   1.00
O975   O     0.50000   0.77225   0.87154   0.00000  Uiso   1.00
O976   O     0.50000   0.89442   0.79513   0.00000  Uiso   1.00
O977   O     0.50000   0.77226   0.79510   0.00000  Uiso   1.00
O978   O     0.50000   0.89441   0.87157   0.00000  Uiso   1.00
O979   O     0.42392   0.83333   0.86261   0.00000  Uiso   1.00
O980   O     0.57608   0.83334   0.80405   0.00000  Uiso   1.00
O981   O     0.42392   0.83334   0.78617   0.00000  Uiso   1.00
O982   O     0.57608   0.83333   0.88050   0.00000  Uiso   1.00
Zn983  Zn    0.50000   0.83333   0.88437   0.00000  Uiso   1.00
Zn984  Zn    0.50000   0.83334   0.78229   0.00000  Uiso   1.00
H985   H     0.65802   0.83346   0.77995   0.00000  Uiso   1.00
H986   H     0.34198   0.83321   0.88671   0.00000  Uiso   1.00
H987   H     0.55701   0.88115   0.71627   0.00000  Uiso   1.00
H988   H     0.44299   0.78551   0.95040   0.00000  Uiso   1.00
C989   C     0.83329   0.75329   0.83331   0.00000  Uiso   1.00
C990   C     0.83337   0.91338   0.83335   0.00000  Uiso   1.00
C991   C     0.73370   0.83333   0.82135   0.00000  Uiso   1.00
C992   C     0.93297   0.83334   0.84531   0.00000  Uiso   1.00
C993   C     0.67866   0.83336   0.81491   0.00000  Uiso   1.00
C994   C     0.98801   0.83330   0.85176   0.00000  Uiso   1.00
C995   C     0.83400   0.68794   0.79213   0.00000  Uiso   1.00
C996   C     0.83267   0.97873   0.87454   0.00000  Uiso   1.00
C997   C     0.83407   0.97872   0.79215   0.00000  Uiso   1.00
C998   C     0.83260   0.68795   0.87452   0.00000  Uiso   1.00
C999   C     0.83338   0.95753   0.83335   0.00000  Uiso   1.00
C1000  C     0.83328   0.70913   0.83332   0.00000  Uiso   1.00
C1001  C     0.86501   0.85991   0.69479   0.00000  Uiso   1.00
C1002  C     0.80166   0.80676   0.97188   0.00000  Uiso   1.00
C1003  C     0.86499   0.85990   0.98017   0.00000  Uiso   1.00
C1004  C     0.80168   0.80677   0.68650   0.00000  Uiso   1.00
H1005  H     0.83454   0.70407   0.76001   0.00000  Uiso   1.00
H1006  H     0.83212   0.96260   0.90666   0.00000  Uiso   1.00
H1007  H     0.83467   0.96258   0.76004   0.00000  Uiso   1.00
H1008  H     0.83200   0.70408   0.90663   0.00000  Uiso   1.00
H1009  H     0.89030   0.88115   0.96532   0.00000  Uiso   1.00
H1010  H     0.77637   0.78552   0.70134   0.00000  Uiso   1.00
N1011  N     0.83332   0.83332   0.95240   0.00000  Uiso   1.00
N1012  N     0.83335   0.83334   0.71427   0.00000  Uiso   1.00
O1013  O     0.83333   0.77225   0.87154   0.00000  Uiso   1.00
O1014  O     0.83334   0.89442   0.79513   0.00000  Uiso   1.00
O1015  O     0.83333   0.77226   0.79510   0.00000  Uiso   1.00
O1016  O     0.83334   0.89441   0.87157   0.00000  Uiso   1.00
O1017  O     0.75725   0.83333   0.86261   0.00000  Uiso   1.00
O1018  O     0.90942   0.83334   0.80405   0.00000  Uiso   1.00
O1019  O     0.75725   0.83334   0.78617   0.00000  Uiso   1.00
O1020  O     0.90942   0.83333   0.88050   0.00000  Uiso   1.00
Zn1021 Zn    0.83333   0.83333   0.88437   0.00000  Uiso   1.00
Zn1022 Zn    0.83333   0.83334   0.78229   0.00000  Uiso   1.00
H1023  H     0.99135   0.83346   0.77995   0.00000  Uiso   1.00
H1024  H     0.67531   0.83321   0.88671   0.00000  Uiso   1.00
H1025  H     0.89034   0.88115   0.71627   0.00000  Uiso   1.00
H1026  H     0.77632   0.78551   0.95040   0.00000  Uiso   1.00
loop_
_geom_bond_atom_site_label_1
_geom_bond_atom_site_label_2
_geom_bond_distance
_geom_bond_site_symmetry_2
_ccdc_geom_bond_type
C1     O25     1.283   .     A
C1     C12     1.421   .     S
C1     O27     1.284   .     A
C2     O28     1.284   .     A
C2     C11     1.421   .     S
C2     O26     1.283   .     A
C3     O31     1.280   .     A
C3     O29     1.277   .     A
C3     C5      1.403   .     S
C4     O32     1.280   .     A
C4     C6      1.403   .     S
C4     O30     1.277   .     A
C5     C82     1.330   1_455 S
C5     H111    1.088   1_455 S
C6     C43     1.330   .     S
C6     H74     1.088   .     S
C7     H17     1.084   .     S
C7     C12     1.397   .     A
C7     C237    1.370   1_545 S
C8     C11     1.397   .     A
C8     H18     1.084   .     S
C8     C124    1.370   .     S
C9     C11     1.397   .     A
C9     H19     1.084   .     S
C9     C121    1.370   .     S
C10    C12     1.397   .     A
C10    H20     1.084   .     S
C10    C236    1.370   1_545 S
C13    H37     1.082   .     S
C13    N24     1.366   .     A
C13    C699    1.417   1_554 S
C14    N23     1.366   .     A
C14    H38     1.082   .     S
C14    C358    1.417   .     S
C15    N23     1.366   .     A
C15    H21     1.082   .     S
C15    C355    1.417   .     S
C16    N24     1.366   .     A
C16    H22     1.082   .     S
C16    C698    1.417   1_554 S
N23    Zn33    2.010   .     S
N24    Zn34    2.010   .     S
O25    Zn33    2.002   .     S
O26    Zn34    2.002   .     S
O27    Zn34    2.002   .     S
O28    Zn33    2.002   .     S
O29    Zn33    1.970   .     S
O30    Zn34    1.970   .     S
O31    Zn34    1.982   .     S
O32    Zn33    1.982   .     S
H35    C43     1.088   .     S
H36    C82     1.088   1_455 S
C39    O63     1.283   .     A
C39    C50     1.421   .     S
C39    O65     1.284   .     A
C40    O66     1.284   .     A
C40    C49     1.421   .     S
C40    O64     1.283   .     A
C41    O69     1.280   .     A
C41    O67     1.277   .     A
C41    C43     1.403   .     S
C42    O70     1.280   .     A
C42    C44     1.403   .     S
C42    O68     1.277   .     A
C44    C81     1.330   .     S
C44    H112    1.088   .     S
C45    H55     1.084   .     S
C45    C50     1.397   .     A
C45    C275    1.370   1_545 S
C46    C49     1.397   .     A
C46    H56     1.084   .     S
C46    C162    1.370   .     S
C47    C49     1.397   .     A
C47    H57     1.084   .     S
C47    C159    1.370   .     S
C48    C50     1.397   .     A
C48    H58     1.084   .     S
C48    C274    1.370   1_545 S
C51    H75     1.082   .     S
C51    N62     1.366   .     A
C51    C737    1.417   1_554 S
C52    N61     1.366   .     A
C52    H76     1.082   .     S
C52    C396    1.417   .     S
C53    N61     1.366   .     A
C53    H59     1.082   .     S
C53    C393    1.417   .     S
C54    N62     1.366   .     A
C54    H60     1.082   .     S
C54    C736    1.417   1_554 S
N61    Zn71    2.010   .     S
N62    Zn72    2.010   .     S
O63    Zn71    2.002   .     S
O64    Zn72    2.002   .     S
O65    Zn72    2.002   .     S
O66    Zn71    2.002   .     S
O67    Zn71    1.970   .     S
O68    Zn72    1.970   .     S
O69    Zn72    1.982   .     S
O70    Zn71    1.982   .     S
H73    C81     1.088   .     S
C77    O101    1.283   .     A
C77    C88     1.421   .     S
C77    O103    1.284   .     A
C78    O104    1.284   .     A
C78    C87     1.421   .     S
C78    O102    1.283   .     A
C79    O107    1.280   .     A
C79    O105    1.277   .     A
C79    C81     1.403   .     S
C80    O108    1.280   .     A
C80    C82     1.403   .     S
C80    O106    1.277   .     A
C82    C5      1.330   1_655 S
C82    H36     1.088   1_655 S
C83    H93     1.084   .     S
C83    C88     1.397   .     A
C83    C313    1.370   1_545 S
C84    C87     1.397   .     A
C84    H94     1.084   .     S
C84    C200    1.370   .     S
C85    C87     1.397   .     A
C85    H95     1.084   .     S
C85    C197    1.370   .     S
C86    C88     1.397   .     A
C86    H96     1.084   .     S
C86    C312    1.370   1_545 S
C89    H113    1.082   .     S
C89    N100    1.366   .     A
C89    C775    1.417   1_554 S
C90    N99     1.366   .     A
C90    H114    1.082   .     S
C90    C434    1.417   .     S
C91    N99     1.366   .     A
C91    H97     1.082   .     S
C91    C431    1.417   .     S
C92    N100    1.366   .     A
C92    H98     1.082   .     S
C92    C774    1.417   1_554 S
N99    Zn109   2.010   .     S
N100   Zn110   2.010   .     S
O101   Zn109   2.002   .     S
O102   Zn110   2.002   .     S
O103   Zn110   2.002   .     S
O104   Zn109   2.002   .     S
O105   Zn109   1.970   .     S
O106   Zn110   1.970   .     S
O107   Zn110   1.982   .     S
O108   Zn109   1.982   .     S
H111   C5      1.088   1_655 S
C115   O139    1.283   .     A
C115   C126    1.421   .     S
C115   O141    1.284   .     A
C116   O142    1.284   .     A
C116   C125    1.421   .     S
C116   O140    1.283   .     A
C117   O145    1.280   .     A
C117   O143    1.277   .     A
C117   C119    1.403   .     S
C118   O146    1.280   .     A
C118   C120    1.403   .     S
C118   O144    1.277   .     A
C119   C196    1.330   1_455 S
C119   H225    1.088   1_455 S
C120   C157    1.330   .     S
C120   H188    1.088   .     S
C121   H131    1.084   .     S
C121   C126    1.397   .     A
C122   C125    1.397   .     A
C122   H132    1.084   .     S
C122   C238    1.370   .     S
C123   C125    1.397   .     A
C123   H133    1.084   .     S
C123   C235    1.370   .     S
C124   C126    1.397   .     A
C124   H134    1.084   .     S
C127   H151    1.082   .     S
C127   N138    1.366   .     A
C127   C813    1.417   1_554 S
C128   N137    1.366   .     A
C128   H152    1.082   .     S
C128   C472    1.417   .     S
C129   N137    1.366   .     A
C129   H135    1.082   .     S
C129   C469    1.417   .     S
C130   N138    1.366   .     A
C130   H136    1.082   .     S
C130   C812    1.417   1_554 S
N137   Zn147   2.010   .     S
N138   Zn148   2.010   .     S
O139   Zn147   2.002   .     S
O140   Zn148   2.002   .     S
O141   Zn148   2.002   .     S
O142   Zn147   2.002   .     S
O143   Zn147   1.970   .     S
O144   Zn148   1.970   .     S
O145   Zn148   1.982   .     S
O146   Zn147   1.982   .     S
H149   C157    1.088   .     S
H150   C196    1.088   1_455 S
C153   O177    1.283   .     A
C153   C164    1.421   .     S
C153   O179    1.284   .     A
C154   O180    1.284   .     A
C154   C163    1.421   .     S
C154   O178    1.283   .     A
C155   O183    1.280   .     A
C155   O181    1.277   .     A
C155   C157    1.403   .     S
C156   O184    1.280   .     A
C156   C158    1.403   .     S
C156   O182    1.277   .     A
C158   C195    1.330   .     S
C158   H226    1.088   .     S
C159   H169    1.084   .     S
C159   C164    1.397   .     A
C160   C163    1.397   .     A
C160   H170    1.084   .     S
C160   C276    1.370   .     S
C161   C163    1.397   .     A
C161   H171    1.084   .     S
C161   C273    1.370   .     S
C162   C164    1.397   .     A
C162   H172    1.084   .     S
C165   H189    1.082   .     S
C165   N176    1.366   .     A
C165   C851    1.417   1_554 S
C166   N175    1.366   .     A
C166   H190    1.082   .     S
C166   C510    1.417   .     S
C167   N175    1.366   .     A
C167   H173    1.082   .     S
C167   C507    1.417   .     S
C168   N176    1.366   .     A
C168   H174    1.082   .     S
C168   C850    1.417   1_554 S
N175   Zn185   2.010   .     S
N176   Zn186   2.010   .     S
O177   Zn185   2.002   .     S
O178   Zn186   2.002   .     S
O179   Zn186   2.002   .     S
O180   Zn185   2.002   .     S
O181   Zn185   1.970   .     S
O182   Zn186   1.970   .     S
O183   Zn186   1.982   .     S
O184   Zn185   1.982   .     S
H187   C195    1.088   .     S
C191   O215    1.283   .     A
C191   C202    1.421   .     S
C191   O217    1.284   .     A
C192   O218    1.284   .     A
C192   C201    1.421   .     S
C192   O216    1.283   .     A
C193   O221    1.280   .     A
C193   O219    1.277   .     A
C193   C195    1.403   .     S
C194   O222    1.280   .     A
C194   C196    1.403   .     S
C194   O220    1.277   .     A
C196   C119    1.330   1_655 S
C196   H150    1.088   1_655 S
C197   H207    1.084   .     S
C197   C202    1.397   .     A
C198   C201    1.397   .     A
C198   H208    1.084   .     S
C198   C314    1.370   .     S
C199   C201    1.397   .     A
C199   H209    1.084   .     S
C199   C311    1.370   .     S
C200   C202    1.397   .     A
C200   H210    1.084   .     S
C203   H227    1.082   .     S
C203   N214    1.366   .     A
C203   C889    1.417   1_554 S
C204   N213    1.366   .     A
C204   H228    1.082   .     S
C204   C548    1.417   .     S
C205   N213    1.366   .     A
C205   H211    1.082   .     S
C205   C545    1.417   .     S
C206   N214    1.366   .     A
C206   H212    1.082   .     S
C206   C888    1.417   1_554 S
N213   Zn223   2.010   .     S
N214   Zn224   2.010   .     S
O215   Zn223   2.002   .     S
O216   Zn224   2.002   .     S
O217   Zn224   2.002   .     S
O218   Zn223   2.002   .     S
O219   Zn223   1.970   .     S
O220   Zn224   1.970   .     S
O221   Zn224   1.982   .     S
O222   Zn223   1.982   .     S
H225   C119    1.088   1_655 S
C229   O253    1.283   .     A
C229   C240    1.421   .     S
C229   O255    1.284   .     A
C230   O256    1.284   .     A
C230   C239    1.421   .     S
C230   O254    1.283   .     A
C231   O259    1.280   .     A
C231   O257    1.277   .     A
C231   C233    1.403   .     S
C232   O260    1.280   .     A
C232   C234    1.403   .     S
C232   O258    1.277   .     A
C233   C310    1.330   1_455 S
C233   H339    1.088   1_455 S
C234   C271    1.330   .     S
C234   H302    1.088   .     S
C235   H245    1.084   .     S
C235   C240    1.397   .     A
C236   C239    1.397   .     A
C236   H246    1.084   .     S
C236   C10     1.370   1_565 S
C237   C239    1.397   .     A
C237   H247    1.084   .     S
C237   C7      1.370   1_565 S
C238   C240    1.397   .     A
C238   H248    1.084   .     S
C241   H265    1.082   .     S
C241   N252    1.366   .     A
C241   C927    1.417   1_554 S
C242   N251    1.366   .     A
C242   H266    1.082   .     S
C242   C586    1.417   .     S
C243   N251    1.366   .     A
C243   H249    1.082   .     S
C243   C583    1.417   .     S
C244   N252    1.366   .     A
C244   H250    1.082   .     S
C244   C926    1.417   1_554 S
N251   Zn261   2.010   .     S
N252   Zn262   2.010   .     S
O253   Zn261   2.002   .     S
O254   Zn262   2.002   .     S
O255   Zn262   2.002   .     S
O256   Zn261   2.002   .     S
O257   Zn261   1.970   .     S
O258   Zn262   1.970   .     S
O259   Zn262   1.982   .     S
O260   Zn261   1.982   .     S
H263   C271    1.088   .     S
H264   C310    1.088   1_455 S
C267   O291    1.283   .     A
C267   C278    1.421   .     S
C267   O293    1.284   .     A
C268   O294    1.284   .     A
C268   C277    1.421   .     S
C268   O292    1.283   .     A
C269   O297    1.280   .     A
C269   O295    1.277   .     A
C269   C271    1.403   .     S
C270   O298    1.280   .     A
C270   C272    1.403   .     S
C270   O296    1.277   .     A
C272   C309    1.330   .     S
C272   H340    1.088   .     S
C273   H283    1.084   .     S
C273   C278    1.397   .     A
C274   C277    1.397   .     A
C274   H284    1.084   .     S
C274   C48     1.370   1_565 S
C275   C277    1.397   .     A
C275   H285    1.084   .     S
C275   C45     1.370   1_565 S
C276   C278    1.397   .     A
C276   H286    1.084   .     S
C279   H303    1.082   .     S
C279   N290    1.366   .     A
C279   C965    1.417   1_554 S
C280   N289    1.366   .     A
C280   H304    1.082   .     S
C280   C624    1.417   .     S
C281   N289    1.366   .     A
C281   H287    1.082   .     S
C281   C621    1.417   .     S
C282   N290    1.366   .     A
C282   H288    1.082   .     S
C282   C964    1.417   1_554 S
N289   Zn299   2.010   .     S
N290   Zn300   2.010   .     S
O291   Zn299   2.002   .     S
O292   Zn300   2.002   .     S
O293   Zn300   2.002   .     S
O294   Zn299   2.002   .     S
O295   Zn299   1.970   .     S
O296   Zn300   1.970   .     S
O297   Zn300   1.982   .     S
O298   Zn299   1.982   .     S
H301   C309    1.088   .     S
C305   O329    1.283   .     A
C305   C316    1.421   .     S
C305   O331    1.284   .     A
C306   O332    1.284   .     A
C306   C315    1.421   .     S
C306   O330    1.283   .     A
C307   O335    1.280   .     A
C307   O333    1.277   .     A
C307   C309    1.403   .     S
C308   O336    1.280   .     A
C308   C310    1.403   .     S
C308   O334    1.277   .     A
C310   C233    1.330   1_655 S
C310   H264    1.088   1_655 S
C311   H321    1.084   .     S
C311   C316    1.397   .     A
C312   C315    1.397   .     A
C312   H322    1.084   .     S
C312   C86     1.370   1_565 S
C313   C315    1.397   .     A
C313   H323    1.084   .     S
C313   C83     1.370   1_565 S
C314   C316    1.397   .     A
C314   H324    1.084   .     S
C317   H341    1.082   .     S
C317   N328    1.366   .     A
C317   C1003   1.417   1_554 S
C318   N327    1.366   .     A
C318   H342    1.082   .     S
C318   C662    1.417   .     S
C319   N327    1.366   .     A
C319   H325    1.082   .     S
C319   C659    1.417   .     S
C320   N328    1.366   .     A
C320   H326    1.082   .     S
C320   C1002   1.417   1_554 S
N327   Zn337   2.010   .     S
N328   Zn338   2.010   .     S
O329   Zn337   2.002   .     S
O330   Zn338   2.002   .     S
O331   Zn338   2.002   .     S
O332   Zn337   2.002   .     S
O333   Zn337   1.970   .     S
O334   Zn338   1.970   .     S
O335   Zn338   1.982   .     S
O336   Zn337   1.982   .     S
H339   C233    1.088   1_655 S
C343   O367    1.283   .     A
C343   C354    1.421   .     S
C343   O369    1.284   .     A
C344   O370    1.284   .     A
C344   C353    1.421   .     S
C344   O368    1.283   .     A
C345   O373    1.280   .     A
C345   O371    1.277   .     A
C345   C347    1.403   .     S
C346   O374    1.280   .     A
C346   C348    1.403   .     S
C346   O372    1.277   .     A
C347   C424    1.330   1_455 S
C347   H453    1.088   1_455 S
C348   C385    1.330   .     S
C348   H416    1.088   .     S
C349   H359    1.084   .     S
C349   C354    1.397   .     A
C349   C579    1.370   1_545 S
C350   C353    1.397   .     A
C350   H360    1.084   .     S
C350   C466    1.370   .     S
C351   C353    1.397   .     A
C351   H361    1.084   .     S
C351   C463    1.370   .     S
C352   C354    1.397   .     A
C352   H362    1.084   .     S
C352   C578    1.370   1_545 S
C355   H379    1.082   .     S
C355   N366    1.366   .     A
C356   N365    1.366   .     A
C356   H380    1.082   .     S
C356   C700    1.417   .     S
C357   N365    1.366   .     A
C357   H363    1.082   .     S
C357   C697    1.417   .     S
C358   N366    1.366   .     A
C358   H364    1.082   .     S
N365   Zn375   2.010   .     S
N366   Zn376   2.010   .     S
O367   Zn375   2.002   .     S
O368   Zn376   2.002   .     S
O369   Zn376   2.002   .     S
O370   Zn375   2.002   .     S
O371   Zn375   1.970   .     S
O372   Zn376   1.970   .     S
O373   Zn376   1.982   .     S
O374   Zn375   1.982   .     S
H377   C385    1.088   .     S
H378   C424    1.088   1_455 S
C381   O405    1.283   .     A
C381   C392    1.421   .     S
C381   O407    1.284   .     A
C382   O408    1.284   .     A
C382   C391    1.421   .     S
C382   O406    1.283   .     A
C383   O411    1.280   .     A
C383   O409    1.277   .     A
C383   C385    1.403   .     S
C384   O412    1.280   .     A
C384   C386    1.403   .     S
C384   O410    1.277   .     A
C386   C423    1.330   .     S
C386   H454    1.088   .     S
C387   H397    1.084   .     S
C387   C392    1.397   .     A
C387   C617    1.370   1_545 S
C388   C391    1.397   .     A
C388   H398    1.084   .     S
C388   C504    1.370   .     S
C389   C391    1.397   .     A
C389   H399    1.084   .     S
C389   C501    1.370   .     S
C390   C392    1.397   .     A
C390   H400    1.084   .     S
C390   C616    1.370   1_545 S
C393   H417    1.082   .     S
C393   N404    1.366   .     A
C394   N403    1.366   .     A
C394   H418    1.082   .     S
C394   C738    1.417   .     S
C395   N403    1.366   .     A
C395   H401    1.082   .     S
C395   C735    1.417   .     S
C396   N404    1.366   .     A
C396   H402    1.082   .     S
N403   Zn413   2.010   .     S
N404   Zn414   2.010   .     S
O405   Zn413   2.002   .     S
O406   Zn414   2.002   .     S
O407   Zn414   2.002   .     S
O408   Zn413   2.002   .     S
O409   Zn413   1.970   .     S
O410   Zn414   1.970   .     S
O411   Zn414   1.982   .     S
O412   Zn413   1.982   .     S
H415   C423    1.088   .     S
C419   O443    1.283   .     A
C419   C430    1.421   .     S
C419   O445    1.284   .     A
C420   O446    1.284   .     A
C420   C429    1.421   .     S
C420   O444    1.283   .     A
C421   O449    1.280   .     A
C421   O447    1.277   .     A
C421   C423    1.403   .     S
C422   O450    1.280   .     A
C422   C424    1.403   .     S
C422   O448    1.277   .     A
C424   C347    1.330   1_655 S
C424   H378    1.088   1_655 S
C425   H435    1.084   .     S
C425   C430    1.397   .     A
C425   C655    1.370   1_545 S
C426   C429    1.397   .     A
C426   H436    1.084   .     S
C426   C542    1.370   .     S
C427   C429    1.397   .     A
C427   H437    1.084   .     S
C427   C539    1.370   .     S
C428   C430    1.397   .     A
C428   H438    1.084   .     S
C428   C654    1.370   1_545 S
C431   H455    1.082   .     S
C431   N442    1.366   .     A
C432   N441    1.366   .     A
C432   H456    1.082   .     S
C432   C776    1.417   .     S
C433   N441    1.366   .     A
C433   H439    1.082   .     S
C433   C773    1.417   .     S
C434   N442    1.366   .     A
C434   H440    1.082   .     S
N441   Zn451   2.010   .     S
N442   Zn452   2.010   .     S
O443   Zn451   2.002   .     S
O444   Zn452   2.002   .     S
O445   Zn452   2.002   .     S
O446   Zn451   2.002   .     S
O447   Zn451   1.970   .     S
O448   Zn452   1.970   .     S
O449   Zn452   1.982   .     S
O450   Zn451   1.982   .     S
H453   C347    1.088   1_655 S
C457   O481    1.283   .     A
C457   C468    1.421   .     S
C457   O483    1.284   .     A
C458   O484    1.284   .     A
C458   C467    1.421   .     S
C458   O482    1.283   .     A
C459   O487    1.280   .     A
C459   O485    1.277   .     A
C459   C461    1.403   .     S
C460   O488    1.280   .     A
C460   C462    1.403   .     S
C460   O486    1.277   .     A
C461   C538    1.330   1_455 S
C461   H567    1.088   1_455 S
C462   C499    1.330   .     S
C462   H530    1.088   .     S
C463   H473    1.084   .     S
C463   C468    1.397   .     A
C464   C467    1.397   .     A
C464   H474    1.084   .     S
C464   C580    1.370   .     S
C465   C467    1.397   .     A
C465   H475    1.084   .     S
C465   C577    1.370   .     S
C466   C468    1.397   .     A
C466   H476    1.084   .     S
C469   H493    1.082   .     S
C469   N480    1.366   .     A
C470   N479    1.366   .     A
C470   H494    1.082   .     S
C470   C814    1.417   .     S
C471   N479    1.366   .     A
C471   H477    1.082   .     S
C471   C811    1.417   .     S
C472   N480    1.366   .     A
C472   H478    1.082   .     S
N479   Zn489   2.010   .     S
N480   Zn490   2.010   .     S
O481   Zn489   2.002   .     S
O482   Zn490   2.002   .     S
O483   Zn490   2.002   .     S
O484   Zn489   2.002   .     S
O485   Zn489   1.970   .     S
O486   Zn490   1.970   .     S
O487   Zn490   1.982   .     S
O488   Zn489   1.982   .     S
H491   C499    1.088   .     S
H492   C538    1.088   1_455 S
C495   O519    1.283   .     A
C495   C506    1.421   .     S
C495   O521    1.284   .     A
C496   O522    1.284   .     A
C496   C505    1.421   .     S
C496   O520    1.283   .     A
C497   O525    1.280   .     A
C497   O523    1.277   .     A
C497   C499    1.403   .     S
C498   O526    1.280   .     A
C498   C500    1.403   .     S
C498   O524    1.277   .     A
C500   C537    1.330   .     S
C500   H568    1.088   .     S
C501   H511    1.084   .     S
C501   C506    1.397   .     A
C502   C505    1.397   .     A
C502   H512    1.084   .     S
C502   C618    1.370   .     S
C503   C505    1.397   .     A
C503   H513    1.084   .     S
C503   C615    1.370   .     S
C504   C506    1.397   .     A
C504   H514    1.084   .     S
C507   H531    1.082   .     S
C507   N518    1.366   .     A
C508   N517    1.366   .     A
C508   H532    1.082   .     S
C508   C852    1.417   .     S
C509   N517    1.366   .     A
C509   H515    1.082   .     S
C509   C849    1.417   .     S
C510   N518    1.366   .     A
C510   H516    1.082   .     S
N517   Zn527   2.010   .     S
N518   Zn528   2.010   .     S
O519   Zn527   2.002   .     S
O520   Zn528   2.002   .     S
O521   Zn528   2.002   .     S
O522   Zn527   2.002   .     S
O523   Zn527   1.970   .     S
O524   Zn528   1.970   .     S
O525   Zn528   1.982   .     S
O526   Zn527   1.982   .     S
H529   C537    1.088   .     S
C533   O557    1.283   .     A
C533   C544    1.421   .     S
C533   O559    1.284   .     A
C534   O560    1.284   .     A
C534   C543    1.421   .     S
C534   O558    1.283   .     A
C535   O563    1.280   .     A
C535   O561    1.277   .     A
C535   C537    1.403   .     S
C536   O564    1.280   .     A
C536   C538    1.403   .     S
C536   O562    1.277   .     A
C538   C461    1.330   1_655 S
C538   H492    1.088   1_655 S
C539   H549    1.084   .     S
C539   C544    1.397   .     A
C540   C543    1.397   .     A
C540   H550    1.084   .     S
C540   C656    1.370   .     S
C541   C543    1.397   .     A
C541   H551    1.084   .     S
C541   C653    1.370   .     S
C542   C544    1.397   .     A
C542   H552    1.084   .     S
C545   H569    1.082   .     S
C545   N556    1.366   .     A
C546   N555    1.366   .     A
C546   H570    1.082   .     S
C546   C890    1.417   .     S
C547   N555    1.366   .     A
C547   H553    1.082   .     S
C547   C887    1.417   .     S
C548   N556    1.366   .     A
C548   H554    1.082   .     S
N555   Zn565   2.010   .     S
N556   Zn566   2.010   .     S
O557   Zn565   2.002   .     S
O558   Zn566   2.002   .     S
O559   Zn566   2.002   .     S
O560   Zn565   2.002   .     S
O561   Zn565   1.970   .     S
O562   Zn566   1.970   .     S
O563   Zn566   1.982   .     S
O564   Zn565   1.982   .     S
H567   C461    1.088   1_655 S
C571   O595    1.283   .     A
C571   C582    1.421   .     S
C571   O597    1.284   .     A
C572   O598    1.284   .     A
C572   C581    1.421   .     S
C572   O596    1.283   .     A
C573   O601    1.280   .     A
C573   O599    1.277   .     A
C573   C575    1.403   .     S
C574   O602    1.280   .     A
C574   C576    1.403   .     S
C574   O600    1.277   .     A
C575   C652    1.330   1_455 S
C575   H681    1.088   1_455 S
C576   C613    1.330   .     S
C576   H644    1.088   .     S
C577   H587    1.084   .     S
C577   C582    1.397   .     A
C578   C581    1.397   .     A
C578   H588    1.084   .     S
C578   C352    1.370   1_565 S
C579   C581    1.397   .     A
C579   H589    1.084   .     S
C579   C349    1.370   1_565 S
C580   C582    1.397   .     A
C580   H590    1.084   .     S
C583   H607    1.082   .     S
C583   N594    1.366   .     A
C584   N593    1.366   .     A
C584   H608    1.082   .     S
C584   C928    1.417   .     S
C585   N593    1.366   .     A
C585   H591    1.082   .     S
C585   C925    1.417   .     S
C586   N594    1.366   .     A
C586   H592    1.082   .     S
N593   Zn603   2.010   .     S
N594   Zn604   2.010   .     S
O595   Zn603   2.002   .     S
O596   Zn604   2.002   .     S
O597   Zn604   2.002   .     S
O598   Zn603   2.002   .     S
O599   Zn603   1.970   .     S
O600   Zn604   1.970   .     S
O601   Zn604   1.982   .     S
O602   Zn603   1.982   .     S
H605   C613    1.088   .     S
H606   C652    1.088   1_455 S
C609   O633    1.283   .     A
C609   C620    1.421   .     S
C609   O635    1.284   .     A
C610   O636    1.284   .     A
C610   C619    1.421   .     S
C610   O634    1.283   .     A
C611   O639    1.280   .     A
C611   O637    1.277   .     A
C611   C613    1.403   .     S
C612   O640    1.280   .     A
C612   C614    1.403   .     S
C612   O638    1.277   .     A
C614   C651    1.330   .     S
C614   H682    1.088   .     S
C615   H625    1.084   .     S
C615   C620    1.397   .     A
C616   C619    1.397   .     A
C616   H626    1.084   .     S
C616   C390    1.370   1_565 S
C617   C619    1.397   .     A
C617   H627    1.084   .     S
C617   C387    1.370   1_565 S
C618   C620    1.397   .     A
C618   H628    1.084   .     S
C621   H645    1.082   .     S
C621   N632    1.366   .     A
C622   N631    1.366   .     A
C622   H646    1.082   .     S
C622   C966    1.417   .     S
C623   N631    1.366   .     A
C623   H629    1.082   .     S
C623   C963    1.417   .     S
C624   N632    1.366   .     A
C624   H630    1.082   .     S
N631   Zn641   2.010   .     S
N632   Zn642   2.010   .     S
O633   Zn641   2.002   .     S
O634   Zn642   2.002   .     S
O635   Zn642   2.002   .     S
O636   Zn641   2.002   .     S
O637   Zn641   1.970   .     S
O638   Zn642   1.970   .     S
O639   Zn642   1.982   .     S
O640   Zn641   1.982   .     S
H643   C651    1.088   .     S
C647   O671    1.283   .     A
C647   C658    1.421   .     S
C647   O673    1.284   .     A
C648   O674    1.284   .     A
C648   C657    1.421   .     S
C648   O672    1.283   .     A
C649   O677    1.280   .     A
C649   O675    1.277   .     A
C649   C651    1.403   .     S
C650   O678    1.280   .     A
C650   C652    1.403   .     S
C650   O676    1.277   .     A
C652   C575    1.330   1_655 S
C652   H606    1.088   1_655 S
C653   H663    1.084   .     S
C653   C658    1.397   .     A
C654   C657    1.397   .     A
C654   H664    1.084   .     S
C654   C428    1.370   1_565 S
C655   C657    1.397   .     A
C655   H665    1.084   .     S
C655   C425    1.370   1_565 S
C656   C658    1.397   .     A
C656   H666    1.084   .     S
C659   H683    1.082   .     S
C659   N670    1.366   .     A
C660   N669    1.366   .     A
C660   H684    1.082   .     S
C660   C1004   1.417   .     S
C661   N669    1.366   .     A
C661   H667    1.082   .     S
C661   C1001   1.417   .     S
C662   N670    1.366   .     A
C662   H668    1.082   .     S
N669   Zn679   2.010   .     S
N670   Zn680   2.010   .     S
O671   Zn679   2.002   .     S
O672   Zn680   2.002   .     S
O673   Zn680   2.002   .     S
O674   Zn679   2.002   .     S
O675   Zn679   1.970   .     S
O676   Zn680   1.970   .     S
O677   Zn680   1.982   .     S
O678   Zn679   1.982   .     S
H681   C575    1.088   1_655 S
C685   O709    1.283   .     A
C685   C696    1.421   .     S
C685   O711    1.284   .     A
C686   O712    1.284   .     A
C686   C695    1.421   .     S
C686   O710    1.283   .     A
C687   O715    1.280   .     A
C687   O713    1.277   .     A
C687   C689    1.403   .     S
C688   O716    1.280   .     A
C688   C690    1.403   .     S
C688   O714    1.277   .     A
C689   C766    1.330   1_455 S
C689   H795    1.088   1_455 S
C690   C727    1.330   .     S
C690   H758    1.088   .     S
C691   H701    1.084   .     S
C691   C696    1.397   .     A
C691   C921    1.370   1_545 S
C692   C695    1.397   .     A
C692   H702    1.084   .     S
C692   C808    1.370   .     S
C693   C695    1.397   .     A
C693   H703    1.084   .     S
C693   C805    1.370   .     S
C694   C696    1.397   .     A
C694   H704    1.084   .     S
C694   C920    1.370   1_545 S
C697   H721    1.082   .     S
C697   N708    1.366   .     A
C698   N707    1.366   .     A
C698   H722    1.082   .     S
C698   C16     1.417   1_556 S
C699   N707    1.366   .     A
C699   H705    1.082   .     S
C699   C13     1.417   1_556 S
C700   N708    1.366   .     A
C700   H706    1.082   .     S
N707   Zn717   2.010   .     S
N708   Zn718   2.010   .     S
O709   Zn717   2.002   .     S
O710   Zn718   2.002   .     S
O711   Zn718   2.002   .     S
O712   Zn717   2.002   .     S
O713   Zn717   1.970   .     S
O714   Zn718   1.970   .     S
O715   Zn718   1.982   .     S
O716   Zn717   1.982   .     S
H719   C727    1.088   .     S
H720   C766    1.088   1_455 S
C723   O747    1.283   .     A
C723   C734    1.421   .     S
C723   O749    1.284   .     A
C724   O750    1.284   .     A
C724   C733    1.421   .     S
C724   O748    1.283   .     A
C725   O753    1.280   .     A
C725   O751    1.277   .     A
C725   C727    1.403   .     S
C726   O754    1.280   .     A
C726   C728    1.403   .     S
C726   O752    1.277   .     A
C728   C765    1.330   .     S
C728   H796    1.088   .     S
C729   H739    1.084   .     S
C729   C734    1.397   .     A
C729   C959    1.370   1_545 S
C730   C733    1.397   .     A
C730   H740    1.084   .     S
C730   C846    1.370   .     S
C731   C733    1.397   .     A
C731   H741    1.084   .     S
C731   C843    1.370   .     S
C732   C734    1.397   .     A
C732   H742    1.084   .     S
C732   C958    1.370   1_545 S
C735   H759    1.082   .     S
C735   N746    1.366   .     A
C736   N745    1.366   .     A
C736   H760    1.082   .     S
C736   C54     1.417   1_556 S
C737   N745    1.366   .     A
C737   H743    1.082   .     S
C737   C51     1.417   1_556 S
C738   N746    1.366   .     A
C738   H744    1.082   .     S
N745   Zn755   2.010   .     S
N746   Zn756   2.010   .     S
O747   Zn755   2.002   .     S
O748   Zn756   2.002   .     S
O749   Zn756   2.002   .     S
O750   Zn755   2.002   .     S
O751   Zn755   1.970   .     S
O752   Zn756   1.970   .     S
O753   Zn756   1.982   .     S
O754   Zn755   1.982   .     S
H757   C765    1.088   .     S
C761   O785    1.283   .     A
C761   C772    1.421   .     S
C761   O787    1.284   .     A
C762   O788    1.284   .     A
C762   C771    1.421   .     S
C762   O786    1.283   .     A
C763   O791    1.280   .     A
C763   O789    1.277   .     A
C763   C765    1.403   .     S
C764   O792    1.280   .     A
C764   C766    1.403   .     S
C764   O790    1.277   .     A
C766   C689    1.330   1_655 S
C766   H720    1.088   1_655 S
C767   H777    1.084   .     S
C767   C772    1.397   .     A
C767   C997    1.370   1_545 S
C768   C771    1.397   .     A
C768   H778    1.084   .     S
C768   C884    1.370   .     S
C769   C771    1.397   .     A
C769   H779    1.084   .     S
C769   C881    1.370   .     S
C770   C772    1.397   .     A
C770   H780    1.084   .     S
C770   C996    1.370   1_545 S
C773   H797    1.082   .     S
C773   N784    1.366   .     A
C774   N783    1.366   .     A
C774   H798    1.082   .     S
C774   C92     1.417   1_556 S
C775   N783    1.366   .     A
C775   H781    1.082   .     S
C775   C89     1.417   1_556 S
C776   N784    1.366   .     A
C776   H782    1.082   .     S
N783   Zn793   2.010   .     S
N784   Zn794   2.010   .     S
O785   Zn793   2.002   .     S
O786   Zn794   2.002   .     S
O787   Zn794   2.002   .     S
O788   Zn793   2.002   .     S
O789   Zn793   1.970   .     S
O790   Zn794   1.970   .     S
O791   Zn794   1.982   .     S
O792   Zn793   1.982   .     S
H795   C689    1.088   1_655 S
C799   O823    1.283   .     A
C799   C810    1.421   .     S
C799   O825    1.284   .     A
C800   O826    1.284   .     A
C800   C809    1.421   .     S
C800   O824    1.283   .     A
C801   O829    1.280   .     A
C801   O827    1.277   .     A
C801   C803    1.403   .     S
C802   O830    1.280   .     A
C802   C804    1.403   .     S
C802   O828    1.277   .     A
C803   C880    1.330   1_455 S
C803   H909    1.088   1_455 S
C804   C841    1.330   .     S
C804   H872    1.088   .     S
C805   H815    1.084   .     S
C805   C810    1.397   .     A
C806   C809    1.397   .     A
C806   H816    1.084   .     S
C806   C922    1.370   .     S
C807   C809    1.397   .     A
C807   H817    1.084   .     S
C807   C919    1.370   .     S
C808   C810    1.397   .     A
C808   H818    1.084   .     S
C811   H835    1.082   .     S
C811   N822    1.366   .     A
C812   N821    1.366   .     A
C812   H836    1.082   .     S
C812   C130    1.417   1_556 S
C813   N821    1.366   .     A
C813   H819    1.082   .     S
C813   C127    1.417   1_556 S
C814   N822    1.366   .     A
C814   H820    1.082   .     S
N821   Zn831   2.010   .     S
N822   Zn832   2.010   .     S
O823   Zn831   2.002   .     S
O824   Zn832   2.002   .     S
O825   Zn832   2.002   .     S
O826   Zn831   2.002   .     S
O827   Zn831   1.970   .     S
O828   Zn832   1.970   .     S
O829   Zn832   1.982   .     S
O830   Zn831   1.982   .     S
H833   C841    1.088   .     S
H834   C880    1.088   1_455 S
C837   O861    1.283   .     A
C837   C848    1.421   .     S
C837   O863    1.284   .     A
C838   O864    1.284   .     A
C838   C847    1.421   .     S
C838   O862    1.283   .     A
C839   O867    1.280   .     A
C839   O865    1.277   .     A
C839   C841    1.403   .     S
C840   O868    1.280   .     A
C840   C842    1.403   .     S
C840   O866    1.277   .     A
C842   C879    1.330   .     S
C842   H910    1.088   .     S
C843   H853    1.084   .     S
C843   C848    1.397   .     A
C844   C847    1.397   .     A
C844   H854    1.084   .     S
C844   C960    1.370   .     S
C845   C847    1.397   .     A
C845   H855    1.084   .     S
C845   C957    1.370   .     S
C846   C848    1.397   .     A
C846   H856    1.084   .     S
C849   H873    1.082   .     S
C849   N860    1.366   .     A
C850   N859    1.366   .     A
C850   H874    1.082   .     S
C850   C168    1.417   1_556 S
C851   N859    1.366   .     A
C851   H857    1.082   .     S
C851   C165    1.417   1_556 S
C852   N860    1.366   .     A
C852   H858    1.082   .     S
N859   Zn869   2.010   .     S
N860   Zn870   2.010   .     S
O861   Zn869   2.002   .     S
O862   Zn870   2.002   .     S
O863   Zn870   2.002   .     S
O864   Zn869   2.002   .     S
O865   Zn869   1.970   .     S
O866   Zn870   1.970   .     S
O867   Zn870   1.982   .     S
O868   Zn869   1.982   .     S
H871   C879    1.088   .     S
C875   O899    1.283   .     A
C875   C886    1.421   .     S
C875   O901    1.284   .     A
C876   O902    1.284   .     A
C876   C885    1.421   .     S
C876   O900    1.283   .     A
C877   O905    1.280   .     A
C877   O903    1.277   .     A
C877   C879    1.403   .     S
C878   O906    1.280   .     A
C878   C880    1.403   .     S
C878   O904    1.277   .     A
C880   C803    1.330   1_655 S
C880   H834    1.088   1_655 S
C881   H891    1.084   .     S
C881   C886    1.397   .     A
C882   C885    1.397   .     A
C882   H892    1.084   .     S
C882   C998    1.370   .     S
C883   C885    1.397   .     A
C883   H893    1.084   .     S
C883   C995    1.370   .     S
C884   C886    1.397   .     A
C884   H894    1.084   .     S
C887   H911    1.082   .     S
C887   N898    1.366   .     A
C888   N897    1.366   .     A
C888   H912    1.082   .     S
C888   C206    1.417   1_556 S
C889   N897    1.366   .     A
C889   H895    1.082   .     S
C889   C203    1.417   1_556 S
C890   N898    1.366   .     A
C890   H896    1.082   .     S
N897   Zn907   2.010   .     S
N898   Zn908   2.010   .     S
O899   Zn907   2.002   .     S
O900   Zn908   2.002   .     S
O901   Zn908   2.002   .     S
O902   Zn907   2.002   .     S
O903   Zn907   1.970   .     S
O904   Zn908   1.970   .     S
O905   Zn908   1.982   .     S
O906   Zn907   1.982   .     S
H909   C803    1.088   1_655 S
C913   O937    1.283   .     A
C913   C924    1.421   .     S
C913   O939    1.284   .     A
C914   O940    1.284   .     A
C914   C923    1.421   .     S
C914   O938    1.283   .     A
C915   O943    1.280   .     A
C915   O941    1.277   .     A
C915   C917    1.403   .     S
C916   O944    1.280   .     A
C916   C918    1.403   .     S
C916   O942    1.277   .     A
C917   C994    1.330   1_455 S
C917   H1023   1.088   1_455 S
C918   C955    1.330   .     S
C918   H986    1.088   .     S
C919   H929    1.084   .     S
C919   C924    1.397   .     A
C920   C923    1.397   .     A
C920   H930    1.084   .     S
C920   C694    1.370   1_565 S
C921   C923    1.397   .     A
C921   H931    1.084   .     S
C921   C691    1.370   1_565 S
C922   C924    1.397   .     A
C922   H932    1.084   .     S
C925   H949    1.082   .     S
C925   N936    1.366   .     A
C926   N935    1.366   .     A
C926   H950    1.082   .     S
C926   C244    1.417   1_556 S
C927   N935    1.366   .     A
C927   H933    1.082   .     S
C927   C241    1.417   1_556 S
C928   N936    1.366   .     A
C928   H934    1.082   .     S
N935   Zn945   2.010   .     S
N936   Zn946   2.010   .     S
O937   Zn945   2.002   .     S
O938   Zn946   2.002   .     S
O939   Zn946   2.002   .     S
O940   Zn945   2.002   .     S
O941   Zn945   1.970   .     S
O942   Zn946   1.970   .     S
O943   Zn946   1.982   .     S
O944   Zn945   1.982   .     S
H947   C955    1.088   .     S
H948   C994    1.088   1_455 S
C951   O975    1.283   .     A
C951   C962    1.421   .     S
C951   O977    1.284   .     A
C952   O978    1.284   .     A
C952   C961    1.421   .     S
C952   O976    1.283   .     A
C953   O981    1.280   .     A
C953   O979    1.277   .     A
C953   C955    1.403   .     S
C954   O982    1.280   .     A
C954   C956    1.403   .     S
C954   O980    1.277   .     A
C956   C993    1.330   .     S
C956   H1024   1.088   .     S
C957   H967    1.084   .     S
C957   C962    1.397   .     A
C958   C961    1.397   .     A
C958   H968    1.084   .     S
C958   C732    1.370   1_565 S
C959   C961    1.397   .     A
C959   H969    1.084   .     S
C959   C729    1.370   1_565 S
C960   C962    1.397   .     A
C960   H970    1.084   .     S
C963   H987    1.082   .     S
C963   N974    1.366   .     A
C964   N973    1.366   .     A
C964   H988    1.082   .     S
C964   C282    1.417   1_556 S
C965   N973    1.366   .     A
C965   H971    1.082   .     S
C965   C279    1.417   1_556 S
C966   N974    1.366   .     A
C966   H972    1.082   .     S
N973   Zn983   2.010   .     S
N974   Zn984   2.010   .     S
O975   Zn983   2.002   .     S
O976   Zn984   2.002   .     S
O977   Zn984   2.002   .     S
O978   Zn983   2.002   .     S
O979   Zn983   1.970   .     S
O980   Zn984   1.970   .     S
O981   Zn984   1.982   .     S
O982   Zn983   1.982   .     S
H985   C993    1.088   .     S
C989   O1013   1.283   .     A
C989   C1000   1.421   .     S
C989   O1015   1.284   .     A
C990   O1016   1.284   .     A
C990   C999    1.421   .     S
C990   O1014   1.283   .     A
C991   O1019   1.280   .     A
C991   O1017   1.277   .     A
C991   C993    1.403   .     S
C992   O1020   1.280   .     A
C992   C994    1.403   .     S
C992   O1018   1.277   .     A
C994   C917    1.330   1_655 S
C994   H948    1.088   1_655 S
C995   H1005   1.084   .     S
C995   C1000   1.397   .     A
C996   C999    1.397   .     A
C996   H1006   1.084   .     S
C996   C770    1.370   1_565 S
C997   C999    1.397   .     A
C997   H1007   1.084   .     S
C997   C767    1.370   1_565 S
C998   C1000   1.397   .     A
C998   H1008   1.084   .     S
C1001  H1025   1.082   .     S
C1001  N1012   1.366   .     A
C1002  N1011   1.366   .     A
C1002  H1026   1.082   .     S
C1002  C320    1.417   1_556 S
C1003  N1011   1.366   .     A
C1003  H1009   1.082   .     S
C1003  C317    1.417   1_556 S
C1004  N1012   1.366   .     A
C1004  H1010   1.082   .     S
N1011  Zn1021  2.010   .     S
N1012  Zn1022  2.010   .     S
O1013  Zn1021  2.002   .     S
O1014  Zn1022  2.002   .     S
O1015  Zn1022  2.002   .     S
O1016  Zn1021  2.002   .     S
O1017  Zn1021  1.970   .     S
O1018  Zn1022  1.970   .     S
O1019  Zn1022  1.982   .     S
O1020  Zn1021  1.982   .     S
H1023  C917    1.088   1_655 S
