data_str_m2_o2_o10_pcu_sym.114
_audit_creation_date              2020-01-03
_audit_creation_method            'Materials Studio'
_symmetry_space_group_name_H-M    'P1'
_symmetry_Int_Tables_number       1
_symmetry_cell_setting            triclinic
loop_
_symmetry_equiv_pos_as_xyz
  x,y,z
_cell_length_a                    26.2013
_cell_length_b                    30.1793
_cell_length_c                    27.6574
_cell_angle_alpha                 90.2057
_cell_angle_beta                  97.9578
_cell_angle_gamma                 89.9729
loop_
_atom_site_label
_atom_site_type_symbol
_atom_site_fract_x
_atom_site_fract_y
_atom_site_fract_z
_atom_site_U_iso_or_equiv
_atom_site_adp_type
_atom_site_occupancy
C1     C     0.16621   0.16489   0.24983   0.00000  Uiso   1.00
C2     C     0.13005   0.27652   0.44136   0.00000  Uiso   1.00
C3     C     0.16575   0.24928   0.02715   0.00000  Uiso   1.00
C4     C     0.16572   0.25065   0.47261   0.00000  Uiso   1.00
C5     C     0.06786   0.25002   0.23753   0.00000  Uiso   1.00
C6     C     0.26547   0.25003   0.26247   0.00000  Uiso   1.00
C7     C     0.01261   0.25005   0.23063   0.00000  Uiso   1.00
C8     C     0.32072   0.25009   0.26938   0.00000  Uiso   1.00
C9     C     0.18230   0.04634   0.28866   0.00000  Uiso   1.00
C10    C     0.18254   0.45352   0.21526   0.00000  Uiso   1.00
C11    C     0.18533   0.09226   0.28952   0.00000  Uiso   1.00
C12    C     0.16623   0.33511   0.25005   0.00000  Uiso   1.00
C13    C     0.18575   0.40762   0.21547   0.00000  Uiso   1.00
C14    C     0.16341   0.11664   0.24903   0.00000  Uiso   1.00
C15    C     0.16340   0.38334   0.25000   0.00000  Uiso   1.00
C16    C     0.13761   0.09488   0.20790   0.00000  Uiso   1.00
C17    C     0.13689   0.40517   0.28375   0.00000  Uiso   1.00
C18    C     0.13282   0.04864   0.20707   0.00000  Uiso   1.00
C19    C     0.13150   0.45128   0.28277   0.00000  Uiso   1.00
C20    C     0.15591   0.02430   0.24797   0.00000  Uiso   1.00
C21    C     0.15543   0.47568   0.24840   0.00000  Uiso   1.00
C22    C     0.10257   0.02651   0.16428   0.00000  Uiso   1.00
C23    C     0.20121   0.27524   0.05786   0.00000  Uiso   1.00
C24    C     0.09952   0.47179   0.31721   0.00000  Uiso   1.00
C25    C     0.09217   0.19450   0.01904   0.00000  Uiso   1.00
C26    C     0.09137   0.30463   0.46134   0.00000  Uiso   1.00
C27    C     0.20152   0.22504   0.45123   0.00000  Uiso   1.00
C28    C     0.20096   0.27527   0.10871   0.00000  Uiso   1.00
C29    C     0.20127   0.22503   0.40031   0.00000  Uiso   1.00
C30    C     0.13205   0.22414   0.10056   0.00000  Uiso   1.00
C31    C     0.13170   0.27550   0.39033   0.00000  Uiso   1.00
C32    C     0.13043   0.22305   0.04910   0.00000  Uiso   1.00
Cu33   Cu    0.16667   0.24999   0.29821   0.00000  Uiso   1.00
Cu34   Cu    0.16667   0.25000   0.20178   0.00000  Uiso   1.00
H35    H     0.10549   0.20416   0.11785   0.00000  Uiso   1.00
H36    H     0.11879   0.38601   0.30981   0.00000  Uiso   1.00
H37    H     0.09458   0.49128   0.16479   0.00000  Uiso   1.00
H38    H     0.08912   0.45248   0.34742   0.00000  Uiso   1.00
H39    H     0.22874   0.29575   0.04245   0.00000  Uiso   1.00
H40    H     0.22933   0.20479   0.47388   0.00000  Uiso   1.00
H41    H     0.22833   0.29569   0.13173   0.00000  Uiso   1.00
H42    H     0.22888   0.20487   0.38449   0.00000  Uiso   1.00
H43    H     0.09108   0.19279   0.47973   0.00000  Uiso   1.00
H44    H     0.09029   0.30636   0.00036   0.00000  Uiso   1.00
H45    H     0.10489   0.29524   0.36607   0.00000  Uiso   1.00
H46    H     0.32595   0.25003   0.19345   0.00000  Uiso   1.00
H47    H     0.00739   0.25014   0.30655   0.00000  Uiso   1.00
H48    H     0.20049   0.02779   0.31985   0.00000  Uiso   1.00
H49    H     0.20137   0.47197   0.18920   0.00000  Uiso   1.00
H50    H     0.20552   0.10870   0.32146   0.00000  Uiso   1.00
H51    H     0.20648   0.39112   0.18928   0.00000  Uiso   1.00
H52    H     0.12000   0.11419   0.17705   0.00000  Uiso   1.00
N53    N     0.16667   0.25001   0.12934   0.00000  Uiso   1.00
N54    N     0.16667   0.24999   0.37065   0.00000  Uiso   1.00
O55    O     0.16667   0.18572   0.29071   0.00000  Uiso   1.00
O56    O     0.08295   0.00950   0.31165   0.00000  Uiso   1.00
O57    O     0.06125   0.17240   0.03784   0.00000  Uiso   1.00
O58    O     0.06006   0.32634   0.43439   0.00000  Uiso   1.00
O59    O     0.16666   0.31427   0.20928   0.00000  Uiso   1.00
O60    O     0.16667   0.18573   0.20928   0.00000  Uiso   1.00
O61    O     0.16666   0.31427   0.29072   0.00000  Uiso   1.00
O62    O     0.09161   0.24999   0.28132   0.00000  Uiso   1.00
O63    O     0.24172   0.25000   0.21868   0.00000  Uiso   1.00
O64    O     0.09161   0.25000   0.19988   0.00000  Uiso   1.00
O65    O     0.24172   0.25000   0.30011   0.00000  Uiso   1.00
O66    O     0.08579   0.04749   0.12784   0.00000  Uiso   1.00
C67    C     0.49955   0.16489   0.24983   0.00000  Uiso   1.00
C68    C     0.46338   0.27652   0.44136   0.00000  Uiso   1.00
C69    C     0.49908   0.24928   0.02715   0.00000  Uiso   1.00
C70    C     0.49906   0.25065   0.47261   0.00000  Uiso   1.00
C71    C     0.40119   0.25002   0.23753   0.00000  Uiso   1.00
C72    C     0.59881   0.25003   0.26247   0.00000  Uiso   1.00
C73    C     0.34595   0.25005   0.23063   0.00000  Uiso   1.00
C74    C     0.65406   0.25009   0.26938   0.00000  Uiso   1.00
C75    C     0.51563   0.04634   0.28866   0.00000  Uiso   1.00
C76    C     0.51587   0.45352   0.21526   0.00000  Uiso   1.00
C77    C     0.51867   0.09226   0.28952   0.00000  Uiso   1.00
C78    C     0.49957   0.33511   0.25005   0.00000  Uiso   1.00
C79    C     0.51908   0.40762   0.21547   0.00000  Uiso   1.00
C80    C     0.49675   0.11664   0.24903   0.00000  Uiso   1.00
C81    C     0.49674   0.38334   0.25000   0.00000  Uiso   1.00
C82    C     0.47094   0.09488   0.20790   0.00000  Uiso   1.00
C83    C     0.47022   0.40517   0.28375   0.00000  Uiso   1.00
C84    C     0.46615   0.04864   0.20707   0.00000  Uiso   1.00
C85    C     0.46483   0.45128   0.28277   0.00000  Uiso   1.00
C86    C     0.48925   0.02430   0.24797   0.00000  Uiso   1.00
C87    C     0.48877   0.47568   0.24840   0.00000  Uiso   1.00
C88    C     0.43591   0.02651   0.16428   0.00000  Uiso   1.00
C89    C     0.53454   0.27524   0.05786   0.00000  Uiso   1.00
C90    C     0.43286   0.47179   0.31721   0.00000  Uiso   1.00
C91    C     0.42551   0.19450   0.01904   0.00000  Uiso   1.00
C92    C     0.42470   0.30463   0.46134   0.00000  Uiso   1.00
C93    C     0.53486   0.22504   0.45123   0.00000  Uiso   1.00
C94    C     0.53429   0.27527   0.10871   0.00000  Uiso   1.00
C95    C     0.53460   0.22503   0.40031   0.00000  Uiso   1.00
C96    C     0.46538   0.22414   0.10056   0.00000  Uiso   1.00
C97    C     0.46503   0.27550   0.39033   0.00000  Uiso   1.00
C98    C     0.46376   0.22305   0.04910   0.00000  Uiso   1.00
Cu99   Cu    0.50000   0.24999   0.29821   0.00000  Uiso   1.00
Cu100  Cu    0.50000   0.25000   0.20178   0.00000  Uiso   1.00
H101   H     0.43883   0.20416   0.11785   0.00000  Uiso   1.00
H102   H     0.45212   0.38601   0.30981   0.00000  Uiso   1.00
H103   H     0.42792   0.49128   0.16479   0.00000  Uiso   1.00
H104   H     0.42245   0.45248   0.34742   0.00000  Uiso   1.00
H105   H     0.56208   0.29575   0.04245   0.00000  Uiso   1.00
H106   H     0.56266   0.20479   0.47388   0.00000  Uiso   1.00
H107   H     0.56166   0.29569   0.13173   0.00000  Uiso   1.00
H108   H     0.56221   0.20487   0.38449   0.00000  Uiso   1.00
H109   H     0.42442   0.19279   0.47973   0.00000  Uiso   1.00
H110   H     0.42362   0.30636   0.00036   0.00000  Uiso   1.00
H111   H     0.43822   0.29524   0.36607   0.00000  Uiso   1.00
H112   H     0.65929   0.25003   0.19345   0.00000  Uiso   1.00
H113   H     0.34072   0.25014   0.30655   0.00000  Uiso   1.00
H114   H     0.53382   0.02779   0.31985   0.00000  Uiso   1.00
H115   H     0.53470   0.47197   0.18920   0.00000  Uiso   1.00
H116   H     0.53885   0.10870   0.32146   0.00000  Uiso   1.00
H117   H     0.53982   0.39112   0.18928   0.00000  Uiso   1.00
H118   H     0.45334   0.11419   0.17705   0.00000  Uiso   1.00
N119   N     0.50000   0.25001   0.12934   0.00000  Uiso   1.00
N120   N     0.50000   0.24999   0.37065   0.00000  Uiso   1.00
O121   O     0.50000   0.18572   0.29071   0.00000  Uiso   1.00
O122   O     0.41628   0.00950   0.31165   0.00000  Uiso   1.00
O123   O     0.39458   0.17240   0.03784   0.00000  Uiso   1.00
O124   O     0.39339   0.32634   0.43439   0.00000  Uiso   1.00
O125   O     0.50000   0.31427   0.20928   0.00000  Uiso   1.00
O126   O     0.50000   0.18573   0.20928   0.00000  Uiso   1.00
O127   O     0.50000   0.31427   0.29072   0.00000  Uiso   1.00
O128   O     0.42495   0.24999   0.28132   0.00000  Uiso   1.00
O129   O     0.57505   0.25000   0.21868   0.00000  Uiso   1.00
O130   O     0.42495   0.25000   0.19988   0.00000  Uiso   1.00
O131   O     0.57505   0.25000   0.30011   0.00000  Uiso   1.00
O132   O     0.41912   0.04749   0.12784   0.00000  Uiso   1.00
C133   C     0.83288   0.16489   0.24983   0.00000  Uiso   1.00
C134   C     0.79671   0.27652   0.44136   0.00000  Uiso   1.00
C135   C     0.83241   0.24928   0.02715   0.00000  Uiso   1.00
C136   C     0.83239   0.25065   0.47261   0.00000  Uiso   1.00
C137   C     0.73453   0.25002   0.23753   0.00000  Uiso   1.00
C138   C     0.93214   0.25003   0.26247   0.00000  Uiso   1.00
C139   C     0.67928   0.25005   0.23063   0.00000  Uiso   1.00
C140   C     0.98739   0.25009   0.26938   0.00000  Uiso   1.00
C141   C     0.84897   0.04634   0.28866   0.00000  Uiso   1.00
C142   C     0.84921   0.45352   0.21526   0.00000  Uiso   1.00
C143   C     0.85200   0.09226   0.28952   0.00000  Uiso   1.00
C144   C     0.83290   0.33511   0.25005   0.00000  Uiso   1.00
C145   C     0.85241   0.40762   0.21547   0.00000  Uiso   1.00
C146   C     0.83008   0.11664   0.24903   0.00000  Uiso   1.00
C147   C     0.83007   0.38334   0.25000   0.00000  Uiso   1.00
C148   C     0.80428   0.09488   0.20790   0.00000  Uiso   1.00
C149   C     0.80356   0.40517   0.28375   0.00000  Uiso   1.00
C150   C     0.79948   0.04864   0.20707   0.00000  Uiso   1.00
C151   C     0.79817   0.45128   0.28277   0.00000  Uiso   1.00
C152   C     0.82258   0.02430   0.24797   0.00000  Uiso   1.00
C153   C     0.82210   0.47568   0.24840   0.00000  Uiso   1.00
C154   C     0.76924   0.02651   0.16428   0.00000  Uiso   1.00
C155   C     0.86787   0.27524   0.05786   0.00000  Uiso   1.00
C156   C     0.76619   0.47179   0.31721   0.00000  Uiso   1.00
C157   C     0.75884   0.19450   0.01904   0.00000  Uiso   1.00
C158   C     0.75803   0.30463   0.46134   0.00000  Uiso   1.00
C159   C     0.86819   0.22504   0.45123   0.00000  Uiso   1.00
C160   C     0.86763   0.27527   0.10871   0.00000  Uiso   1.00
C161   C     0.86793   0.22503   0.40031   0.00000  Uiso   1.00
C162   C     0.79872   0.22414   0.10056   0.00000  Uiso   1.00
C163   C     0.79837   0.27550   0.39033   0.00000  Uiso   1.00
C164   C     0.79710   0.22305   0.04910   0.00000  Uiso   1.00
Cu165  Cu    0.83333   0.24999   0.29821   0.00000  Uiso   1.00
Cu166  Cu    0.83333   0.25000   0.20178   0.00000  Uiso   1.00
H167   H     0.77216   0.20416   0.11785   0.00000  Uiso   1.00
H168   H     0.78545   0.38601   0.30981   0.00000  Uiso   1.00
H169   H     0.76125   0.49128   0.16479   0.00000  Uiso   1.00
H170   H     0.75579   0.45248   0.34742   0.00000  Uiso   1.00
H171   H     0.89541   0.29575   0.04245   0.00000  Uiso   1.00
H172   H     0.89600   0.20479   0.47388   0.00000  Uiso   1.00
H173   H     0.89499   0.29569   0.13173   0.00000  Uiso   1.00
H174   H     0.89554   0.20487   0.38449   0.00000  Uiso   1.00
H175   H     0.75775   0.19279   0.47973   0.00000  Uiso   1.00
H176   H     0.75696   0.30636   0.00036   0.00000  Uiso   1.00
H177   H     0.77155   0.29524   0.36607   0.00000  Uiso   1.00
H178   H     0.99262   0.25003   0.19345   0.00000  Uiso   1.00
H179   H     0.67405   0.25014   0.30655   0.00000  Uiso   1.00
H180   H     0.86716   0.02779   0.31985   0.00000  Uiso   1.00
H181   H     0.86804   0.47197   0.18920   0.00000  Uiso   1.00
H182   H     0.87219   0.10870   0.32146   0.00000  Uiso   1.00
H183   H     0.87315   0.39112   0.18928   0.00000  Uiso   1.00
H184   H     0.78667   0.11419   0.17705   0.00000  Uiso   1.00
N185   N     0.83333   0.25001   0.12934   0.00000  Uiso   1.00
N186   N     0.83333   0.24999   0.37065   0.00000  Uiso   1.00
O187   O     0.83334   0.18572   0.29071   0.00000  Uiso   1.00
O188   O     0.74962   0.00950   0.31165   0.00000  Uiso   1.00
O189   O     0.72792   0.17240   0.03784   0.00000  Uiso   1.00
O190   O     0.72673   0.32634   0.43439   0.00000  Uiso   1.00
O191   O     0.83333   0.31427   0.20928   0.00000  Uiso   1.00
O192   O     0.83334   0.18573   0.20928   0.00000  Uiso   1.00
O193   O     0.83333   0.31427   0.29072   0.00000  Uiso   1.00
O194   O     0.75828   0.24999   0.28132   0.00000  Uiso   1.00
O195   O     0.90839   0.25000   0.21868   0.00000  Uiso   1.00
O196   O     0.75828   0.25000   0.19988   0.00000  Uiso   1.00
O197   O     0.90839   0.25000   0.30011   0.00000  Uiso   1.00
O198   O     0.75245   0.04749   0.12784   0.00000  Uiso   1.00
C199   C     0.16621   0.66489   0.24983   0.00000  Uiso   1.00
C200   C     0.13005   0.77652   0.44136   0.00000  Uiso   1.00
C201   C     0.16575   0.74928   0.02715   0.00000  Uiso   1.00
C202   C     0.16572   0.75065   0.47261   0.00000  Uiso   1.00
C203   C     0.06786   0.75002   0.23753   0.00000  Uiso   1.00
C204   C     0.26547   0.75003   0.26247   0.00000  Uiso   1.00
C205   C     0.01261   0.75005   0.23063   0.00000  Uiso   1.00
C206   C     0.32072   0.75009   0.26938   0.00000  Uiso   1.00
C207   C     0.18230   0.54634   0.28866   0.00000  Uiso   1.00
C208   C     0.18254   0.95352   0.21526   0.00000  Uiso   1.00
C209   C     0.18533   0.59226   0.28952   0.00000  Uiso   1.00
C210   C     0.16623   0.83511   0.25005   0.00000  Uiso   1.00
C211   C     0.18575   0.90762   0.21547   0.00000  Uiso   1.00
C212   C     0.16341   0.61664   0.24903   0.00000  Uiso   1.00
C213   C     0.16340   0.88334   0.25000   0.00000  Uiso   1.00
C214   C     0.13761   0.59488   0.20790   0.00000  Uiso   1.00
C215   C     0.13689   0.90517   0.28375   0.00000  Uiso   1.00
C216   C     0.13282   0.54864   0.20707   0.00000  Uiso   1.00
C217   C     0.13150   0.95128   0.28277   0.00000  Uiso   1.00
C218   C     0.15591   0.52430   0.24797   0.00000  Uiso   1.00
C219   C     0.15543   0.97568   0.24840   0.00000  Uiso   1.00
C220   C     0.10257   0.52651   0.16428   0.00000  Uiso   1.00
C221   C     0.20121   0.77524   0.05786   0.00000  Uiso   1.00
C222   C     0.09952   0.97179   0.31721   0.00000  Uiso   1.00
C223   C     0.09217   0.69450   0.01904   0.00000  Uiso   1.00
C224   C     0.09137   0.80463   0.46134   0.00000  Uiso   1.00
C225   C     0.20152   0.72504   0.45123   0.00000  Uiso   1.00
C226   C     0.20096   0.77527   0.10871   0.00000  Uiso   1.00
C227   C     0.20127   0.72503   0.40031   0.00000  Uiso   1.00
C228   C     0.13205   0.72414   0.10056   0.00000  Uiso   1.00
C229   C     0.13170   0.77550   0.39033   0.00000  Uiso   1.00
C230   C     0.13043   0.72305   0.04910   0.00000  Uiso   1.00
Cu231  Cu    0.16667   0.74999   0.29821   0.00000  Uiso   1.00
Cu232  Cu    0.16667   0.75000   0.20178   0.00000  Uiso   1.00
H233   H     0.10549   0.70416   0.11785   0.00000  Uiso   1.00
H234   H     0.11879   0.88601   0.30981   0.00000  Uiso   1.00
H235   H     0.09458   0.99128   0.16479   0.00000  Uiso   1.00
H236   H     0.08912   0.95248   0.34742   0.00000  Uiso   1.00
H237   H     0.22874   0.79575   0.04245   0.00000  Uiso   1.00
H238   H     0.22933   0.70479   0.47388   0.00000  Uiso   1.00
H239   H     0.22833   0.79569   0.13173   0.00000  Uiso   1.00
H240   H     0.22888   0.70487   0.38449   0.00000  Uiso   1.00
H241   H     0.09108   0.69279   0.47973   0.00000  Uiso   1.00
H242   H     0.09029   0.80636   0.00036   0.00000  Uiso   1.00
H243   H     0.10489   0.79524   0.36607   0.00000  Uiso   1.00
H244   H     0.32595   0.75003   0.19345   0.00000  Uiso   1.00
H245   H     0.00739   0.75014   0.30655   0.00000  Uiso   1.00
H246   H     0.20049   0.52779   0.31985   0.00000  Uiso   1.00
H247   H     0.20137   0.97197   0.18920   0.00000  Uiso   1.00
H248   H     0.20552   0.60870   0.32146   0.00000  Uiso   1.00
H249   H     0.20648   0.89112   0.18928   0.00000  Uiso   1.00
H250   H     0.12000   0.61419   0.17705   0.00000  Uiso   1.00
N251   N     0.16667   0.75001   0.12934   0.00000  Uiso   1.00
N252   N     0.16667   0.74999   0.37065   0.00000  Uiso   1.00
O253   O     0.16667   0.68572   0.29071   0.00000  Uiso   1.00
O254   O     0.08295   0.50950   0.31165   0.00000  Uiso   1.00
O255   O     0.06125   0.67240   0.03784   0.00000  Uiso   1.00
O256   O     0.06006   0.82634   0.43439   0.00000  Uiso   1.00
O257   O     0.16666   0.81427   0.20928   0.00000  Uiso   1.00
O258   O     0.16667   0.68573   0.20928   0.00000  Uiso   1.00
O259   O     0.16666   0.81427   0.29072   0.00000  Uiso   1.00
O260   O     0.09161   0.74999   0.28132   0.00000  Uiso   1.00
O261   O     0.24172   0.75000   0.21868   0.00000  Uiso   1.00
O262   O     0.09161   0.75000   0.19988   0.00000  Uiso   1.00
O263   O     0.24172   0.75000   0.30011   0.00000  Uiso   1.00
O264   O     0.08579   0.54749   0.12784   0.00000  Uiso   1.00
C265   C     0.49955   0.66489   0.24983   0.00000  Uiso   1.00
C266   C     0.46338   0.77652   0.44136   0.00000  Uiso   1.00
C267   C     0.49908   0.74928   0.02715   0.00000  Uiso   1.00
C268   C     0.49906   0.75065   0.47261   0.00000  Uiso   1.00
C269   C     0.40119   0.75002   0.23753   0.00000  Uiso   1.00
C270   C     0.59881   0.75003   0.26247   0.00000  Uiso   1.00
C271   C     0.34595   0.75005   0.23063   0.00000  Uiso   1.00
C272   C     0.65406   0.75009   0.26938   0.00000  Uiso   1.00
C273   C     0.51563   0.54634   0.28866   0.00000  Uiso   1.00
C274   C     0.51587   0.95352   0.21526   0.00000  Uiso   1.00
C275   C     0.51867   0.59226   0.28952   0.00000  Uiso   1.00
C276   C     0.49957   0.83511   0.25005   0.00000  Uiso   1.00
C277   C     0.51908   0.90762   0.21547   0.00000  Uiso   1.00
C278   C     0.49675   0.61664   0.24903   0.00000  Uiso   1.00
C279   C     0.49674   0.88334   0.25000   0.00000  Uiso   1.00
C280   C     0.47094   0.59488   0.20790   0.00000  Uiso   1.00
C281   C     0.47022   0.90517   0.28375   0.00000  Uiso   1.00
C282   C     0.46615   0.54864   0.20707   0.00000  Uiso   1.00
C283   C     0.46483   0.95128   0.28277   0.00000  Uiso   1.00
C284   C     0.48925   0.52430   0.24797   0.00000  Uiso   1.00
C285   C     0.48877   0.97568   0.24840   0.00000  Uiso   1.00
C286   C     0.43591   0.52651   0.16428   0.00000  Uiso   1.00
C287   C     0.53454   0.77524   0.05786   0.00000  Uiso   1.00
C288   C     0.43286   0.97179   0.31721   0.00000  Uiso   1.00
C289   C     0.42551   0.69450   0.01904   0.00000  Uiso   1.00
C290   C     0.42470   0.80463   0.46134   0.00000  Uiso   1.00
C291   C     0.53486   0.72504   0.45123   0.00000  Uiso   1.00
C292   C     0.53429   0.77527   0.10871   0.00000  Uiso   1.00
C293   C     0.53460   0.72503   0.40031   0.00000  Uiso   1.00
C294   C     0.46538   0.72414   0.10056   0.00000  Uiso   1.00
C295   C     0.46503   0.77550   0.39033   0.00000  Uiso   1.00
C296   C     0.46376   0.72305   0.04910   0.00000  Uiso   1.00
Cu297  Cu    0.50000   0.74999   0.29821   0.00000  Uiso   1.00
Cu298  Cu    0.50000   0.75000   0.20178   0.00000  Uiso   1.00
H299   H     0.43883   0.70416   0.11785   0.00000  Uiso   1.00
H300   H     0.45212   0.88601   0.30981   0.00000  Uiso   1.00
H301   H     0.42792   0.99128   0.16479   0.00000  Uiso   1.00
H302   H     0.42245   0.95248   0.34742   0.00000  Uiso   1.00
H303   H     0.56208   0.79575   0.04245   0.00000  Uiso   1.00
H304   H     0.56266   0.70479   0.47388   0.00000  Uiso   1.00
H305   H     0.56166   0.79569   0.13173   0.00000  Uiso   1.00
H306   H     0.56221   0.70487   0.38449   0.00000  Uiso   1.00
H307   H     0.42442   0.69279   0.47973   0.00000  Uiso   1.00
H308   H     0.42362   0.80636   0.00036   0.00000  Uiso   1.00
H309   H     0.43822   0.79524   0.36607   0.00000  Uiso   1.00
H310   H     0.65929   0.75003   0.19345   0.00000  Uiso   1.00
H311   H     0.34072   0.75014   0.30655   0.00000  Uiso   1.00
H312   H     0.53382   0.52779   0.31985   0.00000  Uiso   1.00
H313   H     0.53470   0.97197   0.18920   0.00000  Uiso   1.00
H314   H     0.53885   0.60870   0.32146   0.00000  Uiso   1.00
H315   H     0.53982   0.89112   0.18928   0.00000  Uiso   1.00
H316   H     0.45334   0.61419   0.17705   0.00000  Uiso   1.00
N317   N     0.50000   0.75001   0.12934   0.00000  Uiso   1.00
N318   N     0.50000   0.74999   0.37065   0.00000  Uiso   1.00
O319   O     0.50000   0.68572   0.29071   0.00000  Uiso   1.00
O320   O     0.41628   0.50950   0.31165   0.00000  Uiso   1.00
O321   O     0.39458   0.67240   0.03784   0.00000  Uiso   1.00
O322   O     0.39339   0.82634   0.43439   0.00000  Uiso   1.00
O323   O     0.50000   0.81427   0.20928   0.00000  Uiso   1.00
O324   O     0.50000   0.68573   0.20928   0.00000  Uiso   1.00
O325   O     0.50000   0.81427   0.29072   0.00000  Uiso   1.00
O326   O     0.42495   0.74999   0.28132   0.00000  Uiso   1.00
O327   O     0.57505   0.75000   0.21868   0.00000  Uiso   1.00
O328   O     0.42495   0.75000   0.19988   0.00000  Uiso   1.00
O329   O     0.57505   0.75000   0.30011   0.00000  Uiso   1.00
O330   O     0.41912   0.54749   0.12784   0.00000  Uiso   1.00
C331   C     0.83288   0.66489   0.24983   0.00000  Uiso   1.00
C332   C     0.79671   0.77652   0.44136   0.00000  Uiso   1.00
C333   C     0.83241   0.74928   0.02715   0.00000  Uiso   1.00
C334   C     0.83239   0.75065   0.47261   0.00000  Uiso   1.00
C335   C     0.73453   0.75002   0.23753   0.00000  Uiso   1.00
C336   C     0.93214   0.75003   0.26247   0.00000  Uiso   1.00
C337   C     0.67928   0.75005   0.23063   0.00000  Uiso   1.00
C338   C     0.98739   0.75009   0.26938   0.00000  Uiso   1.00
C339   C     0.84897   0.54634   0.28866   0.00000  Uiso   1.00
C340   C     0.84921   0.95352   0.21526   0.00000  Uiso   1.00
C341   C     0.85200   0.59226   0.28952   0.00000  Uiso   1.00
C342   C     0.83290   0.83511   0.25005   0.00000  Uiso   1.00
C343   C     0.85241   0.90762   0.21547   0.00000  Uiso   1.00
C344   C     0.83008   0.61664   0.24903   0.00000  Uiso   1.00
C345   C     0.83007   0.88334   0.25000   0.00000  Uiso   1.00
C346   C     0.80428   0.59488   0.20790   0.00000  Uiso   1.00
C347   C     0.80356   0.90517   0.28375   0.00000  Uiso   1.00
C348   C     0.79948   0.54864   0.20707   0.00000  Uiso   1.00
C349   C     0.79817   0.95128   0.28277   0.00000  Uiso   1.00
C350   C     0.82258   0.52430   0.24797   0.00000  Uiso   1.00
C351   C     0.82210   0.97568   0.24840   0.00000  Uiso   1.00
C352   C     0.76924   0.52651   0.16428   0.00000  Uiso   1.00
C353   C     0.86787   0.77524   0.05786   0.00000  Uiso   1.00
C354   C     0.76619   0.97179   0.31721   0.00000  Uiso   1.00
C355   C     0.75884   0.69450   0.01904   0.00000  Uiso   1.00
C356   C     0.75803   0.80463   0.46134   0.00000  Uiso   1.00
C357   C     0.86819   0.72504   0.45123   0.00000  Uiso   1.00
C358   C     0.86763   0.77527   0.10871   0.00000  Uiso   1.00
C359   C     0.86793   0.72503   0.40031   0.00000  Uiso   1.00
C360   C     0.79872   0.72414   0.10056   0.00000  Uiso   1.00
C361   C     0.79837   0.77550   0.39033   0.00000  Uiso   1.00
C362   C     0.79710   0.72305   0.04910   0.00000  Uiso   1.00
Cu363  Cu    0.83333   0.74999   0.29821   0.00000  Uiso   1.00
Cu364  Cu    0.83333   0.75000   0.20178   0.00000  Uiso   1.00
H365   H     0.77216   0.70416   0.11785   0.00000  Uiso   1.00
H366   H     0.78545   0.88601   0.30981   0.00000  Uiso   1.00
H367   H     0.76125   0.99128   0.16479   0.00000  Uiso   1.00
H368   H     0.75579   0.95248   0.34742   0.00000  Uiso   1.00
H369   H     0.89541   0.79575   0.04245   0.00000  Uiso   1.00
H370   H     0.89600   0.70479   0.47388   0.00000  Uiso   1.00
H371   H     0.89499   0.79569   0.13173   0.00000  Uiso   1.00
H372   H     0.89554   0.70487   0.38449   0.00000  Uiso   1.00
H373   H     0.75775   0.69279   0.47973   0.00000  Uiso   1.00
H374   H     0.75696   0.80636   0.00036   0.00000  Uiso   1.00
H375   H     0.77155   0.79524   0.36607   0.00000  Uiso   1.00
H376   H     0.99262   0.75003   0.19345   0.00000  Uiso   1.00
H377   H     0.67405   0.75014   0.30655   0.00000  Uiso   1.00
H378   H     0.86716   0.52779   0.31985   0.00000  Uiso   1.00
H379   H     0.86804   0.97197   0.18920   0.00000  Uiso   1.00
H380   H     0.87219   0.60870   0.32146   0.00000  Uiso   1.00
H381   H     0.87315   0.89112   0.18928   0.00000  Uiso   1.00
H382   H     0.78667   0.61419   0.17705   0.00000  Uiso   1.00
N383   N     0.83333   0.75001   0.12934   0.00000  Uiso   1.00
N384   N     0.83333   0.74999   0.37065   0.00000  Uiso   1.00
O385   O     0.83334   0.68572   0.29071   0.00000  Uiso   1.00
O386   O     0.74962   0.50950   0.31165   0.00000  Uiso   1.00
O387   O     0.72792   0.67240   0.03784   0.00000  Uiso   1.00
O388   O     0.72673   0.82634   0.43439   0.00000  Uiso   1.00
O389   O     0.83333   0.81427   0.20928   0.00000  Uiso   1.00
O390   O     0.83334   0.68573   0.20928   0.00000  Uiso   1.00
O391   O     0.83333   0.81427   0.29072   0.00000  Uiso   1.00
O392   O     0.75828   0.74999   0.28132   0.00000  Uiso   1.00
O393   O     0.90839   0.75000   0.21868   0.00000  Uiso   1.00
O394   O     0.75828   0.75000   0.19988   0.00000  Uiso   1.00
O395   O     0.90839   0.75000   0.30011   0.00000  Uiso   1.00
O396   O     0.75245   0.54749   0.12784   0.00000  Uiso   1.00
C397   C     0.16621   0.16489   0.74983   0.00000  Uiso   1.00
C398   C     0.13005   0.27652   0.94136   0.00000  Uiso   1.00
C399   C     0.16575   0.24928   0.52715   0.00000  Uiso   1.00
C400   C     0.16572   0.25065   0.97261   0.00000  Uiso   1.00
C401   C     0.06786   0.25002   0.73753   0.00000  Uiso   1.00
C402   C     0.26547   0.25003   0.76247   0.00000  Uiso   1.00
C403   C     0.01261   0.25005   0.73063   0.00000  Uiso   1.00
C404   C     0.32072   0.25009   0.76938   0.00000  Uiso   1.00
C405   C     0.18230   0.04634   0.78866   0.00000  Uiso   1.00
C406   C     0.18254   0.45352   0.71526   0.00000  Uiso   1.00
C407   C     0.18533   0.09226   0.78952   0.00000  Uiso   1.00
C408   C     0.16623   0.33511   0.75005   0.00000  Uiso   1.00
C409   C     0.18575   0.40762   0.71547   0.00000  Uiso   1.00
C410   C     0.16341   0.11664   0.74903   0.00000  Uiso   1.00
C411   C     0.16340   0.38334   0.75000   0.00000  Uiso   1.00
C412   C     0.13761   0.09488   0.70790   0.00000  Uiso   1.00
C413   C     0.13689   0.40517   0.78375   0.00000  Uiso   1.00
C414   C     0.13282   0.04864   0.70707   0.00000  Uiso   1.00
C415   C     0.13150   0.45128   0.78277   0.00000  Uiso   1.00
C416   C     0.15591   0.02430   0.74797   0.00000  Uiso   1.00
C417   C     0.15543   0.47568   0.74840   0.00000  Uiso   1.00
C418   C     0.10257   0.02651   0.66428   0.00000  Uiso   1.00
C419   C     0.20121   0.27524   0.55786   0.00000  Uiso   1.00
C420   C     0.09952   0.47179   0.81721   0.00000  Uiso   1.00
C421   C     0.09217   0.19450   0.51904   0.00000  Uiso   1.00
C422   C     0.09137   0.30463   0.96134   0.00000  Uiso   1.00
C423   C     0.20152   0.22504   0.95123   0.00000  Uiso   1.00
C424   C     0.20096   0.27527   0.60871   0.00000  Uiso   1.00
C425   C     0.20127   0.22503   0.90031   0.00000  Uiso   1.00
C426   C     0.13205   0.22414   0.60056   0.00000  Uiso   1.00
C427   C     0.13170   0.27550   0.89033   0.00000  Uiso   1.00
C428   C     0.13043   0.22305   0.54910   0.00000  Uiso   1.00
Cu429  Cu    0.16667   0.24999   0.79821   0.00000  Uiso   1.00
Cu430  Cu    0.16667   0.25000   0.70178   0.00000  Uiso   1.00
H431   H     0.10549   0.20416   0.61785   0.00000  Uiso   1.00
H432   H     0.11879   0.38601   0.80981   0.00000  Uiso   1.00
H433   H     0.09458   0.49128   0.66479   0.00000  Uiso   1.00
H434   H     0.08912   0.45248   0.84742   0.00000  Uiso   1.00
H435   H     0.22874   0.29575   0.54245   0.00000  Uiso   1.00
H436   H     0.22933   0.20479   0.97388   0.00000  Uiso   1.00
H437   H     0.22833   0.29569   0.63173   0.00000  Uiso   1.00
H438   H     0.22888   0.20487   0.88449   0.00000  Uiso   1.00
H439   H     0.09108   0.19279   0.97973   0.00000  Uiso   1.00
H440   H     0.09029   0.30636   0.50036   0.00000  Uiso   1.00
H441   H     0.10489   0.29524   0.86607   0.00000  Uiso   1.00
H442   H     0.32595   0.25003   0.69345   0.00000  Uiso   1.00
H443   H     0.00739   0.25014   0.80655   0.00000  Uiso   1.00
H444   H     0.20049   0.02779   0.81985   0.00000  Uiso   1.00
H445   H     0.20137   0.47197   0.68920   0.00000  Uiso   1.00
H446   H     0.20552   0.10870   0.82146   0.00000  Uiso   1.00
H447   H     0.20648   0.39112   0.68928   0.00000  Uiso   1.00
H448   H     0.12000   0.11419   0.67705   0.00000  Uiso   1.00
N449   N     0.16667   0.25001   0.62934   0.00000  Uiso   1.00
N450   N     0.16667   0.24999   0.87065   0.00000  Uiso   1.00
O451   O     0.16667   0.18572   0.79071   0.00000  Uiso   1.00
O452   O     0.08295   0.00950   0.81165   0.00000  Uiso   1.00
O453   O     0.06125   0.17240   0.53784   0.00000  Uiso   1.00
O454   O     0.06006   0.32634   0.93439   0.00000  Uiso   1.00
O455   O     0.16666   0.31427   0.70928   0.00000  Uiso   1.00
O456   O     0.16667   0.18573   0.70928   0.00000  Uiso   1.00
O457   O     0.16666   0.31427   0.79072   0.00000  Uiso   1.00
O458   O     0.09161   0.24999   0.78132   0.00000  Uiso   1.00
O459   O     0.24172   0.25000   0.71868   0.00000  Uiso   1.00
O460   O     0.09161   0.25000   0.69988   0.00000  Uiso   1.00
O461   O     0.24172   0.25000   0.80011   0.00000  Uiso   1.00
O462   O     0.08579   0.04749   0.62784   0.00000  Uiso   1.00
C463   C     0.49955   0.16489   0.74983   0.00000  Uiso   1.00
C464   C     0.46338   0.27652   0.94136   0.00000  Uiso   1.00
C465   C     0.49908   0.24928   0.52715   0.00000  Uiso   1.00
C466   C     0.49906   0.25065   0.97261   0.00000  Uiso   1.00
C467   C     0.40119   0.25002   0.73753   0.00000  Uiso   1.00
C468   C     0.59881   0.25003   0.76247   0.00000  Uiso   1.00
C469   C     0.34595   0.25005   0.73063   0.00000  Uiso   1.00
C470   C     0.65406   0.25009   0.76938   0.00000  Uiso   1.00
C471   C     0.51563   0.04634   0.78866   0.00000  Uiso   1.00
C472   C     0.51587   0.45352   0.71526   0.00000  Uiso   1.00
C473   C     0.51867   0.09226   0.78952   0.00000  Uiso   1.00
C474   C     0.49957   0.33511   0.75005   0.00000  Uiso   1.00
C475   C     0.51908   0.40762   0.71547   0.00000  Uiso   1.00
C476   C     0.49675   0.11664   0.74903   0.00000  Uiso   1.00
C477   C     0.49674   0.38334   0.75000   0.00000  Uiso   1.00
C478   C     0.47094   0.09488   0.70790   0.00000  Uiso   1.00
C479   C     0.47022   0.40517   0.78375   0.00000  Uiso   1.00
C480   C     0.46615   0.04864   0.70707   0.00000  Uiso   1.00
C481   C     0.46483   0.45128   0.78277   0.00000  Uiso   1.00
C482   C     0.48925   0.02430   0.74797   0.00000  Uiso   1.00
C483   C     0.48877   0.47568   0.74840   0.00000  Uiso   1.00
C484   C     0.43591   0.02651   0.66428   0.00000  Uiso   1.00
C485   C     0.53454   0.27524   0.55786   0.00000  Uiso   1.00
C486   C     0.43286   0.47179   0.81721   0.00000  Uiso   1.00
C487   C     0.42551   0.19450   0.51904   0.00000  Uiso   1.00
C488   C     0.42470   0.30463   0.96134   0.00000  Uiso   1.00
C489   C     0.53486   0.22504   0.95123   0.00000  Uiso   1.00
C490   C     0.53429   0.27527   0.60871   0.00000  Uiso   1.00
C491   C     0.53460   0.22503   0.90031   0.00000  Uiso   1.00
C492   C     0.46538   0.22414   0.60056   0.00000  Uiso   1.00
C493   C     0.46503   0.27550   0.89033   0.00000  Uiso   1.00
C494   C     0.46376   0.22305   0.54910   0.00000  Uiso   1.00
Cu495  Cu    0.50000   0.24999   0.79821   0.00000  Uiso   1.00
Cu496  Cu    0.50000   0.25000   0.70178   0.00000  Uiso   1.00
H497   H     0.43883   0.20416   0.61785   0.00000  Uiso   1.00
H498   H     0.45212   0.38601   0.80981   0.00000  Uiso   1.00
H499   H     0.42792   0.49128   0.66479   0.00000  Uiso   1.00
H500   H     0.42245   0.45248   0.84742   0.00000  Uiso   1.00
H501   H     0.56208   0.29575   0.54245   0.00000  Uiso   1.00
H502   H     0.56266   0.20479   0.97388   0.00000  Uiso   1.00
H503   H     0.56166   0.29569   0.63173   0.00000  Uiso   1.00
H504   H     0.56221   0.20487   0.88449   0.00000  Uiso   1.00
H505   H     0.42442   0.19279   0.97973   0.00000  Uiso   1.00
H506   H     0.42362   0.30636   0.50036   0.00000  Uiso   1.00
H507   H     0.43822   0.29524   0.86607   0.00000  Uiso   1.00
H508   H     0.65929   0.25003   0.69345   0.00000  Uiso   1.00
H509   H     0.34072   0.25014   0.80655   0.00000  Uiso   1.00
H510   H     0.53382   0.02779   0.81985   0.00000  Uiso   1.00
H511   H     0.53470   0.47197   0.68920   0.00000  Uiso   1.00
H512   H     0.53885   0.10870   0.82146   0.00000  Uiso   1.00
H513   H     0.53982   0.39112   0.68928   0.00000  Uiso   1.00
H514   H     0.45334   0.11419   0.67705   0.00000  Uiso   1.00
N515   N     0.50000   0.25001   0.62934   0.00000  Uiso   1.00
N516   N     0.50000   0.24999   0.87065   0.00000  Uiso   1.00
O517   O     0.50000   0.18572   0.79071   0.00000  Uiso   1.00
O518   O     0.41628   0.00950   0.81165   0.00000  Uiso   1.00
O519   O     0.39458   0.17240   0.53784   0.00000  Uiso   1.00
O520   O     0.39339   0.32634   0.93439   0.00000  Uiso   1.00
O521   O     0.50000   0.31427   0.70928   0.00000  Uiso   1.00
O522   O     0.50000   0.18573   0.70928   0.00000  Uiso   1.00
O523   O     0.50000   0.31427   0.79072   0.00000  Uiso   1.00
O524   O     0.42495   0.24999   0.78132   0.00000  Uiso   1.00
O525   O     0.57505   0.25000   0.71868   0.00000  Uiso   1.00
O526   O     0.42495   0.25000   0.69988   0.00000  Uiso   1.00
O527   O     0.57505   0.25000   0.80011   0.00000  Uiso   1.00
O528   O     0.41912   0.04749   0.62784   0.00000  Uiso   1.00
C529   C     0.83288   0.16489   0.74983   0.00000  Uiso   1.00
C530   C     0.79671   0.27652   0.94136   0.00000  Uiso   1.00
C531   C     0.83241   0.24928   0.52715   0.00000  Uiso   1.00
C532   C     0.83239   0.25065   0.97261   0.00000  Uiso   1.00
C533   C     0.73453   0.25002   0.73753   0.00000  Uiso   1.00
C534   C     0.93214   0.25003   0.76247   0.00000  Uiso   1.00
C535   C     0.67928   0.25005   0.73063   0.00000  Uiso   1.00
C536   C     0.98739   0.25009   0.76938   0.00000  Uiso   1.00
C537   C     0.84897   0.04634   0.78866   0.00000  Uiso   1.00
C538   C     0.84921   0.45352   0.71526   0.00000  Uiso   1.00
C539   C     0.85200   0.09226   0.78952   0.00000  Uiso   1.00
C540   C     0.83290   0.33511   0.75005   0.00000  Uiso   1.00
C541   C     0.85241   0.40762   0.71547   0.00000  Uiso   1.00
C542   C     0.83008   0.11664   0.74903   0.00000  Uiso   1.00
C543   C     0.83007   0.38334   0.75000   0.00000  Uiso   1.00
C544   C     0.80428   0.09488   0.70790   0.00000  Uiso   1.00
C545   C     0.80356   0.40517   0.78375   0.00000  Uiso   1.00
C546   C     0.79948   0.04864   0.70707   0.00000  Uiso   1.00
C547   C     0.79817   0.45128   0.78277   0.00000  Uiso   1.00
C548   C     0.82258   0.02430   0.74797   0.00000  Uiso   1.00
C549   C     0.82210   0.47568   0.74840   0.00000  Uiso   1.00
C550   C     0.76924   0.02651   0.66428   0.00000  Uiso   1.00
C551   C     0.86787   0.27524   0.55786   0.00000  Uiso   1.00
C552   C     0.76619   0.47179   0.81721   0.00000  Uiso   1.00
C553   C     0.75884   0.19450   0.51904   0.00000  Uiso   1.00
C554   C     0.75803   0.30463   0.96134   0.00000  Uiso   1.00
C555   C     0.86819   0.22504   0.95123   0.00000  Uiso   1.00
C556   C     0.86763   0.27527   0.60871   0.00000  Uiso   1.00
C557   C     0.86793   0.22503   0.90031   0.00000  Uiso   1.00
C558   C     0.79872   0.22414   0.60056   0.00000  Uiso   1.00
C559   C     0.79837   0.27550   0.89033   0.00000  Uiso   1.00
C560   C     0.79710   0.22305   0.54910   0.00000  Uiso   1.00
Cu561  Cu    0.83333   0.24999   0.79821   0.00000  Uiso   1.00
Cu562  Cu    0.83333   0.25000   0.70178   0.00000  Uiso   1.00
H563   H     0.77216   0.20416   0.61785   0.00000  Uiso   1.00
H564   H     0.78545   0.38601   0.80981   0.00000  Uiso   1.00
H565   H     0.76125   0.49128   0.66479   0.00000  Uiso   1.00
H566   H     0.75579   0.45248   0.84742   0.00000  Uiso   1.00
H567   H     0.89541   0.29575   0.54245   0.00000  Uiso   1.00
H568   H     0.89600   0.20479   0.97388   0.00000  Uiso   1.00
H569   H     0.89499   0.29569   0.63173   0.00000  Uiso   1.00
H570   H     0.89554   0.20487   0.88449   0.00000  Uiso   1.00
H571   H     0.75775   0.19279   0.97973   0.00000  Uiso   1.00
H572   H     0.75696   0.30636   0.50036   0.00000  Uiso   1.00
H573   H     0.77155   0.29524   0.86607   0.00000  Uiso   1.00
H574   H     0.99262   0.25003   0.69345   0.00000  Uiso   1.00
H575   H     0.67405   0.25014   0.80655   0.00000  Uiso   1.00
H576   H     0.86716   0.02779   0.81985   0.00000  Uiso   1.00
H577   H     0.86804   0.47197   0.68920   0.00000  Uiso   1.00
H578   H     0.87219   0.10870   0.82146   0.00000  Uiso   1.00
H579   H     0.87315   0.39112   0.68928   0.00000  Uiso   1.00
H580   H     0.78667   0.11419   0.67705   0.00000  Uiso   1.00
N581   N     0.83333   0.25001   0.62934   0.00000  Uiso   1.00
N582   N     0.83333   0.24999   0.87065   0.00000  Uiso   1.00
O583   O     0.83334   0.18572   0.79071   0.00000  Uiso   1.00
O584   O     0.74962   0.00950   0.81165   0.00000  Uiso   1.00
O585   O     0.72792   0.17240   0.53784   0.00000  Uiso   1.00
O586   O     0.72673   0.32634   0.93439   0.00000  Uiso   1.00
O587   O     0.83333   0.31427   0.70928   0.00000  Uiso   1.00
O588   O     0.83334   0.18573   0.70928   0.00000  Uiso   1.00
O589   O     0.83333   0.31427   0.79072   0.00000  Uiso   1.00
O590   O     0.75828   0.24999   0.78132   0.00000  Uiso   1.00
O591   O     0.90839   0.25000   0.71868   0.00000  Uiso   1.00
O592   O     0.75828   0.25000   0.69988   0.00000  Uiso   1.00
O593   O     0.90839   0.25000   0.80011   0.00000  Uiso   1.00
O594   O     0.75245   0.04749   0.62784   0.00000  Uiso   1.00
C595   C     0.16621   0.66489   0.74983   0.00000  Uiso   1.00
C596   C     0.13005   0.77652   0.94136   0.00000  Uiso   1.00
C597   C     0.16575   0.74928   0.52715   0.00000  Uiso   1.00
C598   C     0.16572   0.75065   0.97261   0.00000  Uiso   1.00
C599   C     0.06786   0.75002   0.73753   0.00000  Uiso   1.00
C600   C     0.26547   0.75003   0.76247   0.00000  Uiso   1.00
C601   C     0.01261   0.75005   0.73063   0.00000  Uiso   1.00
C602   C     0.32072   0.75009   0.76938   0.00000  Uiso   1.00
C603   C     0.18230   0.54634   0.78866   0.00000  Uiso   1.00
C604   C     0.18254   0.95352   0.71526   0.00000  Uiso   1.00
C605   C     0.18533   0.59226   0.78952   0.00000  Uiso   1.00
C606   C     0.16623   0.83511   0.75005   0.00000  Uiso   1.00
C607   C     0.18575   0.90762   0.71547   0.00000  Uiso   1.00
C608   C     0.16341   0.61664   0.74903   0.00000  Uiso   1.00
C609   C     0.16340   0.88334   0.75000   0.00000  Uiso   1.00
C610   C     0.13761   0.59488   0.70790   0.00000  Uiso   1.00
C611   C     0.13689   0.90517   0.78375   0.00000  Uiso   1.00
C612   C     0.13282   0.54864   0.70707   0.00000  Uiso   1.00
C613   C     0.13150   0.95128   0.78277   0.00000  Uiso   1.00
C614   C     0.15591   0.52430   0.74797   0.00000  Uiso   1.00
C615   C     0.15543   0.97568   0.74840   0.00000  Uiso   1.00
C616   C     0.10257   0.52651   0.66428   0.00000  Uiso   1.00
C617   C     0.20121   0.77524   0.55786   0.00000  Uiso   1.00
C618   C     0.09952   0.97179   0.81721   0.00000  Uiso   1.00
C619   C     0.09217   0.69450   0.51904   0.00000  Uiso   1.00
C620   C     0.09137   0.80463   0.96134   0.00000  Uiso   1.00
C621   C     0.20152   0.72504   0.95123   0.00000  Uiso   1.00
C622   C     0.20096   0.77527   0.60871   0.00000  Uiso   1.00
C623   C     0.20127   0.72503   0.90031   0.00000  Uiso   1.00
C624   C     0.13205   0.72414   0.60056   0.00000  Uiso   1.00
C625   C     0.13170   0.77550   0.89033   0.00000  Uiso   1.00
C626   C     0.13043   0.72305   0.54910   0.00000  Uiso   1.00
Cu627  Cu    0.16667   0.74999   0.79821   0.00000  Uiso   1.00
Cu628  Cu    0.16667   0.75000   0.70178   0.00000  Uiso   1.00
H629   H     0.10549   0.70416   0.61785   0.00000  Uiso   1.00
H630   H     0.11879   0.88601   0.80981   0.00000  Uiso   1.00
H631   H     0.09458   0.99128   0.66479   0.00000  Uiso   1.00
H632   H     0.08912   0.95248   0.84742   0.00000  Uiso   1.00
H633   H     0.22874   0.79575   0.54245   0.00000  Uiso   1.00
H634   H     0.22933   0.70479   0.97388   0.00000  Uiso   1.00
H635   H     0.22833   0.79569   0.63173   0.00000  Uiso   1.00
H636   H     0.22888   0.70487   0.88449   0.00000  Uiso   1.00
H637   H     0.09108   0.69279   0.97973   0.00000  Uiso   1.00
H638   H     0.09029   0.80636   0.50036   0.00000  Uiso   1.00
H639   H     0.10489   0.79524   0.86607   0.00000  Uiso   1.00
H640   H     0.32595   0.75003   0.69345   0.00000  Uiso   1.00
H641   H     0.00739   0.75014   0.80655   0.00000  Uiso   1.00
H642   H     0.20049   0.52779   0.81985   0.00000  Uiso   1.00
H643   H     0.20137   0.97197   0.68920   0.00000  Uiso   1.00
H644   H     0.20552   0.60870   0.82146   0.00000  Uiso   1.00
H645   H     0.20648   0.89112   0.68928   0.00000  Uiso   1.00
H646   H     0.12000   0.61419   0.67705   0.00000  Uiso   1.00
N647   N     0.16667   0.75001   0.62934   0.00000  Uiso   1.00
N648   N     0.16667   0.74999   0.87065   0.00000  Uiso   1.00
O649   O     0.16667   0.68572   0.79071   0.00000  Uiso   1.00
O650   O     0.08295   0.50950   0.81165   0.00000  Uiso   1.00
O651   O     0.06125   0.67240   0.53784   0.00000  Uiso   1.00
O652   O     0.06006   0.82634   0.93439   0.00000  Uiso   1.00
O653   O     0.16666   0.81427   0.70928   0.00000  Uiso   1.00
O654   O     0.16667   0.68573   0.70928   0.00000  Uiso   1.00
O655   O     0.16666   0.81427   0.79072   0.00000  Uiso   1.00
O656   O     0.09161   0.74999   0.78132   0.00000  Uiso   1.00
O657   O     0.24172   0.75000   0.71868   0.00000  Uiso   1.00
O658   O     0.09161   0.75000   0.69988   0.00000  Uiso   1.00
O659   O     0.24172   0.75000   0.80011   0.00000  Uiso   1.00
O660   O     0.08579   0.54749   0.62784   0.00000  Uiso   1.00
C661   C     0.49955   0.66489   0.74983   0.00000  Uiso   1.00
C662   C     0.46338   0.77652   0.94136   0.00000  Uiso   1.00
C663   C     0.49908   0.74928   0.52715   0.00000  Uiso   1.00
C664   C     0.49906   0.75065   0.97261   0.00000  Uiso   1.00
C665   C     0.40119   0.75002   0.73753   0.00000  Uiso   1.00
C666   C     0.59881   0.75003   0.76247   0.00000  Uiso   1.00
C667   C     0.34595   0.75005   0.73063   0.00000  Uiso   1.00
C668   C     0.65406   0.75009   0.76938   0.00000  Uiso   1.00
C669   C     0.51563   0.54634   0.78866   0.00000  Uiso   1.00
C670   C     0.51587   0.95352   0.71526   0.00000  Uiso   1.00
C671   C     0.51867   0.59226   0.78952   0.00000  Uiso   1.00
C672   C     0.49957   0.83511   0.75005   0.00000  Uiso   1.00
C673   C     0.51908   0.90762   0.71547   0.00000  Uiso   1.00
C674   C     0.49675   0.61664   0.74903   0.00000  Uiso   1.00
C675   C     0.49674   0.88334   0.75000   0.00000  Uiso   1.00
C676   C     0.47094   0.59488   0.70790   0.00000  Uiso   1.00
C677   C     0.47022   0.90517   0.78375   0.00000  Uiso   1.00
C678   C     0.46615   0.54864   0.70707   0.00000  Uiso   1.00
C679   C     0.46483   0.95128   0.78277   0.00000  Uiso   1.00
C680   C     0.48925   0.52430   0.74797   0.00000  Uiso   1.00
C681   C     0.48877   0.97568   0.74840   0.00000  Uiso   1.00
C682   C     0.43591   0.52651   0.66428   0.00000  Uiso   1.00
C683   C     0.53454   0.77524   0.55786   0.00000  Uiso   1.00
C684   C     0.43286   0.97179   0.81721   0.00000  Uiso   1.00
C685   C     0.42551   0.69450   0.51904   0.00000  Uiso   1.00
C686   C     0.42470   0.80463   0.96134   0.00000  Uiso   1.00
C687   C     0.53486   0.72504   0.95123   0.00000  Uiso   1.00
C688   C     0.53429   0.77527   0.60871   0.00000  Uiso   1.00
C689   C     0.53460   0.72503   0.90031   0.00000  Uiso   1.00
C690   C     0.46538   0.72414   0.60056   0.00000  Uiso   1.00
C691   C     0.46503   0.77550   0.89033   0.00000  Uiso   1.00
C692   C     0.46376   0.72305   0.54910   0.00000  Uiso   1.00
Cu693  Cu    0.50000   0.74999   0.79821   0.00000  Uiso   1.00
Cu694  Cu    0.50000   0.75000   0.70178   0.00000  Uiso   1.00
H695   H     0.43883   0.70416   0.61785   0.00000  Uiso   1.00
H696   H     0.45212   0.88601   0.80981   0.00000  Uiso   1.00
H697   H     0.42792   0.99128   0.66479   0.00000  Uiso   1.00
H698   H     0.42245   0.95248   0.84742   0.00000  Uiso   1.00
H699   H     0.56208   0.79575   0.54245   0.00000  Uiso   1.00
H700   H     0.56266   0.70479   0.97388   0.00000  Uiso   1.00
H701   H     0.56166   0.79569   0.63173   0.00000  Uiso   1.00
H702   H     0.56221   0.70487   0.88449   0.00000  Uiso   1.00
H703   H     0.42442   0.69279   0.97973   0.00000  Uiso   1.00
H704   H     0.42362   0.80636   0.50036   0.00000  Uiso   1.00
H705   H     0.43822   0.79524   0.86607   0.00000  Uiso   1.00
H706   H     0.65929   0.75003   0.69345   0.00000  Uiso   1.00
H707   H     0.34072   0.75014   0.80655   0.00000  Uiso   1.00
H708   H     0.53382   0.52779   0.81985   0.00000  Uiso   1.00
H709   H     0.53470   0.97197   0.68920   0.00000  Uiso   1.00
H710   H     0.53885   0.60870   0.82146   0.00000  Uiso   1.00
H711   H     0.53982   0.89112   0.68928   0.00000  Uiso   1.00
H712   H     0.45334   0.61419   0.67705   0.00000  Uiso   1.00
N713   N     0.50000   0.75001   0.62934   0.00000  Uiso   1.00
N714   N     0.50000   0.74999   0.87065   0.00000  Uiso   1.00
O715   O     0.50000   0.68572   0.79071   0.00000  Uiso   1.00
O716   O     0.41628   0.50950   0.81165   0.00000  Uiso   1.00
O717   O     0.39458   0.67240   0.53784   0.00000  Uiso   1.00
O718   O     0.39339   0.82634   0.93439   0.00000  Uiso   1.00
O719   O     0.50000   0.81427   0.70928   0.00000  Uiso   1.00
O720   O     0.50000   0.68573   0.70928   0.00000  Uiso   1.00
O721   O     0.50000   0.81427   0.79072   0.00000  Uiso   1.00
O722   O     0.42495   0.74999   0.78132   0.00000  Uiso   1.00
O723   O     0.57505   0.75000   0.71868   0.00000  Uiso   1.00
O724   O     0.42495   0.75000   0.69988   0.00000  Uiso   1.00
O725   O     0.57505   0.75000   0.80011   0.00000  Uiso   1.00
O726   O     0.41912   0.54749   0.62784   0.00000  Uiso   1.00
C727   C     0.83288   0.66489   0.74983   0.00000  Uiso   1.00
C728   C     0.79671   0.77652   0.94136   0.00000  Uiso   1.00
C729   C     0.83241   0.74928   0.52715   0.00000  Uiso   1.00
C730   C     0.83239   0.75065   0.97261   0.00000  Uiso   1.00
C731   C     0.73453   0.75002   0.73753   0.00000  Uiso   1.00
C732   C     0.93214   0.75003   0.76247   0.00000  Uiso   1.00
C733   C     0.67928   0.75005   0.73063   0.00000  Uiso   1.00
C734   C     0.98739   0.75009   0.76938   0.00000  Uiso   1.00
C735   C     0.84897   0.54634   0.78866   0.00000  Uiso   1.00
C736   C     0.84921   0.95352   0.71526   0.00000  Uiso   1.00
C737   C     0.85200   0.59226   0.78952   0.00000  Uiso   1.00
C738   C     0.83290   0.83511   0.75005   0.00000  Uiso   1.00
C739   C     0.85241   0.90762   0.71547   0.00000  Uiso   1.00
C740   C     0.83008   0.61664   0.74903   0.00000  Uiso   1.00
C741   C     0.83007   0.88334   0.75000   0.00000  Uiso   1.00
C742   C     0.80428   0.59488   0.70790   0.00000  Uiso   1.00
C743   C     0.80356   0.90517   0.78375   0.00000  Uiso   1.00
C744   C     0.79948   0.54864   0.70707   0.00000  Uiso   1.00
C745   C     0.79817   0.95128   0.78277   0.00000  Uiso   1.00
C746   C     0.82258   0.52430   0.74797   0.00000  Uiso   1.00
C747   C     0.82210   0.97568   0.74840   0.00000  Uiso   1.00
C748   C     0.76924   0.52651   0.66428   0.00000  Uiso   1.00
C749   C     0.86787   0.77524   0.55786   0.00000  Uiso   1.00
C750   C     0.76619   0.97179   0.81721   0.00000  Uiso   1.00
C751   C     0.75884   0.69450   0.51904   0.00000  Uiso   1.00
C752   C     0.75803   0.80463   0.96134   0.00000  Uiso   1.00
C753   C     0.86819   0.72504   0.95123   0.00000  Uiso   1.00
C754   C     0.86763   0.77527   0.60871   0.00000  Uiso   1.00
C755   C     0.86793   0.72503   0.90031   0.00000  Uiso   1.00
C756   C     0.79872   0.72414   0.60056   0.00000  Uiso   1.00
C757   C     0.79837   0.77550   0.89033   0.00000  Uiso   1.00
C758   C     0.79710   0.72305   0.54910   0.00000  Uiso   1.00
Cu759  Cu    0.83333   0.74999   0.79821   0.00000  Uiso   1.00
Cu760  Cu    0.83333   0.75000   0.70178   0.00000  Uiso   1.00
H761   H     0.77216   0.70416   0.61785   0.00000  Uiso   1.00
H762   H     0.78545   0.88601   0.80981   0.00000  Uiso   1.00
H763   H     0.76125   0.99128   0.66479   0.00000  Uiso   1.00
H764   H     0.75579   0.95248   0.84742   0.00000  Uiso   1.00
H765   H     0.89541   0.79575   0.54245   0.00000  Uiso   1.00
H766   H     0.89600   0.70479   0.97388   0.00000  Uiso   1.00
H767   H     0.89499   0.79569   0.63173   0.00000  Uiso   1.00
H768   H     0.89554   0.70487   0.88449   0.00000  Uiso   1.00
H769   H     0.75775   0.69279   0.97973   0.00000  Uiso   1.00
H770   H     0.75696   0.80636   0.50036   0.00000  Uiso   1.00
H771   H     0.77155   0.79524   0.86607   0.00000  Uiso   1.00
H772   H     0.99262   0.75003   0.69345   0.00000  Uiso   1.00
H773   H     0.67405   0.75014   0.80655   0.00000  Uiso   1.00
H774   H     0.86716   0.52779   0.81985   0.00000  Uiso   1.00
H775   H     0.86804   0.97197   0.68920   0.00000  Uiso   1.00
H776   H     0.87219   0.60870   0.82146   0.00000  Uiso   1.00
H777   H     0.87315   0.89112   0.68928   0.00000  Uiso   1.00
H778   H     0.78667   0.61419   0.67705   0.00000  Uiso   1.00
N779   N     0.83333   0.75001   0.62934   0.00000  Uiso   1.00
N780   N     0.83333   0.74999   0.87065   0.00000  Uiso   1.00
O781   O     0.83334   0.68572   0.79071   0.00000  Uiso   1.00
O782   O     0.74962   0.50950   0.81165   0.00000  Uiso   1.00
O783   O     0.72792   0.67240   0.53784   0.00000  Uiso   1.00
O784   O     0.72673   0.82634   0.93439   0.00000  Uiso   1.00
O785   O     0.83333   0.81427   0.70928   0.00000  Uiso   1.00
O786   O     0.83334   0.68573   0.70928   0.00000  Uiso   1.00
O787   O     0.83333   0.81427   0.79072   0.00000  Uiso   1.00
O788   O     0.75828   0.74999   0.78132   0.00000  Uiso   1.00
O789   O     0.90839   0.75000   0.71868   0.00000  Uiso   1.00
O790   O     0.75828   0.75000   0.69988   0.00000  Uiso   1.00
O791   O     0.90839   0.75000   0.80011   0.00000  Uiso   1.00
O792   O     0.75245   0.54749   0.62784   0.00000  Uiso   1.00
loop_
_geom_bond_atom_site_label_1
_geom_bond_atom_site_label_2
_geom_bond_distance
_geom_bond_site_symmetry_2
_ccdc_geom_bond_type
C1     O55     1.291   .     A
C1     O60     1.289   .     A
C1     C14     1.458   .     S
C2     C4      1.418   .     A
C2     C26     1.484   .     S
C2     C31     1.418   .     A
C3     C23     1.406   .     A
C3     C32     1.418   .     A
C3     C400    1.509   1_554 S
C4     C27     1.406   .     A
C4     C399    1.509   .     S
C5     C7      1.434   .     S
C5     O62     1.283   .     A
C5     O64     1.285   .     A
C6     O63     1.283   .     A
C6     C8      1.434   .     S
C6     O65     1.285   .     A
C7     C140    1.335   1_455 S
C7     H178    1.087   1_455 S
C8     C73     1.335   .     S
C8     H113    1.087   .     S
C9     C11     1.388   .     A
C9     C20     1.402   .     A
C9     H48     1.084   .     S
C10    H49     1.084   .     S
C10    C21     1.403   .     A
C10    C13     1.388   .     A
C11    H50     1.083   .     S
C11    C14     1.397   .     A
C12    C15     1.458   .     S
C12    O61     1.289   .     A
C12    O59     1.290   .     A
C13    C15     1.397   .     A
C13    H51     1.083   .     S
C14    C16     1.401   .     A
C15    C17     1.401   .     A
C16    H52     1.084   .     S
C16    C18     1.401   .     A
C17    H36     1.085   .     S
C17    C19     1.398   .     A
C18    C22     1.487   .     S
C18    C20     1.415   .     A
C19    C24     1.486   .     S
C19    C21     1.418   .     A
C20    C219    1.467   1_545 S
C21    C218    1.467   .     S
C22    O66     1.221   .     D
C22    H235    1.084   1_545 S
C23    C28     1.407   .     A
C23    H39     1.083   .     S
C24    H38     1.086   .     S
C24    O254    1.221   .     S
C25    C32     1.484   .     S
C25    O57     1.221   .     D
C25    H439    1.084   1_554 S
C26    O58     1.221   .     D
C26    H440    1.084   .     S
C27    C29     1.408   .     A
C27    H40     1.083   .     S
C28    N53     1.364   .     A
C28    H41     1.082   .     S
C29    H42     1.082   .     S
C29    N54     1.364   .     A
C30    H35     1.082   .     S
C30    C32     1.418   .     A
C30    N53     1.365   .     A
C31    N54     1.365   .     A
C31    H45     1.082   .     S
Cu33   O55     1.950   .     S
Cu33   O65     1.960   .     S
Cu33   O61     1.952   .     S
Cu33   Cu34    2.667   .     S
Cu33   O62     1.957   .     S
Cu33   N54     2.004   .     S
Cu34   O64     1.960   .     S
Cu34   O60     1.952   .     S
Cu34   O63     1.957   .     S
Cu34   O59     1.950   .     S
Cu34   N53     2.004   .     S
H37    C220    1.084   .     S
H43    C421    1.084   .     S
H44    C422    1.084   1_554 S
H46    C73     1.087   .     S
H47    C140    1.087   1_455 S
O56    C222    1.221   1_545 S
C67    O121    1.291   .     A
C67    O126    1.289   .     A
C67    C80     1.458   .     S
C68    C70     1.418   .     A
C68    C92     1.484   .     S
C68    C97     1.418   .     A
C69    C89     1.406   .     A
C69    C98     1.418   .     A
C69    C466    1.509   1_554 S
C70    C93     1.406   .     A
C70    C465    1.509   .     S
C71    C73     1.434   .     S
C71    O128    1.283   .     A
C71    O130    1.285   .     A
C72    O129    1.283   .     A
C72    C74     1.434   .     S
C72    O131    1.285   .     A
C74    C139    1.335   .     S
C74    H179    1.087   .     S
C75    C77     1.388   .     A
C75    C86     1.402   .     A
C75    H114    1.084   .     S
C76    H115    1.084   .     S
C76    C87     1.403   .     A
C76    C79     1.388   .     A
C77    H116    1.083   .     S
C77    C80     1.397   .     A
C78    C81     1.458   .     S
C78    O127    1.289   .     A
C78    O125    1.290   .     A
C79    C81     1.397   .     A
C79    H117    1.083   .     S
C80    C82     1.401   .     A
C81    C83     1.401   .     A
C82    H118    1.084   .     S
C82    C84     1.401   .     A
C83    H102    1.085   .     S
C83    C85     1.398   .     A
C84    C88     1.487   .     S
C84    C86     1.415   .     A
C85    C90     1.486   .     S
C85    C87     1.418   .     A
C86    C285    1.467   1_545 S
C87    C284    1.467   .     S
C88    O132    1.221   .     D
C88    H301    1.084   1_545 S
C89    C94     1.407   .     A
C89    H105    1.083   .     S
C90    H104    1.086   .     S
C90    O320    1.221   .     S
C91    C98     1.484   .     S
C91    O123    1.221   .     D
C91    H505    1.084   1_554 S
C92    O124    1.221   .     D
C92    H506    1.084   .     S
C93    C95     1.408   .     A
C93    H106    1.083   .     S
C94    N119    1.364   .     A
C94    H107    1.082   .     S
C95    H108    1.082   .     S
C95    N120    1.364   .     A
C96    H101    1.082   .     S
C96    C98     1.418   .     A
C96    N119    1.365   .     A
C97    N120    1.365   .     A
C97    H111    1.082   .     S
Cu99   O121    1.950   .     S
Cu99   O131    1.960   .     S
Cu99   O127    1.952   .     S
Cu99   Cu100   2.667   .     S
Cu99   O128    1.957   .     S
Cu99   N120    2.004   .     S
Cu100  O130    1.960   .     S
Cu100  O126    1.952   .     S
Cu100  O129    1.957   .     S
Cu100  O125    1.950   .     S
Cu100  N119    2.004   .     S
H103   C286    1.084   .     S
H109   C487    1.084   .     S
H110   C488    1.084   1_554 S
H112   C139    1.087   .     S
O122   C288    1.221   1_545 S
C133   O187    1.291   .     A
C133   O192    1.289   .     A
C133   C146    1.458   .     S
C134   C136    1.418   .     A
C134   C158    1.484   .     S
C134   C163    1.418   .     A
C135   C155    1.406   .     A
C135   C164    1.418   .     A
C135   C532    1.509   1_554 S
C136   C159    1.406   .     A
C136   C531    1.509   .     S
C137   C139    1.434   .     S
C137   O194    1.283   .     A
C137   O196    1.285   .     A
C138   O195    1.283   .     A
C138   C140    1.434   .     S
C138   O197    1.285   .     A
C140   C7      1.335   1_655 S
C140   H47     1.087   1_655 S
C141   C143    1.388   .     A
C141   C152    1.402   .     A
C141   H180    1.084   .     S
C142   H181    1.084   .     S
C142   C153    1.403   .     A
C142   C145    1.388   .     A
C143   H182    1.083   .     S
C143   C146    1.397   .     A
C144   C147    1.458   .     S
C144   O193    1.289   .     A
C144   O191    1.290   .     A
C145   C147    1.397   .     A
C145   H183    1.083   .     S
C146   C148    1.401   .     A
C147   C149    1.401   .     A
C148   H184    1.084   .     S
C148   C150    1.401   .     A
C149   H168    1.085   .     S
C149   C151    1.398   .     A
C150   C154    1.487   .     S
C150   C152    1.415   .     A
C151   C156    1.486   .     S
C151   C153    1.418   .     A
C152   C351    1.467   1_545 S
C153   C350    1.467   .     S
C154   O198    1.221   .     D
C154   H367    1.084   1_545 S
C155   C160    1.407   .     A
C155   H171    1.083   .     S
C156   H170    1.086   .     S
C156   O386    1.221   .     S
C157   C164    1.484   .     S
C157   O189    1.221   .     D
C157   H571    1.084   1_554 S
C158   O190    1.221   .     D
C158   H572    1.084   .     S
C159   C161    1.408   .     A
C159   H172    1.083   .     S
C160   N185    1.364   .     A
C160   H173    1.082   .     S
C161   H174    1.082   .     S
C161   N186    1.364   .     A
C162   H167    1.082   .     S
C162   C164    1.418   .     A
C162   N185    1.365   .     A
C163   N186    1.365   .     A
C163   H177    1.082   .     S
Cu165  O187    1.950   .     S
Cu165  O197    1.960   .     S
Cu165  O193    1.952   .     S
Cu165  Cu166   2.667   .     S
Cu165  O194    1.957   .     S
Cu165  N186    2.004   .     S
Cu166  O196    1.960   .     S
Cu166  O192    1.952   .     S
Cu166  O195    1.957   .     S
Cu166  O191    1.950   .     S
Cu166  N185    2.004   .     S
H169   C352    1.084   .     S
H175   C553    1.084   .     S
H176   C554    1.084   1_554 S
H178   C7      1.087   1_655 S
O188   C354    1.221   1_545 S
C199   O253    1.291   .     A
C199   O258    1.289   .     A
C199   C212    1.458   .     S
C200   C202    1.418   .     A
C200   C224    1.484   .     S
C200   C229    1.418   .     A
C201   C221    1.406   .     A
C201   C230    1.418   .     A
C201   C598    1.509   1_554 S
C202   C225    1.406   .     A
C202   C597    1.509   .     S
C203   C205    1.434   .     S
C203   O260    1.283   .     A
C203   O262    1.285   .     A
C204   O261    1.283   .     A
C204   C206    1.434   .     S
C204   O263    1.285   .     A
C205   C338    1.335   1_455 S
C205   H376    1.087   1_455 S
C206   C271    1.335   .     S
C206   H311    1.087   .     S
C207   C209    1.388   .     A
C207   C218    1.402   .     A
C207   H246    1.084   .     S
C208   H247    1.084   .     S
C208   C219    1.403   .     A
C208   C211    1.388   .     A
C209   H248    1.083   .     S
C209   C212    1.397   .     A
C210   C213    1.458   .     S
C210   O259    1.289   .     A
C210   O257    1.290   .     A
C211   C213    1.397   .     A
C211   H249    1.083   .     S
C212   C214    1.401   .     A
C213   C215    1.401   .     A
C214   H250    1.084   .     S
C214   C216    1.401   .     A
C215   H234    1.085   .     S
C215   C217    1.398   .     A
C216   C220    1.487   .     S
C216   C218    1.415   .     A
C217   C222    1.486   .     S
C217   C219    1.418   .     A
C219   C20     1.467   1_565 S
C220   O264    1.221   .     D
C221   C226    1.407   .     A
C221   H237    1.083   .     S
C222   H236    1.086   .     S
C222   O56     1.221   1_565 S
C223   C230    1.484   .     S
C223   O255    1.221   .     D
C223   H637    1.084   1_554 S
C224   O256    1.221   .     D
C224   H638    1.084   .     S
C225   C227    1.408   .     A
C225   H238    1.083   .     S
C226   N251    1.364   .     A
C226   H239    1.082   .     S
C227   H240    1.082   .     S
C227   N252    1.364   .     A
C228   H233    1.082   .     S
C228   C230    1.418   .     A
C228   N251    1.365   .     A
C229   N252    1.365   .     A
C229   H243    1.082   .     S
Cu231  O253    1.950   .     S
Cu231  O263    1.960   .     S
Cu231  O259    1.952   .     S
Cu231  Cu232   2.667   .     S
Cu231  O260    1.957   .     S
Cu231  N252    2.004   .     S
Cu232  O262    1.960   .     S
Cu232  O258    1.952   .     S
Cu232  O261    1.957   .     S
Cu232  O257    1.950   .     S
Cu232  N251    2.004   .     S
H235   C22     1.084   1_565 S
H241   C619    1.084   .     S
H242   C620    1.084   1_554 S
H244   C271    1.087   .     S
H245   C338    1.087   1_455 S
C265   O319    1.291   .     A
C265   O324    1.289   .     A
C265   C278    1.458   .     S
C266   C268    1.418   .     A
C266   C290    1.484   .     S
C266   C295    1.418   .     A
C267   C287    1.406   .     A
C267   C296    1.418   .     A
C267   C664    1.509   1_554 S
C268   C291    1.406   .     A
C268   C663    1.509   .     S
C269   C271    1.434   .     S
C269   O326    1.283   .     A
C269   O328    1.285   .     A
C270   O327    1.283   .     A
C270   C272    1.434   .     S
C270   O329    1.285   .     A
C272   C337    1.335   .     S
C272   H377    1.087   .     S
C273   C275    1.388   .     A
C273   C284    1.402   .     A
C273   H312    1.084   .     S
C274   H313    1.084   .     S
C274   C285    1.403   .     A
C274   C277    1.388   .     A
C275   H314    1.083   .     S
C275   C278    1.397   .     A
C276   C279    1.458   .     S
C276   O325    1.289   .     A
C276   O323    1.290   .     A
C277   C279    1.397   .     A
C277   H315    1.083   .     S
C278   C280    1.401   .     A
C279   C281    1.401   .     A
C280   H316    1.084   .     S
C280   C282    1.401   .     A
C281   H300    1.085   .     S
C281   C283    1.398   .     A
C282   C286    1.487   .     S
C282   C284    1.415   .     A
C283   C288    1.486   .     S
C283   C285    1.418   .     A
C285   C86     1.467   1_565 S
C286   O330    1.221   .     D
C287   C292    1.407   .     A
C287   H303    1.083   .     S
C288   H302    1.086   .     S
C288   O122    1.221   1_565 S
C289   C296    1.484   .     S
C289   O321    1.221   .     D
C289   H703    1.084   1_554 S
C290   O322    1.221   .     D
C290   H704    1.084   .     S
C291   C293    1.408   .     A
C291   H304    1.083   .     S
C292   N317    1.364   .     A
C292   H305    1.082   .     S
C293   H306    1.082   .     S
C293   N318    1.364   .     A
C294   H299    1.082   .     S
C294   C296    1.418   .     A
C294   N317    1.365   .     A
C295   N318    1.365   .     A
C295   H309    1.082   .     S
Cu297  O319    1.950   .     S
Cu297  O329    1.960   .     S
Cu297  O325    1.952   .     S
Cu297  Cu298   2.667   .     S
Cu297  O326    1.957   .     S
Cu297  N318    2.004   .     S
Cu298  O328    1.960   .     S
Cu298  O324    1.952   .     S
Cu298  O327    1.957   .     S
Cu298  O323    1.950   .     S
Cu298  N317    2.004   .     S
H301   C88     1.084   1_565 S
H307   C685    1.084   .     S
H308   C686    1.084   1_554 S
H310   C337    1.087   .     S
C331   O385    1.291   .     A
C331   O390    1.289   .     A
C331   C344    1.458   .     S
C332   C334    1.418   .     A
C332   C356    1.484   .     S
C332   C361    1.418   .     A
C333   C353    1.406   .     A
C333   C362    1.418   .     A
C333   C730    1.509   1_554 S
C334   C357    1.406   .     A
C334   C729    1.509   .     S
C335   C337    1.434   .     S
C335   O392    1.283   .     A
C335   O394    1.285   .     A
C336   O393    1.283   .     A
C336   C338    1.434   .     S
C336   O395    1.285   .     A
C338   C205    1.335   1_655 S
C338   H245    1.087   1_655 S
C339   C341    1.388   .     A
C339   C350    1.402   .     A
C339   H378    1.084   .     S
C340   H379    1.084   .     S
C340   C351    1.403   .     A
C340   C343    1.388   .     A
C341   H380    1.083   .     S
C341   C344    1.397   .     A
C342   C345    1.458   .     S
C342   O391    1.289   .     A
C342   O389    1.290   .     A
C343   C345    1.397   .     A
C343   H381    1.083   .     S
C344   C346    1.401   .     A
C345   C347    1.401   .     A
C346   H382    1.084   .     S
C346   C348    1.401   .     A
C347   H366    1.085   .     S
C347   C349    1.398   .     A
C348   C352    1.487   .     S
C348   C350    1.415   .     A
C349   C354    1.486   .     S
C349   C351    1.418   .     A
C351   C152    1.467   1_565 S
C352   O396    1.221   .     D
C353   C358    1.407   .     A
C353   H369    1.083   .     S
C354   H368    1.086   .     S
C354   O188    1.221   1_565 S
C355   C362    1.484   .     S
C355   O387    1.221   .     D
C355   H769    1.084   1_554 S
C356   O388    1.221   .     D
C356   H770    1.084   .     S
C357   C359    1.408   .     A
C357   H370    1.083   .     S
C358   N383    1.364   .     A
C358   H371    1.082   .     S
C359   H372    1.082   .     S
C359   N384    1.364   .     A
C360   H365    1.082   .     S
C360   C362    1.418   .     A
C360   N383    1.365   .     A
C361   N384    1.365   .     A
C361   H375    1.082   .     S
Cu363  O385    1.950   .     S
Cu363  O395    1.960   .     S
Cu363  O391    1.952   .     S
Cu363  Cu364   2.667   .     S
Cu363  O392    1.957   .     S
Cu363  N384    2.004   .     S
Cu364  O394    1.960   .     S
Cu364  O390    1.952   .     S
Cu364  O393    1.957   .     S
Cu364  O389    1.950   .     S
Cu364  N383    2.004   .     S
H367   C154    1.084   1_565 S
H373   C751    1.084   .     S
H374   C752    1.084   1_554 S
H376   C205    1.087   1_655 S
C397   O451    1.291   .     A
C397   O456    1.289   .     A
C397   C410    1.458   .     S
C398   C400    1.418   .     A
C398   C422    1.484   .     S
C398   C427    1.418   .     A
C399   C419    1.406   .     A
C399   C428    1.418   .     A
C400   C423    1.406   .     A
C400   C3      1.509   1_556 S
C401   C403    1.434   .     S
C401   O458    1.283   .     A
C401   O460    1.285   .     A
C402   O459    1.283   .     A
C402   C404    1.434   .     S
C402   O461    1.285   .     A
C403   C536    1.335   1_455 S
C403   H574    1.087   1_455 S
C404   C469    1.335   .     S
C404   H509    1.087   .     S
C405   C407    1.388   .     A
C405   C416    1.402   .     A
C405   H444    1.084   .     S
C406   H445    1.084   .     S
C406   C417    1.403   .     A
C406   C409    1.388   .     A
C407   H446    1.083   .     S
C407   C410    1.397   .     A
C408   C411    1.458   .     S
C408   O457    1.289   .     A
C408   O455    1.290   .     A
C409   C411    1.397   .     A
C409   H447    1.083   .     S
C410   C412    1.401   .     A
C411   C413    1.401   .     A
C412   H448    1.084   .     S
C412   C414    1.401   .     A
C413   H432    1.085   .     S
C413   C415    1.398   .     A
C414   C418    1.487   .     S
C414   C416    1.415   .     A
C415   C420    1.486   .     S
C415   C417    1.418   .     A
C416   C615    1.467   1_545 S
C417   C614    1.467   .     S
C418   O462    1.221   .     D
C418   H631    1.084   1_545 S
C419   C424    1.407   .     A
C419   H435    1.083   .     S
C420   H434    1.086   .     S
C420   O650    1.221   .     S
C421   C428    1.484   .     S
C421   O453    1.221   .     D
C422   O454    1.221   .     D
C422   H44     1.084   1_556 S
C423   C425    1.408   .     A
C423   H436    1.083   .     S
C424   N449    1.364   .     A
C424   H437    1.082   .     S
C425   H438    1.082   .     S
C425   N450    1.364   .     A
C426   H431    1.082   .     S
C426   C428    1.418   .     A
C426   N449    1.365   .     A
C427   N450    1.365   .     A
C427   H441    1.082   .     S
Cu429  O451    1.950   .     S
Cu429  O461    1.960   .     S
Cu429  O457    1.952   .     S
Cu429  Cu430   2.667   .     S
Cu429  O458    1.957   .     S
Cu429  N450    2.004   .     S
Cu430  O460    1.960   .     S
Cu430  O456    1.952   .     S
Cu430  O459    1.957   .     S
Cu430  O455    1.950   .     S
Cu430  N449    2.004   .     S
H433   C616    1.084   .     S
H439   C25     1.084   1_556 S
H442   C469    1.087   .     S
H443   C536    1.087   1_455 S
O452   C618    1.221   1_545 S
C463   O517    1.291   .     A
C463   O522    1.289   .     A
C463   C476    1.458   .     S
C464   C466    1.418   .     A
C464   C488    1.484   .     S
C464   C493    1.418   .     A
C465   C485    1.406   .     A
C465   C494    1.418   .     A
C466   C489    1.406   .     A
C466   C69     1.509   1_556 S
C467   C469    1.434   .     S
C467   O524    1.283   .     A
C467   O526    1.285   .     A
C468   O525    1.283   .     A
C468   C470    1.434   .     S
C468   O527    1.285   .     A
C470   C535    1.335   .     S
C470   H575    1.087   .     S
C471   C473    1.388   .     A
C471   C482    1.402   .     A
C471   H510    1.084   .     S
C472   H511    1.084   .     S
C472   C483    1.403   .     A
C472   C475    1.388   .     A
C473   H512    1.083   .     S
C473   C476    1.397   .     A
C474   C477    1.458   .     S
C474   O523    1.289   .     A
C474   O521    1.290   .     A
C475   C477    1.397   .     A
C475   H513    1.083   .     S
C476   C478    1.401   .     A
C477   C479    1.401   .     A
C478   H514    1.084   .     S
C478   C480    1.401   .     A
C479   H498    1.085   .     S
C479   C481    1.398   .     A
C480   C484    1.487   .     S
C480   C482    1.415   .     A
C481   C486    1.486   .     S
C481   C483    1.418   .     A
C482   C681    1.467   1_545 S
C483   C680    1.467   .     S
C484   O528    1.221   .     D
C484   H697    1.084   1_545 S
C485   C490    1.407   .     A
C485   H501    1.083   .     S
C486   H500    1.086   .     S
C486   O716    1.221   .     S
C487   C494    1.484   .     S
C487   O519    1.221   .     D
C488   O520    1.221   .     D
C488   H110    1.084   1_556 S
C489   C491    1.408   .     A
C489   H502    1.083   .     S
C490   N515    1.364   .     A
C490   H503    1.082   .     S
C491   H504    1.082   .     S
C491   N516    1.364   .     A
C492   H497    1.082   .     S
C492   C494    1.418   .     A
C492   N515    1.365   .     A
C493   N516    1.365   .     A
C493   H507    1.082   .     S
Cu495  O517    1.950   .     S
Cu495  O527    1.960   .     S
Cu495  O523    1.952   .     S
Cu495  Cu496   2.667   .     S
Cu495  O524    1.957   .     S
Cu495  N516    2.004   .     S
Cu496  O526    1.960   .     S
Cu496  O522    1.952   .     S
Cu496  O525    1.957   .     S
Cu496  O521    1.950   .     S
Cu496  N515    2.004   .     S
H499   C682    1.084   .     S
H505   C91     1.084   1_556 S
H508   C535    1.087   .     S
O518   C684    1.221   1_545 S
C529   O583    1.291   .     A
C529   O588    1.289   .     A
C529   C542    1.458   .     S
C530   C532    1.418   .     A
C530   C554    1.484   .     S
C530   C559    1.418   .     A
C531   C551    1.406   .     A
C531   C560    1.418   .     A
C532   C555    1.406   .     A
C532   C135    1.509   1_556 S
C533   C535    1.434   .     S
C533   O590    1.283   .     A
C533   O592    1.285   .     A
C534   O591    1.283   .     A
C534   C536    1.434   .     S
C534   O593    1.285   .     A
C536   C403    1.335   1_655 S
C536   H443    1.087   1_655 S
C537   C539    1.388   .     A
C537   C548    1.402   .     A
C537   H576    1.084   .     S
C538   H577    1.084   .     S
C538   C549    1.403   .     A
C538   C541    1.388   .     A
C539   H578    1.083   .     S
C539   C542    1.397   .     A
C540   C543    1.458   .     S
C540   O589    1.289   .     A
C540   O587    1.290   .     A
C541   C543    1.397   .     A
C541   H579    1.083   .     S
C542   C544    1.401   .     A
C543   C545    1.401   .     A
C544   H580    1.084   .     S
C544   C546    1.401   .     A
C545   H564    1.085   .     S
C545   C547    1.398   .     A
C546   C550    1.487   .     S
C546   C548    1.415   .     A
C547   C552    1.486   .     S
C547   C549    1.418   .     A
C548   C747    1.467   1_545 S
C549   C746    1.467   .     S
C550   O594    1.221   .     D
C550   H763    1.084   1_545 S
C551   C556    1.407   .     A
C551   H567    1.083   .     S
C552   H566    1.086   .     S
C552   O782    1.221   .     S
C553   C560    1.484   .     S
C553   O585    1.221   .     D
C554   O586    1.221   .     D
C554   H176    1.084   1_556 S
C555   C557    1.408   .     A
C555   H568    1.083   .     S
C556   N581    1.364   .     A
C556   H569    1.082   .     S
C557   H570    1.082   .     S
C557   N582    1.364   .     A
C558   H563    1.082   .     S
C558   C560    1.418   .     A
C558   N581    1.365   .     A
C559   N582    1.365   .     A
C559   H573    1.082   .     S
Cu561  O583    1.950   .     S
Cu561  O593    1.960   .     S
Cu561  O589    1.952   .     S
Cu561  Cu562   2.667   .     S
Cu561  O590    1.957   .     S
Cu561  N582    2.004   .     S
Cu562  O592    1.960   .     S
Cu562  O588    1.952   .     S
Cu562  O591    1.957   .     S
Cu562  O587    1.950   .     S
Cu562  N581    2.004   .     S
H565   C748    1.084   .     S
H571   C157    1.084   1_556 S
H574   C403    1.087   1_655 S
O584   C750    1.221   1_545 S
C595   O649    1.291   .     A
C595   O654    1.289   .     A
C595   C608    1.458   .     S
C596   C598    1.418   .     A
C596   C620    1.484   .     S
C596   C625    1.418   .     A
C597   C617    1.406   .     A
C597   C626    1.418   .     A
C598   C621    1.406   .     A
C598   C201    1.509   1_556 S
C599   C601    1.434   .     S
C599   O656    1.283   .     A
C599   O658    1.285   .     A
C600   O657    1.283   .     A
C600   C602    1.434   .     S
C600   O659    1.285   .     A
C601   C734    1.335   1_455 S
C601   H772    1.087   1_455 S
C602   C667    1.335   .     S
C602   H707    1.087   .     S
C603   C605    1.388   .     A
C603   C614    1.402   .     A
C603   H642    1.084   .     S
C604   H643    1.084   .     S
C604   C615    1.403   .     A
C604   C607    1.388   .     A
C605   H644    1.083   .     S
C605   C608    1.397   .     A
C606   C609    1.458   .     S
C606   O655    1.289   .     A
C606   O653    1.290   .     A
C607   C609    1.397   .     A
C607   H645    1.083   .     S
C608   C610    1.401   .     A
C609   C611    1.401   .     A
C610   H646    1.084   .     S
C610   C612    1.401   .     A
C611   H630    1.085   .     S
C611   C613    1.398   .     A
C612   C616    1.487   .     S
C612   C614    1.415   .     A
C613   C618    1.486   .     S
C613   C615    1.418   .     A
C615   C416    1.467   1_565 S
C616   O660    1.221   .     D
C617   C622    1.407   .     A
C617   H633    1.083   .     S
C618   H632    1.086   .     S
C618   O452    1.221   1_565 S
C619   C626    1.484   .     S
C619   O651    1.221   .     D
C620   O652    1.221   .     D
C620   H242    1.084   1_556 S
C621   C623    1.408   .     A
C621   H634    1.083   .     S
C622   N647    1.364   .     A
C622   H635    1.082   .     S
C623   H636    1.082   .     S
C623   N648    1.364   .     A
C624   H629    1.082   .     S
C624   C626    1.418   .     A
C624   N647    1.365   .     A
C625   N648    1.365   .     A
C625   H639    1.082   .     S
Cu627  O649    1.950   .     S
Cu627  O659    1.960   .     S
Cu627  O655    1.952   .     S
Cu627  Cu628   2.667   .     S
Cu627  O656    1.957   .     S
Cu627  N648    2.004   .     S
Cu628  O658    1.960   .     S
Cu628  O654    1.952   .     S
Cu628  O657    1.957   .     S
Cu628  O653    1.950   .     S
Cu628  N647    2.004   .     S
H631   C418    1.084   1_565 S
H637   C223    1.084   1_556 S
H640   C667    1.087   .     S
H641   C734    1.087   1_455 S
C661   O715    1.291   .     A
C661   O720    1.289   .     A
C661   C674    1.458   .     S
C662   C664    1.418   .     A
C662   C686    1.484   .     S
C662   C691    1.418   .     A
C663   C683    1.406   .     A
C663   C692    1.418   .     A
C664   C687    1.406   .     A
C664   C267    1.509   1_556 S
C665   C667    1.434   .     S
C665   O722    1.283   .     A
C665   O724    1.285   .     A
C666   O723    1.283   .     A
C666   C668    1.434   .     S
C666   O725    1.285   .     A
C668   C733    1.335   .     S
C668   H773    1.087   .     S
C669   C671    1.388   .     A
C669   C680    1.402   .     A
C669   H708    1.084   .     S
C670   H709    1.084   .     S
C670   C681    1.403   .     A
C670   C673    1.388   .     A
C671   H710    1.083   .     S
C671   C674    1.397   .     A
C672   C675    1.458   .     S
C672   O721    1.289   .     A
C672   O719    1.290   .     A
C673   C675    1.397   .     A
C673   H711    1.083   .     S
C674   C676    1.401   .     A
C675   C677    1.401   .     A
C676   H712    1.084   .     S
C676   C678    1.401   .     A
C677   H696    1.085   .     S
C677   C679    1.398   .     A
C678   C682    1.487   .     S
C678   C680    1.415   .     A
C679   C684    1.486   .     S
C679   C681    1.418   .     A
C681   C482    1.467   1_565 S
C682   O726    1.221   .     D
C683   C688    1.407   .     A
C683   H699    1.083   .     S
C684   H698    1.086   .     S
C684   O518    1.221   1_565 S
C685   C692    1.484   .     S
C685   O717    1.221   .     D
C686   O718    1.221   .     D
C686   H308    1.084   1_556 S
C687   C689    1.408   .     A
C687   H700    1.083   .     S
C688   N713    1.364   .     A
C688   H701    1.082   .     S
C689   H702    1.082   .     S
C689   N714    1.364   .     A
C690   H695    1.082   .     S
C690   C692    1.418   .     A
C690   N713    1.365   .     A
C691   N714    1.365   .     A
C691   H705    1.082   .     S
Cu693  O715    1.950   .     S
Cu693  O725    1.960   .     S
Cu693  O721    1.952   .     S
Cu693  Cu694   2.667   .     S
Cu693  O722    1.957   .     S
Cu693  N714    2.004   .     S
Cu694  O724    1.960   .     S
Cu694  O720    1.952   .     S
Cu694  O723    1.957   .     S
Cu694  O719    1.950   .     S
Cu694  N713    2.004   .     S
H697   C484    1.084   1_565 S
H703   C289    1.084   1_556 S
H706   C733    1.087   .     S
C727   O781    1.291   .     A
C727   O786    1.289   .     A
C727   C740    1.458   .     S
C728   C730    1.418   .     A
C728   C752    1.484   .     S
C728   C757    1.418   .     A
C729   C749    1.406   .     A
C729   C758    1.418   .     A
C730   C753    1.406   .     A
C730   C333    1.509   1_556 S
C731   C733    1.434   .     S
C731   O788    1.283   .     A
C731   O790    1.285   .     A
C732   O789    1.283   .     A
C732   C734    1.434   .     S
C732   O791    1.285   .     A
C734   C601    1.335   1_655 S
C734   H641    1.087   1_655 S
C735   C737    1.388   .     A
C735   C746    1.402   .     A
C735   H774    1.084   .     S
C736   H775    1.084   .     S
C736   C747    1.403   .     A
C736   C739    1.388   .     A
C737   H776    1.083   .     S
C737   C740    1.397   .     A
C738   C741    1.458   .     S
C738   O787    1.289   .     A
C738   O785    1.290   .     A
C739   C741    1.397   .     A
C739   H777    1.083   .     S
C740   C742    1.401   .     A
C741   C743    1.401   .     A
C742   H778    1.084   .     S
C742   C744    1.401   .     A
C743   H762    1.085   .     S
C743   C745    1.398   .     A
C744   C748    1.487   .     S
C744   C746    1.415   .     A
C745   C750    1.486   .     S
C745   C747    1.418   .     A
C747   C548    1.467   1_565 S
C748   O792    1.221   .     D
C749   C754    1.407   .     A
C749   H765    1.083   .     S
C750   H764    1.086   .     S
C750   O584    1.221   1_565 S
C751   C758    1.484   .     S
C751   O783    1.221   .     D
C752   O784    1.221   .     D
C752   H374    1.084   1_556 S
C753   C755    1.408   .     A
C753   H766    1.083   .     S
C754   N779    1.364   .     A
C754   H767    1.082   .     S
C755   H768    1.082   .     S
C755   N780    1.364   .     A
C756   H761    1.082   .     S
C756   C758    1.418   .     A
C756   N779    1.365   .     A
C757   N780    1.365   .     A
C757   H771    1.082   .     S
Cu759  O781    1.950   .     S
Cu759  O791    1.960   .     S
Cu759  O787    1.952   .     S
Cu759  Cu760   2.667   .     S
Cu759  O788    1.957   .     S
Cu759  N780    2.004   .     S
Cu760  O790    1.960   .     S
Cu760  O786    1.952   .     S
Cu760  O789    1.957   .     S
Cu760  O785    1.950   .     S
Cu760  N779    2.004   .     S
H763   C550    1.084   1_565 S
H769   C355    1.084   1_556 S
H772   C601    1.087   1_655 S
