data_str_m3_o1_o5_pcu_sym.7
_audit_creation_date              2020-01-03
_audit_creation_method            'Materials Studio'
_symmetry_space_group_name_H-M    'P1'
_symmetry_Int_Tables_number       1
_symmetry_cell_setting            triclinic
loop_
_symmetry_equiv_pos_as_xyz
  x,y,z
_cell_length_a                    32.1742
_cell_length_b                    29.7019
_cell_length_c                    26.7270
_cell_angle_alpha                 90.0000
_cell_angle_beta                  90.8021
_cell_angle_gamma                 90.0000
loop_
_atom_site_label
_atom_site_type_symbol
_atom_site_fract_x
_atom_site_fract_y
_atom_site_fract_z
_atom_site_U_iso_or_equiv
_atom_site_adp_type
_atom_site_occupancy
C1     C     0.08667   0.16667   0.16661   0.00000  Uiso   1.00
C2     C     0.02128   0.20773   0.16665   0.00000  Uiso   1.00
C3     C     0.29084   0.16667   0.16672   0.00000  Uiso   1.00
C4     C     0.04249   0.16667   0.16662   0.00000  Uiso   1.00
C5     C     0.19266   0.02403   0.19811   0.00000  Uiso   1.00
C6     C     0.14067   0.30931   0.13522   0.00000  Uiso   1.00
C7     C     0.14067   0.02403   0.13522   0.00000  Uiso   1.00
C8     C     0.19266   0.30931   0.19811   0.00000  Uiso   1.00
C9     C     0.22019   0.04836   0.23151   0.00000  Uiso   1.00
C10    C     0.11314   0.28497   0.10182   0.00000  Uiso   1.00
C11    C     0.11314   0.04836   0.10182   0.00000  Uiso   1.00
C12    C     0.24666   0.16667   0.16673   0.00000  Uiso   1.00
C13    C     0.22019   0.28497   0.23151   0.00000  Uiso   1.00
C14    C     0.16661   0.16667   0.07293   0.00000  Uiso   1.00
C15    C     0.16672   0.16667   0.26040   0.00000  Uiso   1.00
C16    C     0.16664   0.16667   0.02181   0.00000  Uiso   1.00
C17    C     0.16669   0.16667   0.31153   0.00000  Uiso   1.00
C18    C     0.02128   0.12561   0.16665   0.00000  Uiso   1.00
C19    C     0.31205   0.20773   0.16668   0.00000  Uiso   1.00
C20    C     0.31205   0.12561   0.16669   0.00000  Uiso   1.00
H21    H     0.03740   0.09358   0.16668   0.00000  Uiso   1.00
H22    H     0.29594   0.23976   0.16666   0.00000  Uiso   1.00
H23    H     0.29594   0.09358   0.16667   0.00000  Uiso   1.00
H24    H     0.03740   0.23976   0.16666   0.00000  Uiso   1.00
N25    N     0.16667   0.28573   0.16667   0.00000  Uiso   1.00
N26    N     0.16667   0.04760   0.16667   0.00000  Uiso   1.00
N27    N     0.24236   0.06764   0.25844   0.00000  Uiso   1.00
N28    N     0.09097   0.26570   0.07490   0.00000  Uiso   1.00
N29    N     0.09097   0.06764   0.07490   0.00000  Uiso   1.00
N30    N     0.24236   0.26570   0.25844   0.00000  Uiso   1.00
O31    O     0.10559   0.20487   0.16666   0.00000  Uiso   1.00
O32    O     0.22774   0.12846   0.16667   0.00000  Uiso   1.00
O33    O     0.22774   0.20487   0.16667   0.00000  Uiso   1.00
O34    O     0.10559   0.12846   0.16666   0.00000  Uiso   1.00
O35    O     0.16667   0.20488   0.09511   0.00000  Uiso   1.00
O36    O     0.16666   0.12845   0.23822   0.00000  Uiso   1.00
O37    O     0.16666   0.20488   0.23822   0.00000  Uiso   1.00
O38    O     0.16667   0.12845   0.09511   0.00000  Uiso   1.00
Zn39   Zn    0.16667   0.21771   0.16667   0.00000  Uiso   1.00
Zn40   Zn    0.16667   0.11563   0.16667   0.00000  Uiso   1.00
C41    C     0.42001   0.16667   0.16661   0.00000  Uiso   1.00
C42    C     0.35461   0.20773   0.16665   0.00000  Uiso   1.00
C43    C     0.62418   0.16667   0.16672   0.00000  Uiso   1.00
C44    C     0.37582   0.16667   0.16662   0.00000  Uiso   1.00
C45    C     0.52600   0.02403   0.19811   0.00000  Uiso   1.00
C46    C     0.47400   0.30931   0.13522   0.00000  Uiso   1.00
C47    C     0.47400   0.02403   0.13522   0.00000  Uiso   1.00
C48    C     0.52600   0.30931   0.19811   0.00000  Uiso   1.00
C49    C     0.55353   0.04836   0.23151   0.00000  Uiso   1.00
C50    C     0.44647   0.28497   0.10182   0.00000  Uiso   1.00
C51    C     0.44647   0.04836   0.10182   0.00000  Uiso   1.00
C52    C     0.57999   0.16667   0.16673   0.00000  Uiso   1.00
C53    C     0.55353   0.28497   0.23151   0.00000  Uiso   1.00
C54    C     0.49994   0.16667   0.07293   0.00000  Uiso   1.00
C55    C     0.50006   0.16667   0.26040   0.00000  Uiso   1.00
C56    C     0.49998   0.16667   0.02181   0.00000  Uiso   1.00
C57    C     0.50002   0.16667   0.31153   0.00000  Uiso   1.00
C58    C     0.35462   0.12561   0.16665   0.00000  Uiso   1.00
C59    C     0.64538   0.20773   0.16668   0.00000  Uiso   1.00
C60    C     0.64538   0.12561   0.16669   0.00000  Uiso   1.00
H61    H     0.37073   0.09358   0.16668   0.00000  Uiso   1.00
H62    H     0.62927   0.23976   0.16666   0.00000  Uiso   1.00
H63    H     0.62927   0.09358   0.16667   0.00000  Uiso   1.00
H64    H     0.37073   0.23976   0.16666   0.00000  Uiso   1.00
N65    N     0.50000   0.28573   0.16667   0.00000  Uiso   1.00
N66    N     0.50000   0.04760   0.16667   0.00000  Uiso   1.00
N67    N     0.57569   0.06764   0.25844   0.00000  Uiso   1.00
N68    N     0.42431   0.26570   0.07490   0.00000  Uiso   1.00
N69    N     0.42430   0.06764   0.07490   0.00000  Uiso   1.00
N70    N     0.57570   0.26570   0.25844   0.00000  Uiso   1.00
O71    O     0.43892   0.20487   0.16666   0.00000  Uiso   1.00
O72    O     0.56108   0.12846   0.16667   0.00000  Uiso   1.00
O73    O     0.56108   0.20487   0.16667   0.00000  Uiso   1.00
O74    O     0.43892   0.12846   0.16666   0.00000  Uiso   1.00
O75    O     0.50000   0.20488   0.09511   0.00000  Uiso   1.00
O76    O     0.50000   0.12845   0.23822   0.00000  Uiso   1.00
O77    O     0.50000   0.20488   0.23822   0.00000  Uiso   1.00
O78    O     0.50000   0.12845   0.09511   0.00000  Uiso   1.00
Zn79   Zn    0.50000   0.21771   0.16667   0.00000  Uiso   1.00
Zn80   Zn    0.50000   0.11563   0.16667   0.00000  Uiso   1.00
C81    C     0.75334   0.16667   0.16661   0.00000  Uiso   1.00
C82    C     0.68795   0.20773   0.16665   0.00000  Uiso   1.00
C83    C     0.95751   0.16667   0.16672   0.00000  Uiso   1.00
C84    C     0.70916   0.16667   0.16662   0.00000  Uiso   1.00
C85    C     0.85933   0.02403   0.19811   0.00000  Uiso   1.00
C86    C     0.80734   0.30931   0.13522   0.00000  Uiso   1.00
C87    C     0.80734   0.02403   0.13522   0.00000  Uiso   1.00
C88    C     0.85933   0.30931   0.19811   0.00000  Uiso   1.00
C89    C     0.88686   0.04836   0.23151   0.00000  Uiso   1.00
C90    C     0.77981   0.28497   0.10182   0.00000  Uiso   1.00
C91    C     0.77980   0.04836   0.10182   0.00000  Uiso   1.00
C92    C     0.91333   0.16667   0.16673   0.00000  Uiso   1.00
C93    C     0.88686   0.28497   0.23151   0.00000  Uiso   1.00
C94    C     0.83328   0.16667   0.07293   0.00000  Uiso   1.00
C95    C     0.83339   0.16667   0.26040   0.00000  Uiso   1.00
C96    C     0.83331   0.16667   0.02181   0.00000  Uiso   1.00
C97    C     0.83336   0.16667   0.31153   0.00000  Uiso   1.00
C98    C     0.68795   0.12561   0.16665   0.00000  Uiso   1.00
C99    C     0.97872   0.20773   0.16668   0.00000  Uiso   1.00
C100   C     0.97872   0.12561   0.16669   0.00000  Uiso   1.00
H101   H     0.70406   0.09358   0.16668   0.00000  Uiso   1.00
H102   H     0.96260   0.23976   0.16666   0.00000  Uiso   1.00
H103   H     0.96260   0.09358   0.16667   0.00000  Uiso   1.00
H104   H     0.70406   0.23976   0.16666   0.00000  Uiso   1.00
N105   N     0.83333   0.28573   0.16667   0.00000  Uiso   1.00
N106   N     0.83333   0.04760   0.16667   0.00000  Uiso   1.00
N107   N     0.90903   0.06764   0.25844   0.00000  Uiso   1.00
N108   N     0.75764   0.26570   0.07490   0.00000  Uiso   1.00
N109   N     0.75764   0.06764   0.07490   0.00000  Uiso   1.00
N110   N     0.90903   0.26570   0.25844   0.00000  Uiso   1.00
O111   O     0.77226   0.20487   0.16666   0.00000  Uiso   1.00
O112   O     0.89441   0.12846   0.16667   0.00000  Uiso   1.00
O113   O     0.89441   0.20487   0.16667   0.00000  Uiso   1.00
O114   O     0.77226   0.12846   0.16666   0.00000  Uiso   1.00
O115   O     0.83334   0.20488   0.09511   0.00000  Uiso   1.00
O116   O     0.83333   0.12845   0.23822   0.00000  Uiso   1.00
O117   O     0.83333   0.20488   0.23822   0.00000  Uiso   1.00
O118   O     0.83334   0.12845   0.09511   0.00000  Uiso   1.00
Zn119  Zn    0.83333   0.21771   0.16667   0.00000  Uiso   1.00
Zn120  Zn    0.83333   0.11563   0.16667   0.00000  Uiso   1.00
C121   C     0.08667   0.50000   0.16661   0.00000  Uiso   1.00
C122   C     0.02128   0.54106   0.16665   0.00000  Uiso   1.00
C123   C     0.29084   0.50000   0.16672   0.00000  Uiso   1.00
C124   C     0.04249   0.50000   0.16662   0.00000  Uiso   1.00
C125   C     0.19266   0.35736   0.19811   0.00000  Uiso   1.00
C126   C     0.14067   0.64264   0.13522   0.00000  Uiso   1.00
C127   C     0.14067   0.35736   0.13522   0.00000  Uiso   1.00
C128   C     0.19266   0.64264   0.19811   0.00000  Uiso   1.00
C129   C     0.22019   0.38170   0.23151   0.00000  Uiso   1.00
C130   C     0.11314   0.61830   0.10182   0.00000  Uiso   1.00
C131   C     0.11314   0.38170   0.10182   0.00000  Uiso   1.00
C132   C     0.24666   0.50000   0.16673   0.00000  Uiso   1.00
C133   C     0.22019   0.61830   0.23151   0.00000  Uiso   1.00
C134   C     0.16661   0.50000   0.07293   0.00000  Uiso   1.00
C135   C     0.16672   0.50000   0.26040   0.00000  Uiso   1.00
C136   C     0.16664   0.50000   0.02181   0.00000  Uiso   1.00
C137   C     0.16669   0.50000   0.31153   0.00000  Uiso   1.00
C138   C     0.02128   0.45894   0.16665   0.00000  Uiso   1.00
C139   C     0.31205   0.54106   0.16668   0.00000  Uiso   1.00
C140   C     0.31205   0.45894   0.16669   0.00000  Uiso   1.00
H141   H     0.03740   0.42691   0.16668   0.00000  Uiso   1.00
H142   H     0.29594   0.57309   0.16666   0.00000  Uiso   1.00
H143   H     0.29594   0.42691   0.16667   0.00000  Uiso   1.00
H144   H     0.03740   0.57309   0.16666   0.00000  Uiso   1.00
N145   N     0.16667   0.61907   0.16667   0.00000  Uiso   1.00
N146   N     0.16667   0.38093   0.16667   0.00000  Uiso   1.00
N147   N     0.24236   0.40097   0.25844   0.00000  Uiso   1.00
N148   N     0.09097   0.59903   0.07490   0.00000  Uiso   1.00
N149   N     0.09097   0.40097   0.07490   0.00000  Uiso   1.00
N150   N     0.24236   0.59903   0.25844   0.00000  Uiso   1.00
O151   O     0.10559   0.53821   0.16666   0.00000  Uiso   1.00
O152   O     0.22774   0.46179   0.16667   0.00000  Uiso   1.00
O153   O     0.22774   0.53821   0.16667   0.00000  Uiso   1.00
O154   O     0.10559   0.46179   0.16666   0.00000  Uiso   1.00
O155   O     0.16667   0.53821   0.09511   0.00000  Uiso   1.00
O156   O     0.16666   0.46179   0.23822   0.00000  Uiso   1.00
O157   O     0.16666   0.53821   0.23822   0.00000  Uiso   1.00
O158   O     0.16667   0.46179   0.09511   0.00000  Uiso   1.00
Zn159  Zn    0.16667   0.55104   0.16667   0.00000  Uiso   1.00
Zn160  Zn    0.16667   0.44896   0.16667   0.00000  Uiso   1.00
C161   C     0.42001   0.50000   0.16661   0.00000  Uiso   1.00
C162   C     0.35461   0.54106   0.16665   0.00000  Uiso   1.00
C163   C     0.62418   0.50000   0.16672   0.00000  Uiso   1.00
C164   C     0.37582   0.50000   0.16662   0.00000  Uiso   1.00
C165   C     0.52600   0.35736   0.19811   0.00000  Uiso   1.00
C166   C     0.47400   0.64264   0.13522   0.00000  Uiso   1.00
C167   C     0.47400   0.35736   0.13522   0.00000  Uiso   1.00
C168   C     0.52600   0.64264   0.19811   0.00000  Uiso   1.00
C169   C     0.55353   0.38170   0.23151   0.00000  Uiso   1.00
C170   C     0.44647   0.61830   0.10182   0.00000  Uiso   1.00
C171   C     0.44647   0.38170   0.10182   0.00000  Uiso   1.00
C172   C     0.57999   0.50000   0.16673   0.00000  Uiso   1.00
C173   C     0.55353   0.61830   0.23151   0.00000  Uiso   1.00
C174   C     0.49994   0.50000   0.07293   0.00000  Uiso   1.00
C175   C     0.50006   0.50000   0.26040   0.00000  Uiso   1.00
C176   C     0.49998   0.50000   0.02181   0.00000  Uiso   1.00
C177   C     0.50002   0.50000   0.31153   0.00000  Uiso   1.00
C178   C     0.35462   0.45894   0.16665   0.00000  Uiso   1.00
C179   C     0.64538   0.54106   0.16668   0.00000  Uiso   1.00
C180   C     0.64538   0.45894   0.16669   0.00000  Uiso   1.00
H181   H     0.37073   0.42691   0.16668   0.00000  Uiso   1.00
H182   H     0.62927   0.57309   0.16666   0.00000  Uiso   1.00
H183   H     0.62927   0.42691   0.16667   0.00000  Uiso   1.00
H184   H     0.37073   0.57309   0.16666   0.00000  Uiso   1.00
N185   N     0.50000   0.61907   0.16667   0.00000  Uiso   1.00
N186   N     0.50000   0.38093   0.16667   0.00000  Uiso   1.00
N187   N     0.57569   0.40097   0.25844   0.00000  Uiso   1.00
N188   N     0.42431   0.59903   0.07490   0.00000  Uiso   1.00
N189   N     0.42430   0.40097   0.07490   0.00000  Uiso   1.00
N190   N     0.57570   0.59903   0.25844   0.00000  Uiso   1.00
O191   O     0.43892   0.53821   0.16666   0.00000  Uiso   1.00
O192   O     0.56108   0.46179   0.16667   0.00000  Uiso   1.00
O193   O     0.56108   0.53821   0.16667   0.00000  Uiso   1.00
O194   O     0.43892   0.46179   0.16666   0.00000  Uiso   1.00
O195   O     0.50000   0.53821   0.09511   0.00000  Uiso   1.00
O196   O     0.50000   0.46179   0.23822   0.00000  Uiso   1.00
O197   O     0.50000   0.53821   0.23822   0.00000  Uiso   1.00
O198   O     0.50000   0.46179   0.09511   0.00000  Uiso   1.00
Zn199  Zn    0.50000   0.55104   0.16667   0.00000  Uiso   1.00
Zn200  Zn    0.50000   0.44896   0.16667   0.00000  Uiso   1.00
C201   C     0.75334   0.50000   0.16661   0.00000  Uiso   1.00
C202   C     0.68795   0.54106   0.16665   0.00000  Uiso   1.00
C203   C     0.95751   0.50000   0.16672   0.00000  Uiso   1.00
C204   C     0.70916   0.50000   0.16662   0.00000  Uiso   1.00
C205   C     0.85933   0.35736   0.19811   0.00000  Uiso   1.00
C206   C     0.80734   0.64264   0.13522   0.00000  Uiso   1.00
C207   C     0.80734   0.35736   0.13522   0.00000  Uiso   1.00
C208   C     0.85933   0.64264   0.19811   0.00000  Uiso   1.00
C209   C     0.88686   0.38170   0.23151   0.00000  Uiso   1.00
C210   C     0.77981   0.61830   0.10182   0.00000  Uiso   1.00
C211   C     0.77980   0.38170   0.10182   0.00000  Uiso   1.00
C212   C     0.91333   0.50000   0.16673   0.00000  Uiso   1.00
C213   C     0.88686   0.61830   0.23151   0.00000  Uiso   1.00
C214   C     0.83328   0.50000   0.07293   0.00000  Uiso   1.00
C215   C     0.83339   0.50000   0.26040   0.00000  Uiso   1.00
C216   C     0.83331   0.50000   0.02181   0.00000  Uiso   1.00
C217   C     0.83336   0.50000   0.31153   0.00000  Uiso   1.00
C218   C     0.68795   0.45894   0.16665   0.00000  Uiso   1.00
C219   C     0.97872   0.54106   0.16668   0.00000  Uiso   1.00
C220   C     0.97872   0.45894   0.16669   0.00000  Uiso   1.00
H221   H     0.70406   0.42691   0.16668   0.00000  Uiso   1.00
H222   H     0.96260   0.57309   0.16666   0.00000  Uiso   1.00
H223   H     0.96260   0.42691   0.16667   0.00000  Uiso   1.00
H224   H     0.70406   0.57309   0.16666   0.00000  Uiso   1.00
N225   N     0.83333   0.61907   0.16667   0.00000  Uiso   1.00
N226   N     0.83333   0.38093   0.16667   0.00000  Uiso   1.00
N227   N     0.90903   0.40097   0.25844   0.00000  Uiso   1.00
N228   N     0.75764   0.59903   0.07490   0.00000  Uiso   1.00
N229   N     0.75764   0.40097   0.07490   0.00000  Uiso   1.00
N230   N     0.90903   0.59903   0.25844   0.00000  Uiso   1.00
O231   O     0.77226   0.53821   0.16666   0.00000  Uiso   1.00
O232   O     0.89441   0.46179   0.16667   0.00000  Uiso   1.00
O233   O     0.89441   0.53821   0.16667   0.00000  Uiso   1.00
O234   O     0.77226   0.46179   0.16666   0.00000  Uiso   1.00
O235   O     0.83334   0.53821   0.09511   0.00000  Uiso   1.00
O236   O     0.83333   0.46179   0.23822   0.00000  Uiso   1.00
O237   O     0.83333   0.53821   0.23822   0.00000  Uiso   1.00
O238   O     0.83334   0.46179   0.09511   0.00000  Uiso   1.00
Zn239  Zn    0.83333   0.55104   0.16667   0.00000  Uiso   1.00
Zn240  Zn    0.83333   0.44896   0.16667   0.00000  Uiso   1.00
C241   C     0.08667   0.83333   0.16661   0.00000  Uiso   1.00
C242   C     0.02128   0.87439   0.16665   0.00000  Uiso   1.00
C243   C     0.29084   0.83333   0.16672   0.00000  Uiso   1.00
C244   C     0.04249   0.83333   0.16662   0.00000  Uiso   1.00
C245   C     0.19266   0.69069   0.19811   0.00000  Uiso   1.00
C246   C     0.14067   0.97597   0.13522   0.00000  Uiso   1.00
C247   C     0.14067   0.69069   0.13522   0.00000  Uiso   1.00
C248   C     0.19266   0.97597   0.19811   0.00000  Uiso   1.00
C249   C     0.22019   0.71503   0.23151   0.00000  Uiso   1.00
C250   C     0.11314   0.95164   0.10182   0.00000  Uiso   1.00
C251   C     0.11314   0.71503   0.10182   0.00000  Uiso   1.00
C252   C     0.24666   0.83333   0.16673   0.00000  Uiso   1.00
C253   C     0.22019   0.95164   0.23151   0.00000  Uiso   1.00
C254   C     0.16661   0.83333   0.07293   0.00000  Uiso   1.00
C255   C     0.16672   0.83333   0.26040   0.00000  Uiso   1.00
C256   C     0.16664   0.83333   0.02181   0.00000  Uiso   1.00
C257   C     0.16669   0.83333   0.31153   0.00000  Uiso   1.00
C258   C     0.02128   0.79227   0.16665   0.00000  Uiso   1.00
C259   C     0.31205   0.87439   0.16668   0.00000  Uiso   1.00
C260   C     0.31205   0.79227   0.16669   0.00000  Uiso   1.00
H261   H     0.03740   0.76024   0.16668   0.00000  Uiso   1.00
H262   H     0.29594   0.90642   0.16666   0.00000  Uiso   1.00
H263   H     0.29594   0.76024   0.16667   0.00000  Uiso   1.00
H264   H     0.03740   0.90642   0.16666   0.00000  Uiso   1.00
N265   N     0.16667   0.95240   0.16667   0.00000  Uiso   1.00
N266   N     0.16667   0.71427   0.16667   0.00000  Uiso   1.00
N267   N     0.24236   0.73430   0.25844   0.00000  Uiso   1.00
N268   N     0.09097   0.93236   0.07490   0.00000  Uiso   1.00
N269   N     0.09097   0.73430   0.07490   0.00000  Uiso   1.00
N270   N     0.24236   0.93236   0.25844   0.00000  Uiso   1.00
O271   O     0.10559   0.87154   0.16666   0.00000  Uiso   1.00
O272   O     0.22774   0.79513   0.16667   0.00000  Uiso   1.00
O273   O     0.22774   0.87154   0.16667   0.00000  Uiso   1.00
O274   O     0.10559   0.79513   0.16666   0.00000  Uiso   1.00
O275   O     0.16667   0.87155   0.09511   0.00000  Uiso   1.00
O276   O     0.16666   0.79512   0.23822   0.00000  Uiso   1.00
O277   O     0.16666   0.87155   0.23822   0.00000  Uiso   1.00
O278   O     0.16667   0.79512   0.09511   0.00000  Uiso   1.00
Zn279  Zn    0.16667   0.88437   0.16667   0.00000  Uiso   1.00
Zn280  Zn    0.16667   0.78229   0.16667   0.00000  Uiso   1.00
C281   C     0.42001   0.83333   0.16661   0.00000  Uiso   1.00
C282   C     0.35461   0.87439   0.16665   0.00000  Uiso   1.00
C283   C     0.62418   0.83333   0.16672   0.00000  Uiso   1.00
C284   C     0.37582   0.83333   0.16662   0.00000  Uiso   1.00
C285   C     0.52600   0.69069   0.19811   0.00000  Uiso   1.00
C286   C     0.47400   0.97597   0.13522   0.00000  Uiso   1.00
C287   C     0.47400   0.69069   0.13522   0.00000  Uiso   1.00
C288   C     0.52600   0.97597   0.19811   0.00000  Uiso   1.00
C289   C     0.55353   0.71503   0.23151   0.00000  Uiso   1.00
C290   C     0.44647   0.95164   0.10182   0.00000  Uiso   1.00
C291   C     0.44647   0.71503   0.10182   0.00000  Uiso   1.00
C292   C     0.57999   0.83333   0.16673   0.00000  Uiso   1.00
C293   C     0.55353   0.95164   0.23151   0.00000  Uiso   1.00
C294   C     0.49994   0.83333   0.07293   0.00000  Uiso   1.00
C295   C     0.50006   0.83333   0.26040   0.00000  Uiso   1.00
C296   C     0.49998   0.83333   0.02181   0.00000  Uiso   1.00
C297   C     0.50002   0.83333   0.31153   0.00000  Uiso   1.00
C298   C     0.35462   0.79227   0.16665   0.00000  Uiso   1.00
C299   C     0.64538   0.87439   0.16668   0.00000  Uiso   1.00
C300   C     0.64538   0.79227   0.16669   0.00000  Uiso   1.00
H301   H     0.37073   0.76024   0.16668   0.00000  Uiso   1.00
H302   H     0.62927   0.90642   0.16666   0.00000  Uiso   1.00
H303   H     0.62927   0.76024   0.16667   0.00000  Uiso   1.00
H304   H     0.37073   0.90642   0.16666   0.00000  Uiso   1.00
N305   N     0.50000   0.95240   0.16667   0.00000  Uiso   1.00
N306   N     0.50000   0.71427   0.16667   0.00000  Uiso   1.00
N307   N     0.57569   0.73430   0.25844   0.00000  Uiso   1.00
N308   N     0.42431   0.93236   0.07490   0.00000  Uiso   1.00
N309   N     0.42430   0.73430   0.07490   0.00000  Uiso   1.00
N310   N     0.57570   0.93236   0.25844   0.00000  Uiso   1.00
O311   O     0.43892   0.87154   0.16666   0.00000  Uiso   1.00
O312   O     0.56108   0.79513   0.16667   0.00000  Uiso   1.00
O313   O     0.56108   0.87154   0.16667   0.00000  Uiso   1.00
O314   O     0.43892   0.79513   0.16666   0.00000  Uiso   1.00
O315   O     0.50000   0.87155   0.09511   0.00000  Uiso   1.00
O316   O     0.50000   0.79512   0.23822   0.00000  Uiso   1.00
O317   O     0.50000   0.87155   0.23822   0.00000  Uiso   1.00
O318   O     0.50000   0.79512   0.09511   0.00000  Uiso   1.00
Zn319  Zn    0.50000   0.88437   0.16667   0.00000  Uiso   1.00
Zn320  Zn    0.50000   0.78229   0.16667   0.00000  Uiso   1.00
C321   C     0.75334   0.83333   0.16661   0.00000  Uiso   1.00
C322   C     0.68795   0.87439   0.16665   0.00000  Uiso   1.00
C323   C     0.95751   0.83333   0.16672   0.00000  Uiso   1.00
C324   C     0.70916   0.83333   0.16662   0.00000  Uiso   1.00
C325   C     0.85933   0.69069   0.19811   0.00000  Uiso   1.00
C326   C     0.80734   0.97597   0.13522   0.00000  Uiso   1.00
C327   C     0.80734   0.69069   0.13522   0.00000  Uiso   1.00
C328   C     0.85933   0.97597   0.19811   0.00000  Uiso   1.00
C329   C     0.88686   0.71503   0.23151   0.00000  Uiso   1.00
C330   C     0.77981   0.95164   0.10182   0.00000  Uiso   1.00
C331   C     0.77980   0.71503   0.10182   0.00000  Uiso   1.00
C332   C     0.91333   0.83333   0.16673   0.00000  Uiso   1.00
C333   C     0.88686   0.95164   0.23151   0.00000  Uiso   1.00
C334   C     0.83328   0.83333   0.07293   0.00000  Uiso   1.00
C335   C     0.83339   0.83333   0.26040   0.00000  Uiso   1.00
C336   C     0.83331   0.83333   0.02181   0.00000  Uiso   1.00
C337   C     0.83336   0.83333   0.31153   0.00000  Uiso   1.00
C338   C     0.68795   0.79227   0.16665   0.00000  Uiso   1.00
C339   C     0.97872   0.87439   0.16668   0.00000  Uiso   1.00
C340   C     0.97872   0.79227   0.16669   0.00000  Uiso   1.00
H341   H     0.70406   0.76024   0.16668   0.00000  Uiso   1.00
H342   H     0.96260   0.90642   0.16666   0.00000  Uiso   1.00
H343   H     0.96260   0.76024   0.16667   0.00000  Uiso   1.00
H344   H     0.70406   0.90642   0.16666   0.00000  Uiso   1.00
N345   N     0.83333   0.95240   0.16667   0.00000  Uiso   1.00
N346   N     0.83333   0.71427   0.16667   0.00000  Uiso   1.00
N347   N     0.90903   0.73430   0.25844   0.00000  Uiso   1.00
N348   N     0.75764   0.93236   0.07490   0.00000  Uiso   1.00
N349   N     0.75764   0.73430   0.07490   0.00000  Uiso   1.00
N350   N     0.90903   0.93236   0.25844   0.00000  Uiso   1.00
O351   O     0.77226   0.87154   0.16666   0.00000  Uiso   1.00
O352   O     0.89441   0.79513   0.16667   0.00000  Uiso   1.00
O353   O     0.89441   0.87154   0.16667   0.00000  Uiso   1.00
O354   O     0.77226   0.79513   0.16666   0.00000  Uiso   1.00
O355   O     0.83334   0.87155   0.09511   0.00000  Uiso   1.00
O356   O     0.83333   0.79512   0.23822   0.00000  Uiso   1.00
O357   O     0.83333   0.87155   0.23822   0.00000  Uiso   1.00
O358   O     0.83334   0.79512   0.09511   0.00000  Uiso   1.00
Zn359  Zn    0.83333   0.88437   0.16667   0.00000  Uiso   1.00
Zn360  Zn    0.83333   0.78229   0.16667   0.00000  Uiso   1.00
C361   C     0.08667   0.16667   0.49994   0.00000  Uiso   1.00
C362   C     0.02128   0.20773   0.49998   0.00000  Uiso   1.00
C363   C     0.29084   0.16667   0.50005   0.00000  Uiso   1.00
C364   C     0.04249   0.16667   0.49995   0.00000  Uiso   1.00
C365   C     0.19266   0.02403   0.53144   0.00000  Uiso   1.00
C366   C     0.14067   0.30931   0.46856   0.00000  Uiso   1.00
C367   C     0.14067   0.02403   0.46856   0.00000  Uiso   1.00
C368   C     0.19266   0.30931   0.53144   0.00000  Uiso   1.00
C369   C     0.22019   0.04836   0.56484   0.00000  Uiso   1.00
C370   C     0.11314   0.28497   0.43516   0.00000  Uiso   1.00
C371   C     0.11314   0.04836   0.43516   0.00000  Uiso   1.00
C372   C     0.24666   0.16667   0.50006   0.00000  Uiso   1.00
C373   C     0.22019   0.28497   0.56484   0.00000  Uiso   1.00
C374   C     0.16661   0.16667   0.40627   0.00000  Uiso   1.00
C375   C     0.16672   0.16667   0.59373   0.00000  Uiso   1.00
C376   C     0.16664   0.16667   0.35514   0.00000  Uiso   1.00
C377   C     0.16669   0.16667   0.64486   0.00000  Uiso   1.00
C378   C     0.02128   0.12561   0.49999   0.00000  Uiso   1.00
C379   C     0.31205   0.20773   0.50001   0.00000  Uiso   1.00
C380   C     0.31205   0.12561   0.50002   0.00000  Uiso   1.00
H381   H     0.03740   0.09358   0.50001   0.00000  Uiso   1.00
H382   H     0.29594   0.23976   0.49999   0.00000  Uiso   1.00
H383   H     0.29594   0.09358   0.50001   0.00000  Uiso   1.00
H384   H     0.03740   0.23976   0.49999   0.00000  Uiso   1.00
N385   N     0.16667   0.28573   0.50000   0.00000  Uiso   1.00
N386   N     0.16667   0.04760   0.50000   0.00000  Uiso   1.00
N387   N     0.24236   0.06764   0.59177   0.00000  Uiso   1.00
N388   N     0.09097   0.26570   0.40823   0.00000  Uiso   1.00
N389   N     0.09097   0.06764   0.40823   0.00000  Uiso   1.00
N390   N     0.24236   0.26570   0.59177   0.00000  Uiso   1.00
O391   O     0.10559   0.20487   0.50000   0.00000  Uiso   1.00
O392   O     0.22774   0.12846   0.50000   0.00000  Uiso   1.00
O393   O     0.22774   0.20487   0.50000   0.00000  Uiso   1.00
O394   O     0.10559   0.12846   0.50000   0.00000  Uiso   1.00
O395   O     0.16667   0.20488   0.42845   0.00000  Uiso   1.00
O396   O     0.16666   0.12845   0.57155   0.00000  Uiso   1.00
O397   O     0.16666   0.20488   0.57155   0.00000  Uiso   1.00
O398   O     0.16667   0.12845   0.42845   0.00000  Uiso   1.00
Zn399  Zn    0.16667   0.21771   0.50000   0.00000  Uiso   1.00
Zn400  Zn    0.16667   0.11563   0.50000   0.00000  Uiso   1.00
C401   C     0.42001   0.16667   0.49994   0.00000  Uiso   1.00
C402   C     0.35461   0.20773   0.49998   0.00000  Uiso   1.00
C403   C     0.62418   0.16667   0.50005   0.00000  Uiso   1.00
C404   C     0.37582   0.16667   0.49995   0.00000  Uiso   1.00
C405   C     0.52600   0.02403   0.53144   0.00000  Uiso   1.00
C406   C     0.47400   0.30931   0.46856   0.00000  Uiso   1.00
C407   C     0.47400   0.02403   0.46856   0.00000  Uiso   1.00
C408   C     0.52600   0.30931   0.53144   0.00000  Uiso   1.00
C409   C     0.55353   0.04836   0.56484   0.00000  Uiso   1.00
C410   C     0.44647   0.28497   0.43516   0.00000  Uiso   1.00
C411   C     0.44647   0.04836   0.43516   0.00000  Uiso   1.00
C412   C     0.57999   0.16667   0.50006   0.00000  Uiso   1.00
C413   C     0.55353   0.28497   0.56484   0.00000  Uiso   1.00
C414   C     0.49994   0.16667   0.40627   0.00000  Uiso   1.00
C415   C     0.50006   0.16667   0.59373   0.00000  Uiso   1.00
C416   C     0.49998   0.16667   0.35514   0.00000  Uiso   1.00
C417   C     0.50002   0.16667   0.64486   0.00000  Uiso   1.00
C418   C     0.35462   0.12561   0.49999   0.00000  Uiso   1.00
C419   C     0.64538   0.20773   0.50001   0.00000  Uiso   1.00
C420   C     0.64538   0.12561   0.50002   0.00000  Uiso   1.00
H421   H     0.37073   0.09358   0.50001   0.00000  Uiso   1.00
H422   H     0.62927   0.23976   0.49999   0.00000  Uiso   1.00
H423   H     0.62927   0.09358   0.50001   0.00000  Uiso   1.00
H424   H     0.37073   0.23976   0.49999   0.00000  Uiso   1.00
N425   N     0.50000   0.28573   0.50000   0.00000  Uiso   1.00
N426   N     0.50000   0.04760   0.50000   0.00000  Uiso   1.00
N427   N     0.57569   0.06764   0.59177   0.00000  Uiso   1.00
N428   N     0.42431   0.26570   0.40823   0.00000  Uiso   1.00
N429   N     0.42430   0.06764   0.40823   0.00000  Uiso   1.00
N430   N     0.57570   0.26570   0.59177   0.00000  Uiso   1.00
O431   O     0.43892   0.20487   0.50000   0.00000  Uiso   1.00
O432   O     0.56108   0.12846   0.50000   0.00000  Uiso   1.00
O433   O     0.56108   0.20487   0.50000   0.00000  Uiso   1.00
O434   O     0.43892   0.12846   0.50000   0.00000  Uiso   1.00
O435   O     0.50000   0.20488   0.42845   0.00000  Uiso   1.00
O436   O     0.50000   0.12845   0.57155   0.00000  Uiso   1.00
O437   O     0.50000   0.20488   0.57155   0.00000  Uiso   1.00
O438   O     0.50000   0.12845   0.42845   0.00000  Uiso   1.00
Zn439  Zn    0.50000   0.21771   0.50000   0.00000  Uiso   1.00
Zn440  Zn    0.50000   0.11563   0.50000   0.00000  Uiso   1.00
C441   C     0.75334   0.16667   0.49994   0.00000  Uiso   1.00
C442   C     0.68795   0.20773   0.49998   0.00000  Uiso   1.00
C443   C     0.95751   0.16667   0.50005   0.00000  Uiso   1.00
C444   C     0.70916   0.16667   0.49995   0.00000  Uiso   1.00
C445   C     0.85933   0.02403   0.53144   0.00000  Uiso   1.00
C446   C     0.80734   0.30931   0.46856   0.00000  Uiso   1.00
C447   C     0.80734   0.02403   0.46856   0.00000  Uiso   1.00
C448   C     0.85933   0.30931   0.53144   0.00000  Uiso   1.00
C449   C     0.88686   0.04836   0.56484   0.00000  Uiso   1.00
C450   C     0.77981   0.28497   0.43516   0.00000  Uiso   1.00
C451   C     0.77980   0.04836   0.43516   0.00000  Uiso   1.00
C452   C     0.91333   0.16667   0.50006   0.00000  Uiso   1.00
C453   C     0.88686   0.28497   0.56484   0.00000  Uiso   1.00
C454   C     0.83328   0.16667   0.40627   0.00000  Uiso   1.00
C455   C     0.83339   0.16667   0.59373   0.00000  Uiso   1.00
C456   C     0.83331   0.16667   0.35514   0.00000  Uiso   1.00
C457   C     0.83336   0.16667   0.64486   0.00000  Uiso   1.00
C458   C     0.68795   0.12561   0.49999   0.00000  Uiso   1.00
C459   C     0.97872   0.20773   0.50001   0.00000  Uiso   1.00
C460   C     0.97872   0.12561   0.50002   0.00000  Uiso   1.00
H461   H     0.70406   0.09358   0.50001   0.00000  Uiso   1.00
H462   H     0.96260   0.23976   0.49999   0.00000  Uiso   1.00
H463   H     0.96260   0.09358   0.50001   0.00000  Uiso   1.00
H464   H     0.70406   0.23976   0.49999   0.00000  Uiso   1.00
N465   N     0.83333   0.28573   0.50000   0.00000  Uiso   1.00
N466   N     0.83333   0.04760   0.50000   0.00000  Uiso   1.00
N467   N     0.90903   0.06764   0.59177   0.00000  Uiso   1.00
N468   N     0.75764   0.26570   0.40823   0.00000  Uiso   1.00
N469   N     0.75764   0.06764   0.40823   0.00000  Uiso   1.00
N470   N     0.90903   0.26570   0.59177   0.00000  Uiso   1.00
O471   O     0.77226   0.20487   0.50000   0.00000  Uiso   1.00
O472   O     0.89441   0.12846   0.50000   0.00000  Uiso   1.00
O473   O     0.89441   0.20487   0.50000   0.00000  Uiso   1.00
O474   O     0.77226   0.12846   0.50000   0.00000  Uiso   1.00
O475   O     0.83334   0.20488   0.42845   0.00000  Uiso   1.00
O476   O     0.83333   0.12845   0.57155   0.00000  Uiso   1.00
O477   O     0.83333   0.20488   0.57155   0.00000  Uiso   1.00
O478   O     0.83334   0.12845   0.42845   0.00000  Uiso   1.00
Zn479  Zn    0.83333   0.21771   0.50000   0.00000  Uiso   1.00
Zn480  Zn    0.83333   0.11563   0.50000   0.00000  Uiso   1.00
C481   C     0.08667   0.50000   0.49994   0.00000  Uiso   1.00
C482   C     0.02128   0.54106   0.49998   0.00000  Uiso   1.00
C483   C     0.29084   0.50000   0.50005   0.00000  Uiso   1.00
C484   C     0.04249   0.50000   0.49995   0.00000  Uiso   1.00
C485   C     0.19266   0.35736   0.53144   0.00000  Uiso   1.00
C486   C     0.14067   0.64264   0.46856   0.00000  Uiso   1.00
C487   C     0.14067   0.35736   0.46856   0.00000  Uiso   1.00
C488   C     0.19266   0.64264   0.53144   0.00000  Uiso   1.00
C489   C     0.22019   0.38170   0.56484   0.00000  Uiso   1.00
C490   C     0.11314   0.61830   0.43516   0.00000  Uiso   1.00
C491   C     0.11314   0.38170   0.43516   0.00000  Uiso   1.00
C492   C     0.24666   0.50000   0.50006   0.00000  Uiso   1.00
C493   C     0.22019   0.61830   0.56484   0.00000  Uiso   1.00
C494   C     0.16661   0.50000   0.40627   0.00000  Uiso   1.00
C495   C     0.16672   0.50000   0.59373   0.00000  Uiso   1.00
C496   C     0.16664   0.50000   0.35514   0.00000  Uiso   1.00
C497   C     0.16669   0.50000   0.64486   0.00000  Uiso   1.00
C498   C     0.02128   0.45894   0.49999   0.00000  Uiso   1.00
C499   C     0.31205   0.54106   0.50001   0.00000  Uiso   1.00
C500   C     0.31205   0.45894   0.50002   0.00000  Uiso   1.00
H501   H     0.03740   0.42691   0.50001   0.00000  Uiso   1.00
H502   H     0.29594   0.57309   0.49999   0.00000  Uiso   1.00
H503   H     0.29594   0.42691   0.50001   0.00000  Uiso   1.00
H504   H     0.03740   0.57309   0.49999   0.00000  Uiso   1.00
N505   N     0.16667   0.61907   0.50000   0.00000  Uiso   1.00
N506   N     0.16667   0.38093   0.50000   0.00000  Uiso   1.00
N507   N     0.24236   0.40097   0.59177   0.00000  Uiso   1.00
N508   N     0.09097   0.59903   0.40823   0.00000  Uiso   1.00
N509   N     0.09097   0.40097   0.40823   0.00000  Uiso   1.00
N510   N     0.24236   0.59903   0.59177   0.00000  Uiso   1.00
O511   O     0.10559   0.53821   0.50000   0.00000  Uiso   1.00
O512   O     0.22774   0.46179   0.50000   0.00000  Uiso   1.00
O513   O     0.22774   0.53821   0.50000   0.00000  Uiso   1.00
O514   O     0.10559   0.46179   0.50000   0.00000  Uiso   1.00
O515   O     0.16667   0.53821   0.42845   0.00000  Uiso   1.00
O516   O     0.16666   0.46179   0.57155   0.00000  Uiso   1.00
O517   O     0.16666   0.53821   0.57155   0.00000  Uiso   1.00
O518   O     0.16667   0.46179   0.42845   0.00000  Uiso   1.00
Zn519  Zn    0.16667   0.55104   0.50000   0.00000  Uiso   1.00
Zn520  Zn    0.16667   0.44896   0.50000   0.00000  Uiso   1.00
C521   C     0.42001   0.50000   0.49994   0.00000  Uiso   1.00
C522   C     0.35461   0.54106   0.49998   0.00000  Uiso   1.00
C523   C     0.62418   0.50000   0.50005   0.00000  Uiso   1.00
C524   C     0.37582   0.50000   0.49995   0.00000  Uiso   1.00
C525   C     0.52600   0.35736   0.53144   0.00000  Uiso   1.00
C526   C     0.47400   0.64264   0.46856   0.00000  Uiso   1.00
C527   C     0.47400   0.35736   0.46856   0.00000  Uiso   1.00
C528   C     0.52600   0.64264   0.53144   0.00000  Uiso   1.00
C529   C     0.55353   0.38170   0.56484   0.00000  Uiso   1.00
C530   C     0.44647   0.61830   0.43516   0.00000  Uiso   1.00
C531   C     0.44647   0.38170   0.43516   0.00000  Uiso   1.00
C532   C     0.57999   0.50000   0.50006   0.00000  Uiso   1.00
C533   C     0.55353   0.61830   0.56484   0.00000  Uiso   1.00
C534   C     0.49994   0.50000   0.40627   0.00000  Uiso   1.00
C535   C     0.50006   0.50000   0.59373   0.00000  Uiso   1.00
C536   C     0.49998   0.50000   0.35514   0.00000  Uiso   1.00
C537   C     0.50002   0.50000   0.64486   0.00000  Uiso   1.00
C538   C     0.35462   0.45894   0.49999   0.00000  Uiso   1.00
C539   C     0.64538   0.54106   0.50001   0.00000  Uiso   1.00
C540   C     0.64538   0.45894   0.50002   0.00000  Uiso   1.00
H541   H     0.37073   0.42691   0.50001   0.00000  Uiso   1.00
H542   H     0.62927   0.57309   0.49999   0.00000  Uiso   1.00
H543   H     0.62927   0.42691   0.50001   0.00000  Uiso   1.00
H544   H     0.37073   0.57309   0.49999   0.00000  Uiso   1.00
N545   N     0.50000   0.61907   0.50000   0.00000  Uiso   1.00
N546   N     0.50000   0.38093   0.50000   0.00000  Uiso   1.00
N547   N     0.57569   0.40097   0.59177   0.00000  Uiso   1.00
N548   N     0.42431   0.59903   0.40823   0.00000  Uiso   1.00
N549   N     0.42430   0.40097   0.40823   0.00000  Uiso   1.00
N550   N     0.57570   0.59903   0.59177   0.00000  Uiso   1.00
O551   O     0.43892   0.53821   0.50000   0.00000  Uiso   1.00
O552   O     0.56108   0.46179   0.50000   0.00000  Uiso   1.00
O553   O     0.56108   0.53821   0.50000   0.00000  Uiso   1.00
O554   O     0.43892   0.46179   0.50000   0.00000  Uiso   1.00
O555   O     0.50000   0.53821   0.42845   0.00000  Uiso   1.00
O556   O     0.50000   0.46179   0.57155   0.00000  Uiso   1.00
O557   O     0.50000   0.53821   0.57155   0.00000  Uiso   1.00
O558   O     0.50000   0.46179   0.42845   0.00000  Uiso   1.00
Zn559  Zn    0.50000   0.55104   0.50000   0.00000  Uiso   1.00
Zn560  Zn    0.50000   0.44896   0.50000   0.00000  Uiso   1.00
C561   C     0.75334   0.50000   0.49994   0.00000  Uiso   1.00
C562   C     0.68795   0.54106   0.49998   0.00000  Uiso   1.00
C563   C     0.95751   0.50000   0.50005   0.00000  Uiso   1.00
C564   C     0.70916   0.50000   0.49995   0.00000  Uiso   1.00
C565   C     0.85933   0.35736   0.53144   0.00000  Uiso   1.00
C566   C     0.80734   0.64264   0.46856   0.00000  Uiso   1.00
C567   C     0.80734   0.35736   0.46856   0.00000  Uiso   1.00
C568   C     0.85933   0.64264   0.53144   0.00000  Uiso   1.00
C569   C     0.88686   0.38170   0.56484   0.00000  Uiso   1.00
C570   C     0.77981   0.61830   0.43516   0.00000  Uiso   1.00
C571   C     0.77980   0.38170   0.43516   0.00000  Uiso   1.00
C572   C     0.91333   0.50000   0.50006   0.00000  Uiso   1.00
C573   C     0.88686   0.61830   0.56484   0.00000  Uiso   1.00
C574   C     0.83328   0.50000   0.40627   0.00000  Uiso   1.00
C575   C     0.83339   0.50000   0.59373   0.00000  Uiso   1.00
C576   C     0.83331   0.50000   0.35514   0.00000  Uiso   1.00
C577   C     0.83336   0.50000   0.64486   0.00000  Uiso   1.00
C578   C     0.68795   0.45894   0.49999   0.00000  Uiso   1.00
C579   C     0.97872   0.54106   0.50001   0.00000  Uiso   1.00
C580   C     0.97872   0.45894   0.50002   0.00000  Uiso   1.00
H581   H     0.70406   0.42691   0.50001   0.00000  Uiso   1.00
H582   H     0.96260   0.57309   0.49999   0.00000  Uiso   1.00
H583   H     0.96260   0.42691   0.50001   0.00000  Uiso   1.00
H584   H     0.70406   0.57309   0.49999   0.00000  Uiso   1.00
N585   N     0.83333   0.61907   0.50000   0.00000  Uiso   1.00
N586   N     0.83333   0.38093   0.50000   0.00000  Uiso   1.00
N587   N     0.90903   0.40097   0.59177   0.00000  Uiso   1.00
N588   N     0.75764   0.59903   0.40823   0.00000  Uiso   1.00
N589   N     0.75764   0.40097   0.40823   0.00000  Uiso   1.00
N590   N     0.90903   0.59903   0.59177   0.00000  Uiso   1.00
O591   O     0.77226   0.53821   0.50000   0.00000  Uiso   1.00
O592   O     0.89441   0.46179   0.50000   0.00000  Uiso   1.00
O593   O     0.89441   0.53821   0.50000   0.00000  Uiso   1.00
O594   O     0.77226   0.46179   0.50000   0.00000  Uiso   1.00
O595   O     0.83334   0.53821   0.42845   0.00000  Uiso   1.00
O596   O     0.83333   0.46179   0.57155   0.00000  Uiso   1.00
O597   O     0.83333   0.53821   0.57155   0.00000  Uiso   1.00
O598   O     0.83334   0.46179   0.42845   0.00000  Uiso   1.00
Zn599  Zn    0.83333   0.55104   0.50000   0.00000  Uiso   1.00
Zn600  Zn    0.83333   0.44896   0.50000   0.00000  Uiso   1.00
C601   C     0.08667   0.83333   0.49994   0.00000  Uiso   1.00
C602   C     0.02128   0.87439   0.49998   0.00000  Uiso   1.00
C603   C     0.29084   0.83333   0.50005   0.00000  Uiso   1.00
C604   C     0.04249   0.83333   0.49995   0.00000  Uiso   1.00
C605   C     0.19266   0.69069   0.53144   0.00000  Uiso   1.00
C606   C     0.14067   0.97597   0.46856   0.00000  Uiso   1.00
C607   C     0.14067   0.69069   0.46856   0.00000  Uiso   1.00
C608   C     0.19266   0.97597   0.53144   0.00000  Uiso   1.00
C609   C     0.22019   0.71503   0.56484   0.00000  Uiso   1.00
C610   C     0.11314   0.95164   0.43516   0.00000  Uiso   1.00
C611   C     0.11314   0.71503   0.43516   0.00000  Uiso   1.00
C612   C     0.24666   0.83333   0.50006   0.00000  Uiso   1.00
C613   C     0.22019   0.95164   0.56484   0.00000  Uiso   1.00
C614   C     0.16661   0.83333   0.40627   0.00000  Uiso   1.00
C615   C     0.16672   0.83333   0.59373   0.00000  Uiso   1.00
C616   C     0.16664   0.83333   0.35514   0.00000  Uiso   1.00
C617   C     0.16669   0.83333   0.64486   0.00000  Uiso   1.00
C618   C     0.02128   0.79227   0.49999   0.00000  Uiso   1.00
C619   C     0.31205   0.87439   0.50001   0.00000  Uiso   1.00
C620   C     0.31205   0.79227   0.50002   0.00000  Uiso   1.00
H621   H     0.03740   0.76024   0.50001   0.00000  Uiso   1.00
H622   H     0.29594   0.90642   0.49999   0.00000  Uiso   1.00
H623   H     0.29594   0.76024   0.50001   0.00000  Uiso   1.00
H624   H     0.03740   0.90642   0.49999   0.00000  Uiso   1.00
N625   N     0.16667   0.95240   0.50000   0.00000  Uiso   1.00
N626   N     0.16667   0.71427   0.50000   0.00000  Uiso   1.00
N627   N     0.24236   0.73430   0.59177   0.00000  Uiso   1.00
N628   N     0.09097   0.93236   0.40823   0.00000  Uiso   1.00
N629   N     0.09097   0.73430   0.40823   0.00000  Uiso   1.00
N630   N     0.24236   0.93236   0.59177   0.00000  Uiso   1.00
O631   O     0.10559   0.87154   0.50000   0.00000  Uiso   1.00
O632   O     0.22774   0.79513   0.50000   0.00000  Uiso   1.00
O633   O     0.22774   0.87154   0.50000   0.00000  Uiso   1.00
O634   O     0.10559   0.79513   0.50000   0.00000  Uiso   1.00
O635   O     0.16667   0.87155   0.42845   0.00000  Uiso   1.00
O636   O     0.16666   0.79512   0.57155   0.00000  Uiso   1.00
O637   O     0.16666   0.87155   0.57155   0.00000  Uiso   1.00
O638   O     0.16667   0.79512   0.42845   0.00000  Uiso   1.00
Zn639  Zn    0.16667   0.88437   0.50000   0.00000  Uiso   1.00
Zn640  Zn    0.16667   0.78229   0.50000   0.00000  Uiso   1.00
C641   C     0.42001   0.83333   0.49994   0.00000  Uiso   1.00
C642   C     0.35461   0.87439   0.49998   0.00000  Uiso   1.00
C643   C     0.62418   0.83333   0.50005   0.00000  Uiso   1.00
C644   C     0.37582   0.83333   0.49995   0.00000  Uiso   1.00
C645   C     0.52600   0.69069   0.53144   0.00000  Uiso   1.00
C646   C     0.47400   0.97597   0.46856   0.00000  Uiso   1.00
C647   C     0.47400   0.69069   0.46856   0.00000  Uiso   1.00
C648   C     0.52600   0.97597   0.53144   0.00000  Uiso   1.00
C649   C     0.55353   0.71503   0.56484   0.00000  Uiso   1.00
C650   C     0.44647   0.95164   0.43516   0.00000  Uiso   1.00
C651   C     0.44647   0.71503   0.43516   0.00000  Uiso   1.00
C652   C     0.57999   0.83333   0.50006   0.00000  Uiso   1.00
C653   C     0.55353   0.95164   0.56484   0.00000  Uiso   1.00
C654   C     0.49994   0.83333   0.40627   0.00000  Uiso   1.00
C655   C     0.50006   0.83333   0.59373   0.00000  Uiso   1.00
C656   C     0.49998   0.83333   0.35514   0.00000  Uiso   1.00
C657   C     0.50002   0.83333   0.64486   0.00000  Uiso   1.00
C658   C     0.35462   0.79227   0.49999   0.00000  Uiso   1.00
C659   C     0.64538   0.87439   0.50001   0.00000  Uiso   1.00
C660   C     0.64538   0.79227   0.50002   0.00000  Uiso   1.00
H661   H     0.37073   0.76024   0.50001   0.00000  Uiso   1.00
H662   H     0.62927   0.90642   0.49999   0.00000  Uiso   1.00
H663   H     0.62927   0.76024   0.50001   0.00000  Uiso   1.00
H664   H     0.37073   0.90642   0.49999   0.00000  Uiso   1.00
N665   N     0.50000   0.95240   0.50000   0.00000  Uiso   1.00
N666   N     0.50000   0.71427   0.50000   0.00000  Uiso   1.00
N667   N     0.57569   0.73430   0.59177   0.00000  Uiso   1.00
N668   N     0.42431   0.93236   0.40823   0.00000  Uiso   1.00
N669   N     0.42430   0.73430   0.40823   0.00000  Uiso   1.00
N670   N     0.57570   0.93236   0.59177   0.00000  Uiso   1.00
O671   O     0.43892   0.87154   0.50000   0.00000  Uiso   1.00
O672   O     0.56108   0.79513   0.50000   0.00000  Uiso   1.00
O673   O     0.56108   0.87154   0.50000   0.00000  Uiso   1.00
O674   O     0.43892   0.79513   0.50000   0.00000  Uiso   1.00
O675   O     0.50000   0.87155   0.42845   0.00000  Uiso   1.00
O676   O     0.50000   0.79512   0.57155   0.00000  Uiso   1.00
O677   O     0.50000   0.87155   0.57155   0.00000  Uiso   1.00
O678   O     0.50000   0.79512   0.42845   0.00000  Uiso   1.00
Zn679  Zn    0.50000   0.88437   0.50000   0.00000  Uiso   1.00
Zn680  Zn    0.50000   0.78229   0.50000   0.00000  Uiso   1.00
C681   C     0.75334   0.83333   0.49994   0.00000  Uiso   1.00
C682   C     0.68795   0.87439   0.49998   0.00000  Uiso   1.00
C683   C     0.95751   0.83333   0.50005   0.00000  Uiso   1.00
C684   C     0.70916   0.83333   0.49995   0.00000  Uiso   1.00
C685   C     0.85933   0.69069   0.53144   0.00000  Uiso   1.00
C686   C     0.80734   0.97597   0.46856   0.00000  Uiso   1.00
C687   C     0.80734   0.69069   0.46856   0.00000  Uiso   1.00
C688   C     0.85933   0.97597   0.53144   0.00000  Uiso   1.00
C689   C     0.88686   0.71503   0.56484   0.00000  Uiso   1.00
C690   C     0.77981   0.95164   0.43516   0.00000  Uiso   1.00
C691   C     0.77980   0.71503   0.43516   0.00000  Uiso   1.00
C692   C     0.91333   0.83333   0.50006   0.00000  Uiso   1.00
C693   C     0.88686   0.95164   0.56484   0.00000  Uiso   1.00
C694   C     0.83328   0.83333   0.40627   0.00000  Uiso   1.00
C695   C     0.83339   0.83333   0.59373   0.00000  Uiso   1.00
C696   C     0.83331   0.83333   0.35514   0.00000  Uiso   1.00
C697   C     0.83336   0.83333   0.64486   0.00000  Uiso   1.00
C698   C     0.68795   0.79227   0.49999   0.00000  Uiso   1.00
C699   C     0.97872   0.87439   0.50001   0.00000  Uiso   1.00
C700   C     0.97872   0.79227   0.50002   0.00000  Uiso   1.00
H701   H     0.70406   0.76024   0.50001   0.00000  Uiso   1.00
H702   H     0.96260   0.90642   0.49999   0.00000  Uiso   1.00
H703   H     0.96260   0.76024   0.50001   0.00000  Uiso   1.00
H704   H     0.70406   0.90642   0.49999   0.00000  Uiso   1.00
N705   N     0.83333   0.95240   0.50000   0.00000  Uiso   1.00
N706   N     0.83333   0.71427   0.50000   0.00000  Uiso   1.00
N707   N     0.90903   0.73430   0.59177   0.00000  Uiso   1.00
N708   N     0.75764   0.93236   0.40823   0.00000  Uiso   1.00
N709   N     0.75764   0.73430   0.40823   0.00000  Uiso   1.00
N710   N     0.90903   0.93236   0.59177   0.00000  Uiso   1.00
O711   O     0.77226   0.87154   0.50000   0.00000  Uiso   1.00
O712   O     0.89441   0.79513   0.50000   0.00000  Uiso   1.00
O713   O     0.89441   0.87154   0.50000   0.00000  Uiso   1.00
O714   O     0.77226   0.79513   0.50000   0.00000  Uiso   1.00
O715   O     0.83334   0.87155   0.42845   0.00000  Uiso   1.00
O716   O     0.83333   0.79512   0.57155   0.00000  Uiso   1.00
O717   O     0.83333   0.87155   0.57155   0.00000  Uiso   1.00
O718   O     0.83334   0.79512   0.42845   0.00000  Uiso   1.00
Zn719  Zn    0.83333   0.88437   0.50000   0.00000  Uiso   1.00
Zn720  Zn    0.83333   0.78229   0.50000   0.00000  Uiso   1.00
C721   C     0.08667   0.16667   0.83327   0.00000  Uiso   1.00
C722   C     0.02128   0.20773   0.83331   0.00000  Uiso   1.00
C723   C     0.29084   0.16667   0.83338   0.00000  Uiso   1.00
C724   C     0.04249   0.16667   0.83328   0.00000  Uiso   1.00
C725   C     0.19266   0.02403   0.86478   0.00000  Uiso   1.00
C726   C     0.14067   0.30931   0.80189   0.00000  Uiso   1.00
C727   C     0.14067   0.02403   0.80189   0.00000  Uiso   1.00
C728   C     0.19266   0.30931   0.86478   0.00000  Uiso   1.00
C729   C     0.22019   0.04836   0.89818   0.00000  Uiso   1.00
C730   C     0.11314   0.28497   0.76849   0.00000  Uiso   1.00
C731   C     0.11314   0.04836   0.76849   0.00000  Uiso   1.00
C732   C     0.24666   0.16667   0.83339   0.00000  Uiso   1.00
C733   C     0.22019   0.28497   0.89818   0.00000  Uiso   1.00
C734   C     0.16661   0.16667   0.73960   0.00000  Uiso   1.00
C735   C     0.16672   0.16667   0.92707   0.00000  Uiso   1.00
C736   C     0.16664   0.16667   0.68847   0.00000  Uiso   1.00
C737   C     0.16669   0.16667   0.97819   0.00000  Uiso   1.00
C738   C     0.02128   0.12561   0.83332   0.00000  Uiso   1.00
C739   C     0.31205   0.20773   0.83335   0.00000  Uiso   1.00
C740   C     0.31205   0.12561   0.83335   0.00000  Uiso   1.00
H741   H     0.03740   0.09358   0.83334   0.00000  Uiso   1.00
H742   H     0.29594   0.23976   0.83332   0.00000  Uiso   1.00
H743   H     0.29594   0.09358   0.83334   0.00000  Uiso   1.00
H744   H     0.03740   0.23976   0.83333   0.00000  Uiso   1.00
N745   N     0.16667   0.28573   0.83333   0.00000  Uiso   1.00
N746   N     0.16667   0.04760   0.83333   0.00000  Uiso   1.00
N747   N     0.24236   0.06764   0.92510   0.00000  Uiso   1.00
N748   N     0.09097   0.26570   0.74156   0.00000  Uiso   1.00
N749   N     0.09097   0.06764   0.74156   0.00000  Uiso   1.00
N750   N     0.24236   0.26570   0.92510   0.00000  Uiso   1.00
O751   O     0.10559   0.20487   0.83333   0.00000  Uiso   1.00
O752   O     0.22774   0.12846   0.83334   0.00000  Uiso   1.00
O753   O     0.22774   0.20487   0.83334   0.00000  Uiso   1.00
O754   O     0.10559   0.12846   0.83333   0.00000  Uiso   1.00
O755   O     0.16667   0.20488   0.76178   0.00000  Uiso   1.00
O756   O     0.16666   0.12845   0.90489   0.00000  Uiso   1.00
O757   O     0.16666   0.20488   0.90489   0.00000  Uiso   1.00
O758   O     0.16667   0.12845   0.76178   0.00000  Uiso   1.00
Zn759  Zn    0.16667   0.21771   0.83333   0.00000  Uiso   1.00
Zn760  Zn    0.16667   0.11563   0.83333   0.00000  Uiso   1.00
C761   C     0.42001   0.16667   0.83327   0.00000  Uiso   1.00
C762   C     0.35461   0.20773   0.83331   0.00000  Uiso   1.00
C763   C     0.62418   0.16667   0.83338   0.00000  Uiso   1.00
C764   C     0.37582   0.16667   0.83328   0.00000  Uiso   1.00
C765   C     0.52600   0.02403   0.86478   0.00000  Uiso   1.00
C766   C     0.47400   0.30931   0.80189   0.00000  Uiso   1.00
C767   C     0.47400   0.02403   0.80189   0.00000  Uiso   1.00
C768   C     0.52600   0.30931   0.86478   0.00000  Uiso   1.00
C769   C     0.55353   0.04836   0.89818   0.00000  Uiso   1.00
C770   C     0.44647   0.28497   0.76849   0.00000  Uiso   1.00
C771   C     0.44647   0.04836   0.76849   0.00000  Uiso   1.00
C772   C     0.57999   0.16667   0.83339   0.00000  Uiso   1.00
C773   C     0.55353   0.28497   0.89818   0.00000  Uiso   1.00
C774   C     0.49994   0.16667   0.73960   0.00000  Uiso   1.00
C775   C     0.50006   0.16667   0.92707   0.00000  Uiso   1.00
C776   C     0.49998   0.16667   0.68847   0.00000  Uiso   1.00
C777   C     0.50002   0.16667   0.97819   0.00000  Uiso   1.00
C778   C     0.35462   0.12561   0.83332   0.00000  Uiso   1.00
C779   C     0.64538   0.20773   0.83335   0.00000  Uiso   1.00
C780   C     0.64538   0.12561   0.83335   0.00000  Uiso   1.00
H781   H     0.37073   0.09358   0.83334   0.00000  Uiso   1.00
H782   H     0.62927   0.23976   0.83332   0.00000  Uiso   1.00
H783   H     0.62927   0.09358   0.83334   0.00000  Uiso   1.00
H784   H     0.37073   0.23976   0.83333   0.00000  Uiso   1.00
N785   N     0.50000   0.28573   0.83333   0.00000  Uiso   1.00
N786   N     0.50000   0.04760   0.83333   0.00000  Uiso   1.00
N787   N     0.57569   0.06764   0.92510   0.00000  Uiso   1.00
N788   N     0.42431   0.26570   0.74156   0.00000  Uiso   1.00
N789   N     0.42430   0.06764   0.74156   0.00000  Uiso   1.00
N790   N     0.57570   0.26570   0.92510   0.00000  Uiso   1.00
O791   O     0.43892   0.20487   0.83333   0.00000  Uiso   1.00
O792   O     0.56108   0.12846   0.83334   0.00000  Uiso   1.00
O793   O     0.56108   0.20487   0.83334   0.00000  Uiso   1.00
O794   O     0.43892   0.12846   0.83333   0.00000  Uiso   1.00
O795   O     0.50000   0.20488   0.76178   0.00000  Uiso   1.00
O796   O     0.50000   0.12845   0.90489   0.00000  Uiso   1.00
O797   O     0.50000   0.20488   0.90489   0.00000  Uiso   1.00
O798   O     0.50000   0.12845   0.76178   0.00000  Uiso   1.00
Zn799  Zn    0.50000   0.21771   0.83333   0.00000  Uiso   1.00
Zn800  Zn    0.50000   0.11563   0.83333   0.00000  Uiso   1.00
C801   C     0.75334   0.16667   0.83327   0.00000  Uiso   1.00
C802   C     0.68795   0.20773   0.83331   0.00000  Uiso   1.00
C803   C     0.95751   0.16667   0.83338   0.00000  Uiso   1.00
C804   C     0.70916   0.16667   0.83328   0.00000  Uiso   1.00
C805   C     0.85933   0.02403   0.86478   0.00000  Uiso   1.00
C806   C     0.80734   0.30931   0.80189   0.00000  Uiso   1.00
C807   C     0.80734   0.02403   0.80189   0.00000  Uiso   1.00
C808   C     0.85933   0.30931   0.86478   0.00000  Uiso   1.00
C809   C     0.88686   0.04836   0.89818   0.00000  Uiso   1.00
C810   C     0.77981   0.28497   0.76849   0.00000  Uiso   1.00
C811   C     0.77980   0.04836   0.76849   0.00000  Uiso   1.00
C812   C     0.91333   0.16667   0.83339   0.00000  Uiso   1.00
C813   C     0.88686   0.28497   0.89818   0.00000  Uiso   1.00
C814   C     0.83328   0.16667   0.73960   0.00000  Uiso   1.00
C815   C     0.83339   0.16667   0.92707   0.00000  Uiso   1.00
C816   C     0.83331   0.16667   0.68847   0.00000  Uiso   1.00
C817   C     0.83336   0.16667   0.97819   0.00000  Uiso   1.00
C818   C     0.68795   0.12561   0.83332   0.00000  Uiso   1.00
C819   C     0.97872   0.20773   0.83335   0.00000  Uiso   1.00
C820   C     0.97872   0.12561   0.83335   0.00000  Uiso   1.00
H821   H     0.70406   0.09358   0.83334   0.00000  Uiso   1.00
H822   H     0.96260   0.23976   0.83332   0.00000  Uiso   1.00
H823   H     0.96260   0.09358   0.83334   0.00000  Uiso   1.00
H824   H     0.70406   0.23976   0.83333   0.00000  Uiso   1.00
N825   N     0.83333   0.28573   0.83333   0.00000  Uiso   1.00
N826   N     0.83333   0.04760   0.83333   0.00000  Uiso   1.00
N827   N     0.90903   0.06764   0.92510   0.00000  Uiso   1.00
N828   N     0.75764   0.26570   0.74156   0.00000  Uiso   1.00
N829   N     0.75764   0.06764   0.74156   0.00000  Uiso   1.00
N830   N     0.90903   0.26570   0.92510   0.00000  Uiso   1.00
O831   O     0.77226   0.20487   0.83333   0.00000  Uiso   1.00
O832   O     0.89441   0.12846   0.83334   0.00000  Uiso   1.00
O833   O     0.89441   0.20487   0.83334   0.00000  Uiso   1.00
O834   O     0.77226   0.12846   0.83333   0.00000  Uiso   1.00
O835   O     0.83334   0.20488   0.76178   0.00000  Uiso   1.00
O836   O     0.83333   0.12845   0.90489   0.00000  Uiso   1.00
O837   O     0.83333   0.20488   0.90489   0.00000  Uiso   1.00
O838   O     0.83334   0.12845   0.76178   0.00000  Uiso   1.00
Zn839  Zn    0.83333   0.21771   0.83333   0.00000  Uiso   1.00
Zn840  Zn    0.83333   0.11563   0.83333   0.00000  Uiso   1.00
C841   C     0.08667   0.50000   0.83327   0.00000  Uiso   1.00
C842   C     0.02128   0.54106   0.83331   0.00000  Uiso   1.00
C843   C     0.29084   0.50000   0.83338   0.00000  Uiso   1.00
C844   C     0.04249   0.50000   0.83328   0.00000  Uiso   1.00
C845   C     0.19266   0.35736   0.86478   0.00000  Uiso   1.00
C846   C     0.14067   0.64264   0.80189   0.00000  Uiso   1.00
C847   C     0.14067   0.35736   0.80189   0.00000  Uiso   1.00
C848   C     0.19266   0.64264   0.86478   0.00000  Uiso   1.00
C849   C     0.22019   0.38170   0.89818   0.00000  Uiso   1.00
C850   C     0.11314   0.61830   0.76849   0.00000  Uiso   1.00
C851   C     0.11314   0.38170   0.76849   0.00000  Uiso   1.00
C852   C     0.24666   0.50000   0.83339   0.00000  Uiso   1.00
C853   C     0.22019   0.61830   0.89818   0.00000  Uiso   1.00
C854   C     0.16661   0.50000   0.73960   0.00000  Uiso   1.00
C855   C     0.16672   0.50000   0.92707   0.00000  Uiso   1.00
C856   C     0.16664   0.50000   0.68847   0.00000  Uiso   1.00
C857   C     0.16669   0.50000   0.97819   0.00000  Uiso   1.00
C858   C     0.02128   0.45894   0.83332   0.00000  Uiso   1.00
C859   C     0.31205   0.54106   0.83335   0.00000  Uiso   1.00
C860   C     0.31205   0.45894   0.83335   0.00000  Uiso   1.00
H861   H     0.03740   0.42691   0.83334   0.00000  Uiso   1.00
H862   H     0.29594   0.57309   0.83332   0.00000  Uiso   1.00
H863   H     0.29594   0.42691   0.83334   0.00000  Uiso   1.00
H864   H     0.03740   0.57309   0.83333   0.00000  Uiso   1.00
N865   N     0.16667   0.61907   0.83333   0.00000  Uiso   1.00
N866   N     0.16667   0.38093   0.83333   0.00000  Uiso   1.00
N867   N     0.24236   0.40097   0.92510   0.00000  Uiso   1.00
N868   N     0.09097   0.59903   0.74156   0.00000  Uiso   1.00
N869   N     0.09097   0.40097   0.74156   0.00000  Uiso   1.00
N870   N     0.24236   0.59903   0.92510   0.00000  Uiso   1.00
O871   O     0.10559   0.53821   0.83333   0.00000  Uiso   1.00
O872   O     0.22774   0.46179   0.83334   0.00000  Uiso   1.00
O873   O     0.22774   0.53821   0.83334   0.00000  Uiso   1.00
O874   O     0.10559   0.46179   0.83333   0.00000  Uiso   1.00
O875   O     0.16667   0.53821   0.76178   0.00000  Uiso   1.00
O876   O     0.16666   0.46179   0.90489   0.00000  Uiso   1.00
O877   O     0.16666   0.53821   0.90489   0.00000  Uiso   1.00
O878   O     0.16667   0.46179   0.76178   0.00000  Uiso   1.00
Zn879  Zn    0.16667   0.55104   0.83333   0.00000  Uiso   1.00
Zn880  Zn    0.16667   0.44896   0.83333   0.00000  Uiso   1.00
C881   C     0.42001   0.50000   0.83327   0.00000  Uiso   1.00
C882   C     0.35461   0.54106   0.83331   0.00000  Uiso   1.00
C883   C     0.62418   0.50000   0.83338   0.00000  Uiso   1.00
C884   C     0.37582   0.50000   0.83328   0.00000  Uiso   1.00
C885   C     0.52600   0.35736   0.86478   0.00000  Uiso   1.00
C886   C     0.47400   0.64264   0.80189   0.00000  Uiso   1.00
C887   C     0.47400   0.35736   0.80189   0.00000  Uiso   1.00
C888   C     0.52600   0.64264   0.86478   0.00000  Uiso   1.00
C889   C     0.55353   0.38170   0.89818   0.00000  Uiso   1.00
C890   C     0.44647   0.61830   0.76849   0.00000  Uiso   1.00
C891   C     0.44647   0.38170   0.76849   0.00000  Uiso   1.00
C892   C     0.57999   0.50000   0.83339   0.00000  Uiso   1.00
C893   C     0.55353   0.61830   0.89818   0.00000  Uiso   1.00
C894   C     0.49994   0.50000   0.73960   0.00000  Uiso   1.00
C895   C     0.50006   0.50000   0.92707   0.00000  Uiso   1.00
C896   C     0.49998   0.50000   0.68847   0.00000  Uiso   1.00
C897   C     0.50002   0.50000   0.97819   0.00000  Uiso   1.00
C898   C     0.35462   0.45894   0.83332   0.00000  Uiso   1.00
C899   C     0.64538   0.54106   0.83335   0.00000  Uiso   1.00
C900   C     0.64538   0.45894   0.83335   0.00000  Uiso   1.00
H901   H     0.37073   0.42691   0.83334   0.00000  Uiso   1.00
H902   H     0.62927   0.57309   0.83332   0.00000  Uiso   1.00
H903   H     0.62927   0.42691   0.83334   0.00000  Uiso   1.00
H904   H     0.37073   0.57309   0.83333   0.00000  Uiso   1.00
N905   N     0.50000   0.61907   0.83333   0.00000  Uiso   1.00
N906   N     0.50000   0.38093   0.83333   0.00000  Uiso   1.00
N907   N     0.57569   0.40097   0.92510   0.00000  Uiso   1.00
N908   N     0.42431   0.59903   0.74156   0.00000  Uiso   1.00
N909   N     0.42430   0.40097   0.74156   0.00000  Uiso   1.00
N910   N     0.57570   0.59903   0.92510   0.00000  Uiso   1.00
O911   O     0.43892   0.53821   0.83333   0.00000  Uiso   1.00
O912   O     0.56108   0.46179   0.83334   0.00000  Uiso   1.00
O913   O     0.56108   0.53821   0.83334   0.00000  Uiso   1.00
O914   O     0.43892   0.46179   0.83333   0.00000  Uiso   1.00
O915   O     0.50000   0.53821   0.76178   0.00000  Uiso   1.00
O916   O     0.50000   0.46179   0.90489   0.00000  Uiso   1.00
O917   O     0.50000   0.53821   0.90489   0.00000  Uiso   1.00
O918   O     0.50000   0.46179   0.76178   0.00000  Uiso   1.00
Zn919  Zn    0.50000   0.55104   0.83333   0.00000  Uiso   1.00
Zn920  Zn    0.50000   0.44896   0.83333   0.00000  Uiso   1.00
C921   C     0.75334   0.50000   0.83327   0.00000  Uiso   1.00
C922   C     0.68795   0.54106   0.83331   0.00000  Uiso   1.00
C923   C     0.95751   0.50000   0.83338   0.00000  Uiso   1.00
C924   C     0.70916   0.50000   0.83328   0.00000  Uiso   1.00
C925   C     0.85933   0.35736   0.86478   0.00000  Uiso   1.00
C926   C     0.80734   0.64264   0.80189   0.00000  Uiso   1.00
C927   C     0.80734   0.35736   0.80189   0.00000  Uiso   1.00
C928   C     0.85933   0.64264   0.86478   0.00000  Uiso   1.00
C929   C     0.88686   0.38170   0.89818   0.00000  Uiso   1.00
C930   C     0.77981   0.61830   0.76849   0.00000  Uiso   1.00
C931   C     0.77980   0.38170   0.76849   0.00000  Uiso   1.00
C932   C     0.91333   0.50000   0.83339   0.00000  Uiso   1.00
C933   C     0.88686   0.61830   0.89818   0.00000  Uiso   1.00
C934   C     0.83328   0.50000   0.73960   0.00000  Uiso   1.00
C935   C     0.83339   0.50000   0.92707   0.00000  Uiso   1.00
C936   C     0.83331   0.50000   0.68847   0.00000  Uiso   1.00
C937   C     0.83336   0.50000   0.97819   0.00000  Uiso   1.00
C938   C     0.68795   0.45894   0.83332   0.00000  Uiso   1.00
C939   C     0.97872   0.54106   0.83335   0.00000  Uiso   1.00
C940   C     0.97872   0.45894   0.83335   0.00000  Uiso   1.00
H941   H     0.70406   0.42691   0.83334   0.00000  Uiso   1.00
H942   H     0.96260   0.57309   0.83332   0.00000  Uiso   1.00
H943   H     0.96260   0.42691   0.83334   0.00000  Uiso   1.00
H944   H     0.70406   0.57309   0.83333   0.00000  Uiso   1.00
N945   N     0.83333   0.61907   0.83333   0.00000  Uiso   1.00
N946   N     0.83333   0.38093   0.83333   0.00000  Uiso   1.00
N947   N     0.90903   0.40097   0.92510   0.00000  Uiso   1.00
N948   N     0.75764   0.59903   0.74156   0.00000  Uiso   1.00
N949   N     0.75764   0.40097   0.74156   0.00000  Uiso   1.00
N950   N     0.90903   0.59903   0.92510   0.00000  Uiso   1.00
O951   O     0.77226   0.53821   0.83333   0.00000  Uiso   1.00
O952   O     0.89441   0.46179   0.83334   0.00000  Uiso   1.00
O953   O     0.89441   0.53821   0.83334   0.00000  Uiso   1.00
O954   O     0.77226   0.46179   0.83333   0.00000  Uiso   1.00
O955   O     0.83334   0.53821   0.76178   0.00000  Uiso   1.00
O956   O     0.83333   0.46179   0.90489   0.00000  Uiso   1.00
O957   O     0.83333   0.53821   0.90489   0.00000  Uiso   1.00
O958   O     0.83334   0.46179   0.76178   0.00000  Uiso   1.00
Zn959  Zn    0.83333   0.55104   0.83333   0.00000  Uiso   1.00
Zn960  Zn    0.83333   0.44896   0.83333   0.00000  Uiso   1.00
C961   C     0.08667   0.83333   0.83327   0.00000  Uiso   1.00
C962   C     0.02128   0.87439   0.83331   0.00000  Uiso   1.00
C963   C     0.29084   0.83333   0.83338   0.00000  Uiso   1.00
C964   C     0.04249   0.83333   0.83328   0.00000  Uiso   1.00
C965   C     0.19266   0.69069   0.86478   0.00000  Uiso   1.00
C966   C     0.14067   0.97597   0.80189   0.00000  Uiso   1.00
C967   C     0.14067   0.69069   0.80189   0.00000  Uiso   1.00
C968   C     0.19266   0.97597   0.86478   0.00000  Uiso   1.00
C969   C     0.22019   0.71503   0.89818   0.00000  Uiso   1.00
C970   C     0.11314   0.95164   0.76849   0.00000  Uiso   1.00
C971   C     0.11314   0.71503   0.76849   0.00000  Uiso   1.00
C972   C     0.24666   0.83333   0.83339   0.00000  Uiso   1.00
C973   C     0.22019   0.95164   0.89818   0.00000  Uiso   1.00
C974   C     0.16661   0.83333   0.73960   0.00000  Uiso   1.00
C975   C     0.16672   0.83333   0.92707   0.00000  Uiso   1.00
C976   C     0.16664   0.83333   0.68847   0.00000  Uiso   1.00
C977   C     0.16669   0.83333   0.97819   0.00000  Uiso   1.00
C978   C     0.02128   0.79227   0.83332   0.00000  Uiso   1.00
C979   C     0.31205   0.87439   0.83335   0.00000  Uiso   1.00
C980   C     0.31205   0.79227   0.83335   0.00000  Uiso   1.00
H981   H     0.03740   0.76024   0.83334   0.00000  Uiso   1.00
H982   H     0.29594   0.90642   0.83332   0.00000  Uiso   1.00
H983   H     0.29594   0.76024   0.83334   0.00000  Uiso   1.00
H984   H     0.03740   0.90642   0.83333   0.00000  Uiso   1.00
N985   N     0.16667   0.95240   0.83333   0.00000  Uiso   1.00
N986   N     0.16667   0.71427   0.83333   0.00000  Uiso   1.00
N987   N     0.24236   0.73430   0.92510   0.00000  Uiso   1.00
N988   N     0.09097   0.93236   0.74156   0.00000  Uiso   1.00
N989   N     0.09097   0.73430   0.74156   0.00000  Uiso   1.00
N990   N     0.24236   0.93236   0.92510   0.00000  Uiso   1.00
O991   O     0.10559   0.87154   0.83333   0.00000  Uiso   1.00
O992   O     0.22774   0.79513   0.83334   0.00000  Uiso   1.00
O993   O     0.22774   0.87154   0.83334   0.00000  Uiso   1.00
O994   O     0.10559   0.79513   0.83333   0.00000  Uiso   1.00
O995   O     0.16667   0.87155   0.76178   0.00000  Uiso   1.00
O996   O     0.16666   0.79512   0.90489   0.00000  Uiso   1.00
O997   O     0.16666   0.87155   0.90489   0.00000  Uiso   1.00
O998   O     0.16667   0.79512   0.76178   0.00000  Uiso   1.00
Zn999  Zn    0.16667   0.88437   0.83333   0.00000  Uiso   1.00
Zn1000 Zn    0.16667   0.78229   0.83333   0.00000  Uiso   1.00
C1001  C     0.42001   0.83333   0.83327   0.00000  Uiso   1.00
C1002  C     0.35461   0.87439   0.83331   0.00000  Uiso   1.00
C1003  C     0.62418   0.83333   0.83338   0.00000  Uiso   1.00
C1004  C     0.37582   0.83333   0.83328   0.00000  Uiso   1.00
C1005  C     0.52600   0.69069   0.86478   0.00000  Uiso   1.00
C1006  C     0.47400   0.97597   0.80189   0.00000  Uiso   1.00
C1007  C     0.47400   0.69069   0.80189   0.00000  Uiso   1.00
C1008  C     0.52600   0.97597   0.86478   0.00000  Uiso   1.00
C1009  C     0.55353   0.71503   0.89818   0.00000  Uiso   1.00
C1010  C     0.44647   0.95164   0.76849   0.00000  Uiso   1.00
C1011  C     0.44647   0.71503   0.76849   0.00000  Uiso   1.00
C1012  C     0.57999   0.83333   0.83339   0.00000  Uiso   1.00
C1013  C     0.55353   0.95164   0.89818   0.00000  Uiso   1.00
C1014  C     0.49994   0.83333   0.73960   0.00000  Uiso   1.00
C1015  C     0.50006   0.83333   0.92707   0.00000  Uiso   1.00
C1016  C     0.49998   0.83333   0.68847   0.00000  Uiso   1.00
C1017  C     0.50002   0.83333   0.97819   0.00000  Uiso   1.00
C1018  C     0.35462   0.79227   0.83332   0.00000  Uiso   1.00
C1019  C     0.64538   0.87439   0.83335   0.00000  Uiso   1.00
C1020  C     0.64538   0.79227   0.83335   0.00000  Uiso   1.00
H1021  H     0.37073   0.76024   0.83334   0.00000  Uiso   1.00
H1022  H     0.62927   0.90642   0.83332   0.00000  Uiso   1.00
H1023  H     0.62927   0.76024   0.83334   0.00000  Uiso   1.00
H1024  H     0.37073   0.90642   0.83333   0.00000  Uiso   1.00
N1025  N     0.50000   0.95240   0.83333   0.00000  Uiso   1.00
N1026  N     0.50000   0.71427   0.83333   0.00000  Uiso   1.00
N1027  N     0.57569   0.73430   0.92510   0.00000  Uiso   1.00
N1028  N     0.42431   0.93236   0.74156   0.00000  Uiso   1.00
N1029  N     0.42430   0.73430   0.74156   0.00000  Uiso   1.00
N1030  N     0.57570   0.93236   0.92510   0.00000  Uiso   1.00
O1031  O     0.43892   0.87154   0.83333   0.00000  Uiso   1.00
O1032  O     0.56108   0.79513   0.83334   0.00000  Uiso   1.00
O1033  O     0.56108   0.87154   0.83334   0.00000  Uiso   1.00
O1034  O     0.43892   0.79513   0.83333   0.00000  Uiso   1.00
O1035  O     0.50000   0.87155   0.76178   0.00000  Uiso   1.00
O1036  O     0.50000   0.79512   0.90489   0.00000  Uiso   1.00
O1037  O     0.50000   0.87155   0.90489   0.00000  Uiso   1.00
O1038  O     0.50000   0.79512   0.76178   0.00000  Uiso   1.00
Zn1039 Zn    0.50000   0.88437   0.83333   0.00000  Uiso   1.00
Zn1040 Zn    0.50000   0.78229   0.83333   0.00000  Uiso   1.00
C1041  C     0.75334   0.83333   0.83327   0.00000  Uiso   1.00
C1042  C     0.68795   0.87439   0.83331   0.00000  Uiso   1.00
C1043  C     0.95751   0.83333   0.83338   0.00000  Uiso   1.00
C1044  C     0.70916   0.83333   0.83328   0.00000  Uiso   1.00
C1045  C     0.85933   0.69069   0.86478   0.00000  Uiso   1.00
C1046  C     0.80734   0.97597   0.80189   0.00000  Uiso   1.00
C1047  C     0.80734   0.69069   0.80189   0.00000  Uiso   1.00
C1048  C     0.85933   0.97597   0.86478   0.00000  Uiso   1.00
C1049  C     0.88686   0.71503   0.89818   0.00000  Uiso   1.00
C1050  C     0.77981   0.95164   0.76849   0.00000  Uiso   1.00
C1051  C     0.77980   0.71503   0.76849   0.00000  Uiso   1.00
C1052  C     0.91333   0.83333   0.83339   0.00000  Uiso   1.00
C1053  C     0.88686   0.95164   0.89818   0.00000  Uiso   1.00
C1054  C     0.83328   0.83333   0.73960   0.00000  Uiso   1.00
C1055  C     0.83339   0.83333   0.92707   0.00000  Uiso   1.00
C1056  C     0.83331   0.83333   0.68847   0.00000  Uiso   1.00
C1057  C     0.83336   0.83333   0.97819   0.00000  Uiso   1.00
C1058  C     0.68795   0.79227   0.83332   0.00000  Uiso   1.00
C1059  C     0.97872   0.87439   0.83335   0.00000  Uiso   1.00
C1060  C     0.97872   0.79227   0.83335   0.00000  Uiso   1.00
H1061  H     0.70406   0.76024   0.83334   0.00000  Uiso   1.00
H1062  H     0.96260   0.90642   0.83332   0.00000  Uiso   1.00
H1063  H     0.96260   0.76024   0.83334   0.00000  Uiso   1.00
H1064  H     0.70406   0.90642   0.83333   0.00000  Uiso   1.00
N1065  N     0.83333   0.95240   0.83333   0.00000  Uiso   1.00
N1066  N     0.83333   0.71427   0.83333   0.00000  Uiso   1.00
N1067  N     0.90903   0.73430   0.92510   0.00000  Uiso   1.00
N1068  N     0.75764   0.93236   0.74156   0.00000  Uiso   1.00
N1069  N     0.75764   0.73430   0.74156   0.00000  Uiso   1.00
N1070  N     0.90903   0.93236   0.92510   0.00000  Uiso   1.00
O1071  O     0.77226   0.87154   0.83333   0.00000  Uiso   1.00
O1072  O     0.89441   0.79513   0.83334   0.00000  Uiso   1.00
O1073  O     0.89441   0.87154   0.83334   0.00000  Uiso   1.00
O1074  O     0.77226   0.79513   0.83333   0.00000  Uiso   1.00
O1075  O     0.83334   0.87155   0.76178   0.00000  Uiso   1.00
O1076  O     0.83333   0.79512   0.90489   0.00000  Uiso   1.00
O1077  O     0.83333   0.87155   0.90489   0.00000  Uiso   1.00
O1078  O     0.83334   0.79512   0.76178   0.00000  Uiso   1.00
Zn1079 Zn    0.83333   0.88437   0.83333   0.00000  Uiso   1.00
Zn1080 Zn    0.83333   0.78229   0.83333   0.00000  Uiso   1.00
loop_
_geom_bond_atom_site_label_1
_geom_bond_atom_site_label_2
_geom_bond_distance
_geom_bond_site_symmetry_2
_ccdc_geom_bond_type
C1     C4      1.422   .     S
C1     O34     1.288   .     A
C1     O31     1.288   .     A
C2     C4      1.398   .     A
C2     H24     1.083   .     S
C2     C99     1.369   1_455 S
C3     C19     1.398   .     A
C3     C20     1.398   .     A
C3     C12     1.422   .     S
C4     C18     1.398   .     A
C5     C9      1.443   .     S
C5     N26     1.370   .     A
C5     C248    1.427   1_545 S
C6     C10     1.443   .     S
C6     N25     1.370   .     A
C6     C127    1.427   .     S
C7     C11     1.443   .     S
C7     N26     1.370   .     A
C7     C246    1.427   1_545 S
C8     N25     1.370   .     A
C8     C13     1.443   .     S
C8     C125    1.427   .     S
C9     N27     1.158   .     T
C10    N28     1.158   .     T
C11    N29     1.158   .     T
C12    O33     1.288   .     A
C12    O32     1.288   .     A
C13    N30     1.158   .     T
C14    O38     1.280   .     A
C14    C16     1.367   .     S
C14    O35     1.280   .     A
C15    O36     1.280   .     A
C15    C17     1.367   .     S
C15    O37     1.280   .     A
C16    C737    1.166   1_554 S
C17    C376    1.166   .     S
C18    H21     1.083   .     S
C18    C100    1.369   1_455 S
C19    H22     1.083   .     S
C19    C42     1.369   .     S
C20    H23     1.083   .     S
C20    C58     1.369   .     S
N25    Zn39    2.021   .     S
N26    Zn40    2.021   .     S
O31    Zn39    2.002   .     S
O32    Zn40    2.002   .     S
O33    Zn39    2.002   .     S
O34    Zn40    2.002   .     S
O35    Zn39    1.950   .     S
O36    Zn40    1.950   .     S
O37    Zn39    1.950   .     S
O38    Zn40    1.950   .     S
C41    C44     1.422   .     S
C41    O74     1.288   .     A
C41    O71     1.288   .     A
C42    C44     1.398   .     A
C42    H64     1.083   .     S
C43    C59     1.398   .     A
C43    C60     1.398   .     A
C43    C52     1.422   .     S
C44    C58     1.398   .     A
C45    C49     1.443   .     S
C45    N66     1.370   .     A
C45    C288    1.427   1_545 S
C46    C50     1.443   .     S
C46    N65     1.370   .     A
C46    C167    1.427   .     S
C47    C51     1.443   .     S
C47    N66     1.370   .     A
C47    C286    1.427   1_545 S
C48    N65     1.370   .     A
C48    C53     1.443   .     S
C48    C165    1.427   .     S
C49    N67     1.158   .     T
C50    N68     1.158   .     T
C51    N69     1.158   .     T
C52    O73     1.288   .     A
C52    O72     1.288   .     A
C53    N70     1.158   .     T
C54    O78     1.280   .     A
C54    C56     1.367   .     S
C54    O75     1.280   .     A
C55    O76     1.280   .     A
C55    C57     1.367   .     S
C55    O77     1.280   .     A
C56    C777    1.166   1_554 S
C57    C416    1.166   .     S
C58    H61     1.083   .     S
C59    H62     1.083   .     S
C59    C82     1.369   .     S
C60    H63     1.083   .     S
C60    C98     1.369   .     S
N65    Zn79    2.021   .     S
N66    Zn80    2.021   .     S
O71    Zn79    2.002   .     S
O72    Zn80    2.002   .     S
O73    Zn79    2.002   .     S
O74    Zn80    2.002   .     S
O75    Zn79    1.950   .     S
O76    Zn80    1.950   .     S
O77    Zn79    1.950   .     S
O78    Zn80    1.950   .     S
C81    C84     1.422   .     S
C81    O114    1.288   .     A
C81    O111    1.288   .     A
C82    C84     1.398   .     A
C82    H104    1.083   .     S
C83    C99     1.398   .     A
C83    C100    1.398   .     A
C83    C92     1.422   .     S
C84    C98     1.398   .     A
C85    C89     1.443   .     S
C85    N106    1.370   .     A
C85    C328    1.427   1_545 S
C86    C90     1.443   .     S
C86    N105    1.370   .     A
C86    C207    1.427   .     S
C87    C91     1.443   .     S
C87    N106    1.370   .     A
C87    C326    1.427   1_545 S
C88    N105    1.370   .     A
C88    C93     1.443   .     S
C88    C205    1.427   .     S
C89    N107    1.158   .     T
C90    N108    1.158   .     T
C91    N109    1.158   .     T
C92    O113    1.288   .     A
C92    O112    1.288   .     A
C93    N110    1.158   .     T
C94    O118    1.280   .     A
C94    C96     1.367   .     S
C94    O115    1.280   .     A
C95    O116    1.280   .     A
C95    C97     1.367   .     S
C95    O117    1.280   .     A
C96    C817    1.166   1_554 S
C97    C456    1.166   .     S
C98    H101    1.083   .     S
C99    H102    1.083   .     S
C99    C2      1.369   1_655 S
C100   H103    1.083   .     S
C100   C18     1.369   1_655 S
N105   Zn119   2.021   .     S
N106   Zn120   2.021   .     S
O111   Zn119   2.002   .     S
O112   Zn120   2.002   .     S
O113   Zn119   2.002   .     S
O114   Zn120   2.002   .     S
O115   Zn119   1.950   .     S
O116   Zn120   1.950   .     S
O117   Zn119   1.950   .     S
O118   Zn120   1.950   .     S
C121   C124    1.422   .     S
C121   O154    1.288   .     A
C121   O151    1.288   .     A
C122   C124    1.398   .     A
C122   H144    1.083   .     S
C122   C219    1.369   1_455 S
C123   C139    1.398   .     A
C123   C140    1.398   .     A
C123   C132    1.422   .     S
C124   C138    1.398   .     A
C125   C129    1.443   .     S
C125   N146    1.370   .     A
C126   C130    1.443   .     S
C126   N145    1.370   .     A
C126   C247    1.427   .     S
C127   C131    1.443   .     S
C127   N146    1.370   .     A
C128   N145    1.370   .     A
C128   C133    1.443   .     S
C128   C245    1.427   .     S
C129   N147    1.158   .     T
C130   N148    1.158   .     T
C131   N149    1.158   .     T
C132   O153    1.288   .     A
C132   O152    1.288   .     A
C133   N150    1.158   .     T
C134   O158    1.280   .     A
C134   C136    1.367   .     S
C134   O155    1.280   .     A
C135   O156    1.280   .     A
C135   C137    1.367   .     S
C135   O157    1.280   .     A
C136   C857    1.166   1_554 S
C137   C496    1.166   .     S
C138   H141    1.083   .     S
C138   C220    1.369   1_455 S
C139   H142    1.083   .     S
C139   C162    1.369   .     S
C140   H143    1.083   .     S
C140   C178    1.369   .     S
N145   Zn159   2.021   .     S
N146   Zn160   2.021   .     S
O151   Zn159   2.002   .     S
O152   Zn160   2.002   .     S
O153   Zn159   2.002   .     S
O154   Zn160   2.002   .     S
O155   Zn159   1.950   .     S
O156   Zn160   1.950   .     S
O157   Zn159   1.950   .     S
O158   Zn160   1.950   .     S
C161   C164    1.422   .     S
C161   O194    1.288   .     A
C161   O191    1.288   .     A
C162   C164    1.398   .     A
C162   H184    1.083   .     S
C163   C179    1.398   .     A
C163   C180    1.398   .     A
C163   C172    1.422   .     S
C164   C178    1.398   .     A
C165   C169    1.443   .     S
C165   N186    1.370   .     A
C166   C170    1.443   .     S
C166   N185    1.370   .     A
C166   C287    1.427   .     S
C167   C171    1.443   .     S
C167   N186    1.370   .     A
C168   N185    1.370   .     A
C168   C173    1.443   .     S
C168   C285    1.427   .     S
C169   N187    1.158   .     T
C170   N188    1.158   .     T
C171   N189    1.158   .     T
C172   O193    1.288   .     A
C172   O192    1.288   .     A
C173   N190    1.158   .     T
C174   O198    1.280   .     A
C174   C176    1.367   .     S
C174   O195    1.280   .     A
C175   O196    1.280   .     A
C175   C177    1.367   .     S
C175   O197    1.280   .     A
C176   C897    1.166   1_554 S
C177   C536    1.166   .     S
C178   H181    1.083   .     S
C179   H182    1.083   .     S
C179   C202    1.369   .     S
C180   H183    1.083   .     S
C180   C218    1.369   .     S
N185   Zn199   2.021   .     S
N186   Zn200   2.021   .     S
O191   Zn199   2.002   .     S
O192   Zn200   2.002   .     S
O193   Zn199   2.002   .     S
O194   Zn200   2.002   .     S
O195   Zn199   1.950   .     S
O196   Zn200   1.950   .     S
O197   Zn199   1.950   .     S
O198   Zn200   1.950   .     S
C201   C204    1.422   .     S
C201   O234    1.288   .     A
C201   O231    1.288   .     A
C202   C204    1.398   .     A
C202   H224    1.083   .     S
C203   C219    1.398   .     A
C203   C220    1.398   .     A
C203   C212    1.422   .     S
C204   C218    1.398   .     A
C205   C209    1.443   .     S
C205   N226    1.370   .     A
C206   C210    1.443   .     S
C206   N225    1.370   .     A
C206   C327    1.427   .     S
C207   C211    1.443   .     S
C207   N226    1.370   .     A
C208   N225    1.370   .     A
C208   C213    1.443   .     S
C208   C325    1.427   .     S
C209   N227    1.158   .     T
C210   N228    1.158   .     T
C211   N229    1.158   .     T
C212   O233    1.288   .     A
C212   O232    1.288   .     A
C213   N230    1.158   .     T
C214   O238    1.280   .     A
C214   C216    1.367   .     S
C214   O235    1.280   .     A
C215   O236    1.280   .     A
C215   C217    1.367   .     S
C215   O237    1.280   .     A
C216   C937    1.166   1_554 S
C217   C576    1.166   .     S
C218   H221    1.083   .     S
C219   H222    1.083   .     S
C219   C122    1.369   1_655 S
C220   H223    1.083   .     S
C220   C138    1.369   1_655 S
N225   Zn239   2.021   .     S
N226   Zn240   2.021   .     S
O231   Zn239   2.002   .     S
O232   Zn240   2.002   .     S
O233   Zn239   2.002   .     S
O234   Zn240   2.002   .     S
O235   Zn239   1.950   .     S
O236   Zn240   1.950   .     S
O237   Zn239   1.950   .     S
O238   Zn240   1.950   .     S
C241   C244    1.422   .     S
C241   O274    1.288   .     A
C241   O271    1.288   .     A
C242   C244    1.398   .     A
C242   H264    1.083   .     S
C242   C339    1.369   1_455 S
C243   C259    1.398   .     A
C243   C260    1.398   .     A
C243   C252    1.422   .     S
C244   C258    1.398   .     A
C245   C249    1.443   .     S
C245   N266    1.370   .     A
C246   C250    1.443   .     S
C246   N265    1.370   .     A
C246   C7      1.427   1_565 S
C247   C251    1.443   .     S
C247   N266    1.370   .     A
C248   N265    1.370   .     A
C248   C253    1.443   .     S
C248   C5      1.427   1_565 S
C249   N267    1.158   .     T
C250   N268    1.158   .     T
C251   N269    1.158   .     T
C252   O273    1.288   .     A
C252   O272    1.288   .     A
C253   N270    1.158   .     T
C254   O278    1.280   .     A
C254   C256    1.367   .     S
C254   O275    1.280   .     A
C255   O276    1.280   .     A
C255   C257    1.367   .     S
C255   O277    1.280   .     A
C256   C977    1.166   1_554 S
C257   C616    1.166   .     S
C258   H261    1.083   .     S
C258   C340    1.369   1_455 S
C259   H262    1.083   .     S
C259   C282    1.369   .     S
C260   H263    1.083   .     S
C260   C298    1.369   .     S
N265   Zn279   2.021   .     S
N266   Zn280   2.021   .     S
O271   Zn279   2.002   .     S
O272   Zn280   2.002   .     S
O273   Zn279   2.002   .     S
O274   Zn280   2.002   .     S
O275   Zn279   1.950   .     S
O276   Zn280   1.950   .     S
O277   Zn279   1.950   .     S
O278   Zn280   1.950   .     S
C281   C284    1.422   .     S
C281   O314    1.288   .     A
C281   O311    1.288   .     A
C282   C284    1.398   .     A
C282   H304    1.083   .     S
C283   C299    1.398   .     A
C283   C300    1.398   .     A
C283   C292    1.422   .     S
C284   C298    1.398   .     A
C285   C289    1.443   .     S
C285   N306    1.370   .     A
C286   C290    1.443   .     S
C286   N305    1.370   .     A
C286   C47     1.427   1_565 S
C287   C291    1.443   .     S
C287   N306    1.370   .     A
C288   N305    1.370   .     A
C288   C293    1.443   .     S
C288   C45     1.427   1_565 S
C289   N307    1.158   .     T
C290   N308    1.158   .     T
C291   N309    1.158   .     T
C292   O313    1.288   .     A
C292   O312    1.288   .     A
C293   N310    1.158   .     T
C294   O318    1.280   .     A
C294   C296    1.367   .     S
C294   O315    1.280   .     A
C295   O316    1.280   .     A
C295   C297    1.367   .     S
C295   O317    1.280   .     A
C296   C1017   1.166   1_554 S
C297   C656    1.166   .     S
C298   H301    1.083   .     S
C299   H302    1.083   .     S
C299   C322    1.369   .     S
C300   H303    1.083   .     S
C300   C338    1.369   .     S
N305   Zn319   2.021   .     S
N306   Zn320   2.021   .     S
O311   Zn319   2.002   .     S
O312   Zn320   2.002   .     S
O313   Zn319   2.002   .     S
O314   Zn320   2.002   .     S
O315   Zn319   1.950   .     S
O316   Zn320   1.950   .     S
O317   Zn319   1.950   .     S
O318   Zn320   1.950   .     S
C321   C324    1.422   .     S
C321   O354    1.288   .     A
C321   O351    1.288   .     A
C322   C324    1.398   .     A
C322   H344    1.083   .     S
C323   C339    1.398   .     A
C323   C340    1.398   .     A
C323   C332    1.422   .     S
C324   C338    1.398   .     A
C325   C329    1.443   .     S
C325   N346    1.370   .     A
C326   C330    1.443   .     S
C326   N345    1.370   .     A
C326   C87     1.427   1_565 S
C327   C331    1.443   .     S
C327   N346    1.370   .     A
C328   N345    1.370   .     A
C328   C333    1.443   .     S
C328   C85     1.427   1_565 S
C329   N347    1.158   .     T
C330   N348    1.158   .     T
C331   N349    1.158   .     T
C332   O353    1.288   .     A
C332   O352    1.288   .     A
C333   N350    1.158   .     T
C334   O358    1.280   .     A
C334   C336    1.367   .     S
C334   O355    1.280   .     A
C335   O356    1.280   .     A
C335   C337    1.367   .     S
C335   O357    1.280   .     A
C336   C1057   1.166   1_554 S
C337   C696    1.166   .     S
C338   H341    1.083   .     S
C339   H342    1.083   .     S
C339   C242    1.369   1_655 S
C340   H343    1.083   .     S
C340   C258    1.369   1_655 S
N345   Zn359   2.021   .     S
N346   Zn360   2.021   .     S
O351   Zn359   2.002   .     S
O352   Zn360   2.002   .     S
O353   Zn359   2.002   .     S
O354   Zn360   2.002   .     S
O355   Zn359   1.950   .     S
O356   Zn360   1.950   .     S
O357   Zn359   1.950   .     S
O358   Zn360   1.950   .     S
C361   C364    1.422   .     S
C361   O394    1.288   .     A
C361   O391    1.288   .     A
C362   C364    1.398   .     A
C362   H384    1.083   .     S
C362   C459    1.369   1_455 S
C363   C379    1.398   .     A
C363   C380    1.398   .     A
C363   C372    1.422   .     S
C364   C378    1.398   .     A
C365   C369    1.443   .     S
C365   N386    1.370   .     A
C365   C608    1.427   1_545 S
C366   C370    1.443   .     S
C366   N385    1.370   .     A
C366   C487    1.427   .     S
C367   C371    1.443   .     S
C367   N386    1.370   .     A
C367   C606    1.427   1_545 S
C368   N385    1.370   .     A
C368   C373    1.443   .     S
C368   C485    1.427   .     S
C369   N387    1.158   .     T
C370   N388    1.158   .     T
C371   N389    1.158   .     T
C372   O393    1.288   .     A
C372   O392    1.288   .     A
C373   N390    1.158   .     T
C374   O398    1.280   .     A
C374   C376    1.367   .     S
C374   O395    1.280   .     A
C375   O396    1.280   .     A
C375   C377    1.367   .     S
C375   O397    1.280   .     A
C377   C736    1.166   .     S
C378   H381    1.083   .     S
C378   C460    1.369   1_455 S
C379   H382    1.083   .     S
C379   C402    1.369   .     S
C380   H383    1.083   .     S
C380   C418    1.369   .     S
N385   Zn399   2.021   .     S
N386   Zn400   2.021   .     S
O391   Zn399   2.002   .     S
O392   Zn400   2.002   .     S
O393   Zn399   2.002   .     S
O394   Zn400   2.002   .     S
O395   Zn399   1.950   .     S
O396   Zn400   1.950   .     S
O397   Zn399   1.950   .     S
O398   Zn400   1.950   .     S
C401   C404    1.422   .     S
C401   O434    1.288   .     A
C401   O431    1.288   .     A
C402   C404    1.398   .     A
C402   H424    1.083   .     S
C403   C419    1.398   .     A
C403   C420    1.398   .     A
C403   C412    1.422   .     S
C404   C418    1.398   .     A
C405   C409    1.443   .     S
C405   N426    1.370   .     A
C405   C648    1.427   1_545 S
C406   C410    1.443   .     S
C406   N425    1.370   .     A
C406   C527    1.427   .     S
C407   C411    1.443   .     S
C407   N426    1.370   .     A
C407   C646    1.427   1_545 S
C408   N425    1.370   .     A
C408   C413    1.443   .     S
C408   C525    1.427   .     S
C409   N427    1.158   .     T
C410   N428    1.158   .     T
C411   N429    1.158   .     T
C412   O433    1.288   .     A
C412   O432    1.288   .     A
C413   N430    1.158   .     T
C414   O438    1.280   .     A
C414   C416    1.367   .     S
C414   O435    1.280   .     A
C415   O436    1.280   .     A
C415   C417    1.367   .     S
C415   O437    1.280   .     A
C417   C776    1.166   .     S
C418   H421    1.083   .     S
C419   H422    1.083   .     S
C419   C442    1.369   .     S
C420   H423    1.083   .     S
C420   C458    1.369   .     S
N425   Zn439   2.021   .     S
N426   Zn440   2.021   .     S
O431   Zn439   2.002   .     S
O432   Zn440   2.002   .     S
O433   Zn439   2.002   .     S
O434   Zn440   2.002   .     S
O435   Zn439   1.950   .     S
O436   Zn440   1.950   .     S
O437   Zn439   1.950   .     S
O438   Zn440   1.950   .     S
C441   C444    1.422   .     S
C441   O474    1.288   .     A
C441   O471    1.288   .     A
C442   C444    1.398   .     A
C442   H464    1.083   .     S
C443   C459    1.398   .     A
C443   C460    1.398   .     A
C443   C452    1.422   .     S
C444   C458    1.398   .     A
C445   C449    1.443   .     S
C445   N466    1.370   .     A
C445   C688    1.427   1_545 S
C446   C450    1.443   .     S
C446   N465    1.370   .     A
C446   C567    1.427   .     S
C447   C451    1.443   .     S
C447   N466    1.370   .     A
C447   C686    1.427   1_545 S
C448   N465    1.370   .     A
C448   C453    1.443   .     S
C448   C565    1.427   .     S
C449   N467    1.158   .     T
C450   N468    1.158   .     T
C451   N469    1.158   .     T
C452   O473    1.288   .     A
C452   O472    1.288   .     A
C453   N470    1.158   .     T
C454   O478    1.280   .     A
C454   C456    1.367   .     S
C454   O475    1.280   .     A
C455   O476    1.280   .     A
C455   C457    1.367   .     S
C455   O477    1.280   .     A
C457   C816    1.166   .     S
C458   H461    1.083   .     S
C459   H462    1.083   .     S
C459   C362    1.369   1_655 S
C460   H463    1.083   .     S
C460   C378    1.369   1_655 S
N465   Zn479   2.021   .     S
N466   Zn480   2.021   .     S
O471   Zn479   2.002   .     S
O472   Zn480   2.002   .     S
O473   Zn479   2.002   .     S
O474   Zn480   2.002   .     S
O475   Zn479   1.950   .     S
O476   Zn480   1.950   .     S
O477   Zn479   1.950   .     S
O478   Zn480   1.950   .     S
C481   C484    1.422   .     S
C481   O514    1.288   .     A
C481   O511    1.288   .     A
C482   C484    1.398   .     A
C482   H504    1.083   .     S
C482   C579    1.369   1_455 S
C483   C499    1.398   .     A
C483   C500    1.398   .     A
C483   C492    1.422   .     S
C484   C498    1.398   .     A
C485   C489    1.443   .     S
C485   N506    1.370   .     A
C486   C490    1.443   .     S
C486   N505    1.370   .     A
C486   C607    1.427   .     S
C487   C491    1.443   .     S
C487   N506    1.370   .     A
C488   N505    1.370   .     A
C488   C493    1.443   .     S
C488   C605    1.427   .     S
C489   N507    1.158   .     T
C490   N508    1.158   .     T
C491   N509    1.158   .     T
C492   O513    1.288   .     A
C492   O512    1.288   .     A
C493   N510    1.158   .     T
C494   O518    1.280   .     A
C494   C496    1.367   .     S
C494   O515    1.280   .     A
C495   O516    1.280   .     A
C495   C497    1.367   .     S
C495   O517    1.280   .     A
C497   C856    1.166   .     S
C498   H501    1.083   .     S
C498   C580    1.369   1_455 S
C499   H502    1.083   .     S
C499   C522    1.369   .     S
C500   H503    1.083   .     S
C500   C538    1.369   .     S
N505   Zn519   2.021   .     S
N506   Zn520   2.021   .     S
O511   Zn519   2.002   .     S
O512   Zn520   2.002   .     S
O513   Zn519   2.002   .     S
O514   Zn520   2.002   .     S
O515   Zn519   1.950   .     S
O516   Zn520   1.950   .     S
O517   Zn519   1.950   .     S
O518   Zn520   1.950   .     S
C521   C524    1.422   .     S
C521   O554    1.288   .     A
C521   O551    1.288   .     A
C522   C524    1.398   .     A
C522   H544    1.083   .     S
C523   C539    1.398   .     A
C523   C540    1.398   .     A
C523   C532    1.422   .     S
C524   C538    1.398   .     A
C525   C529    1.443   .     S
C525   N546    1.370   .     A
C526   C530    1.443   .     S
C526   N545    1.370   .     A
C526   C647    1.427   .     S
C527   C531    1.443   .     S
C527   N546    1.370   .     A
C528   N545    1.370   .     A
C528   C533    1.443   .     S
C528   C645    1.427   .     S
C529   N547    1.158   .     T
C530   N548    1.158   .     T
C531   N549    1.158   .     T
C532   O553    1.288   .     A
C532   O552    1.288   .     A
C533   N550    1.158   .     T
C534   O558    1.280   .     A
C534   C536    1.367   .     S
C534   O555    1.280   .     A
C535   O556    1.280   .     A
C535   C537    1.367   .     S
C535   O557    1.280   .     A
C537   C896    1.166   .     S
C538   H541    1.083   .     S
C539   H542    1.083   .     S
C539   C562    1.369   .     S
C540   H543    1.083   .     S
C540   C578    1.369   .     S
N545   Zn559   2.021   .     S
N546   Zn560   2.021   .     S
O551   Zn559   2.002   .     S
O552   Zn560   2.002   .     S
O553   Zn559   2.002   .     S
O554   Zn560   2.002   .     S
O555   Zn559   1.950   .     S
O556   Zn560   1.950   .     S
O557   Zn559   1.950   .     S
O558   Zn560   1.950   .     S
C561   C564    1.422   .     S
C561   O594    1.288   .     A
C561   O591    1.288   .     A
C562   C564    1.398   .     A
C562   H584    1.083   .     S
C563   C579    1.398   .     A
C563   C580    1.398   .     A
C563   C572    1.422   .     S
C564   C578    1.398   .     A
C565   C569    1.443   .     S
C565   N586    1.370   .     A
C566   C570    1.443   .     S
C566   N585    1.370   .     A
C566   C687    1.427   .     S
C567   C571    1.443   .     S
C567   N586    1.370   .     A
C568   N585    1.370   .     A
C568   C573    1.443   .     S
C568   C685    1.427   .     S
C569   N587    1.158   .     T
C570   N588    1.158   .     T
C571   N589    1.158   .     T
C572   O593    1.288   .     A
C572   O592    1.288   .     A
C573   N590    1.158   .     T
C574   O598    1.280   .     A
C574   C576    1.367   .     S
C574   O595    1.280   .     A
C575   O596    1.280   .     A
C575   C577    1.367   .     S
C575   O597    1.280   .     A
C577   C936    1.166   .     S
C578   H581    1.083   .     S
C579   H582    1.083   .     S
C579   C482    1.369   1_655 S
C580   H583    1.083   .     S
C580   C498    1.369   1_655 S
N585   Zn599   2.021   .     S
N586   Zn600   2.021   .     S
O591   Zn599   2.002   .     S
O592   Zn600   2.002   .     S
O593   Zn599   2.002   .     S
O594   Zn600   2.002   .     S
O595   Zn599   1.950   .     S
O596   Zn600   1.950   .     S
O597   Zn599   1.950   .     S
O598   Zn600   1.950   .     S
C601   C604    1.422   .     S
C601   O634    1.288   .     A
C601   O631    1.288   .     A
C602   C604    1.398   .     A
C602   H624    1.083   .     S
C602   C699    1.369   1_455 S
C603   C619    1.398   .     A
C603   C620    1.398   .     A
C603   C612    1.422   .     S
C604   C618    1.398   .     A
C605   C609    1.443   .     S
C605   N626    1.370   .     A
C606   C610    1.443   .     S
C606   N625    1.370   .     A
C606   C367    1.427   1_565 S
C607   C611    1.443   .     S
C607   N626    1.370   .     A
C608   N625    1.370   .     A
C608   C613    1.443   .     S
C608   C365    1.427   1_565 S
C609   N627    1.158   .     T
C610   N628    1.158   .     T
C611   N629    1.158   .     T
C612   O633    1.288   .     A
C612   O632    1.288   .     A
C613   N630    1.158   .     T
C614   O638    1.280   .     A
C614   C616    1.367   .     S
C614   O635    1.280   .     A
C615   O636    1.280   .     A
C615   C617    1.367   .     S
C615   O637    1.280   .     A
C617   C976    1.166   .     S
C618   H621    1.083   .     S
C618   C700    1.369   1_455 S
C619   H622    1.083   .     S
C619   C642    1.369   .     S
C620   H623    1.083   .     S
C620   C658    1.369   .     S
N625   Zn639   2.021   .     S
N626   Zn640   2.021   .     S
O631   Zn639   2.002   .     S
O632   Zn640   2.002   .     S
O633   Zn639   2.002   .     S
O634   Zn640   2.002   .     S
O635   Zn639   1.950   .     S
O636   Zn640   1.950   .     S
O637   Zn639   1.950   .     S
O638   Zn640   1.950   .     S
C641   C644    1.422   .     S
C641   O674    1.288   .     A
C641   O671    1.288   .     A
C642   C644    1.398   .     A
C642   H664    1.083   .     S
C643   C659    1.398   .     A
C643   C660    1.398   .     A
C643   C652    1.422   .     S
C644   C658    1.398   .     A
C645   C649    1.443   .     S
C645   N666    1.370   .     A
C646   C650    1.443   .     S
C646   N665    1.370   .     A
C646   C407    1.427   1_565 S
C647   C651    1.443   .     S
C647   N666    1.370   .     A
C648   N665    1.370   .     A
C648   C653    1.443   .     S
C648   C405    1.427   1_565 S
C649   N667    1.158   .     T
C650   N668    1.158   .     T
C651   N669    1.158   .     T
C652   O673    1.288   .     A
C652   O672    1.288   .     A
C653   N670    1.158   .     T
C654   O678    1.280   .     A
C654   C656    1.367   .     S
C654   O675    1.280   .     A
C655   O676    1.280   .     A
C655   C657    1.367   .     S
C655   O677    1.280   .     A
C657   C1016   1.166   .     S
C658   H661    1.083   .     S
C659   H662    1.083   .     S
C659   C682    1.369   .     S
C660   H663    1.083   .     S
C660   C698    1.369   .     S
N665   Zn679   2.021   .     S
N666   Zn680   2.021   .     S
O671   Zn679   2.002   .     S
O672   Zn680   2.002   .     S
O673   Zn679   2.002   .     S
O674   Zn680   2.002   .     S
O675   Zn679   1.950   .     S
O676   Zn680   1.950   .     S
O677   Zn679   1.950   .     S
O678   Zn680   1.950   .     S
C681   C684    1.422   .     S
C681   O714    1.288   .     A
C681   O711    1.288   .     A
C682   C684    1.398   .     A
C682   H704    1.083   .     S
C683   C699    1.398   .     A
C683   C700    1.398   .     A
C683   C692    1.422   .     S
C684   C698    1.398   .     A
C685   C689    1.443   .     S
C685   N706    1.370   .     A
C686   C690    1.443   .     S
C686   N705    1.370   .     A
C686   C447    1.427   1_565 S
C687   C691    1.443   .     S
C687   N706    1.370   .     A
C688   N705    1.370   .     A
C688   C693    1.443   .     S
C688   C445    1.427   1_565 S
C689   N707    1.158   .     T
C690   N708    1.158   .     T
C691   N709    1.158   .     T
C692   O713    1.288   .     A
C692   O712    1.288   .     A
C693   N710    1.158   .     T
C694   O718    1.280   .     A
C694   C696    1.367   .     S
C694   O715    1.280   .     A
C695   O716    1.280   .     A
C695   C697    1.367   .     S
C695   O717    1.280   .     A
C697   C1056   1.166   .     S
C698   H701    1.083   .     S
C699   H702    1.083   .     S
C699   C602    1.369   1_655 S
C700   H703    1.083   .     S
C700   C618    1.369   1_655 S
N705   Zn719   2.021   .     S
N706   Zn720   2.021   .     S
O711   Zn719   2.002   .     S
O712   Zn720   2.002   .     S
O713   Zn719   2.002   .     S
O714   Zn720   2.002   .     S
O715   Zn719   1.950   .     S
O716   Zn720   1.950   .     S
O717   Zn719   1.950   .     S
O718   Zn720   1.950   .     S
C721   C724    1.422   .     S
C721   O754    1.288   .     A
C721   O751    1.288   .     A
C722   C724    1.398   .     A
C722   H744    1.083   .     S
C722   C819    1.369   1_455 S
C723   C739    1.398   .     A
C723   C740    1.398   .     A
C723   C732    1.422   .     S
C724   C738    1.398   .     A
C725   C729    1.443   .     S
C725   N746    1.370   .     A
C725   C968    1.427   1_545 S
C726   C730    1.443   .     S
C726   N745    1.370   .     A
C726   C847    1.427   .     S
C727   C731    1.443   .     S
C727   N746    1.370   .     A
C727   C966    1.427   1_545 S
C728   N745    1.370   .     A
C728   C733    1.443   .     S
C728   C845    1.427   .     S
C729   N747    1.158   .     T
C730   N748    1.158   .     T
C731   N749    1.158   .     T
C732   O753    1.288   .     A
C732   O752    1.288   .     A
C733   N750    1.158   .     T
C734   O758    1.280   .     A
C734   C736    1.367   .     S
C734   O755    1.280   .     A
C735   O756    1.280   .     A
C735   C737    1.367   .     S
C735   O757    1.280   .     A
C737   C16     1.166   1_556 S
C738   H741    1.083   .     S
C738   C820    1.369   1_455 S
C739   H742    1.083   .     S
C739   C762    1.369   .     S
C740   H743    1.083   .     S
C740   C778    1.369   .     S
N745   Zn759   2.021   .     S
N746   Zn760   2.021   .     S
O751   Zn759   2.002   .     S
O752   Zn760   2.002   .     S
O753   Zn759   2.002   .     S
O754   Zn760   2.002   .     S
O755   Zn759   1.950   .     S
O756   Zn760   1.950   .     S
O757   Zn759   1.950   .     S
O758   Zn760   1.950   .     S
C761   C764    1.422   .     S
C761   O794    1.288   .     A
C761   O791    1.288   .     A
C762   C764    1.398   .     A
C762   H784    1.083   .     S
C763   C779    1.398   .     A
C763   C780    1.398   .     A
C763   C772    1.422   .     S
C764   C778    1.398   .     A
C765   C769    1.443   .     S
C765   N786    1.370   .     A
C765   C1008   1.427   1_545 S
C766   C770    1.443   .     S
C766   N785    1.370   .     A
C766   C887    1.427   .     S
C767   C771    1.443   .     S
C767   N786    1.370   .     A
C767   C1006   1.427   1_545 S
C768   N785    1.370   .     A
C768   C773    1.443   .     S
C768   C885    1.427   .     S
C769   N787    1.158   .     T
C770   N788    1.158   .     T
C771   N789    1.158   .     T
C772   O793    1.288   .     A
C772   O792    1.288   .     A
C773   N790    1.158   .     T
C774   O798    1.280   .     A
C774   C776    1.367   .     S
C774   O795    1.280   .     A
C775   O796    1.280   .     A
C775   C777    1.367   .     S
C775   O797    1.280   .     A
C777   C56     1.166   1_556 S
C778   H781    1.083   .     S
C779   H782    1.083   .     S
C779   C802    1.369   .     S
C780   H783    1.083   .     S
C780   C818    1.369   .     S
N785   Zn799   2.021   .     S
N786   Zn800   2.021   .     S
O791   Zn799   2.002   .     S
O792   Zn800   2.002   .     S
O793   Zn799   2.002   .     S
O794   Zn800   2.002   .     S
O795   Zn799   1.950   .     S
O796   Zn800   1.950   .     S
O797   Zn799   1.950   .     S
O798   Zn800   1.950   .     S
C801   C804    1.422   .     S
C801   O834    1.288   .     A
C801   O831    1.288   .     A
C802   C804    1.398   .     A
C802   H824    1.083   .     S
C803   C819    1.398   .     A
C803   C820    1.398   .     A
C803   C812    1.422   .     S
C804   C818    1.398   .     A
C805   C809    1.443   .     S
C805   N826    1.370   .     A
C805   C1048   1.427   1_545 S
C806   C810    1.443   .     S
C806   N825    1.370   .     A
C806   C927    1.427   .     S
C807   C811    1.443   .     S
C807   N826    1.370   .     A
C807   C1046   1.427   1_545 S
C808   N825    1.370   .     A
C808   C813    1.443   .     S
C808   C925    1.427   .     S
C809   N827    1.158   .     T
C810   N828    1.158   .     T
C811   N829    1.158   .     T
C812   O833    1.288   .     A
C812   O832    1.288   .     A
C813   N830    1.158   .     T
C814   O838    1.280   .     A
C814   C816    1.367   .     S
C814   O835    1.280   .     A
C815   O836    1.280   .     A
C815   C817    1.367   .     S
C815   O837    1.280   .     A
C817   C96     1.166   1_556 S
C818   H821    1.083   .     S
C819   H822    1.083   .     S
C819   C722    1.369   1_655 S
C820   H823    1.083   .     S
C820   C738    1.369   1_655 S
N825   Zn839   2.021   .     S
N826   Zn840   2.021   .     S
O831   Zn839   2.002   .     S
O832   Zn840   2.002   .     S
O833   Zn839   2.002   .     S
O834   Zn840   2.002   .     S
O835   Zn839   1.950   .     S
O836   Zn840   1.950   .     S
O837   Zn839   1.950   .     S
O838   Zn840   1.950   .     S
C841   C844    1.422   .     S
C841   O874    1.288   .     A
C841   O871    1.288   .     A
C842   C844    1.398   .     A
C842   H864    1.083   .     S
C842   C939    1.369   1_455 S
C843   C859    1.398   .     A
C843   C860    1.398   .     A
C843   C852    1.422   .     S
C844   C858    1.398   .     A
C845   C849    1.443   .     S
C845   N866    1.370   .     A
C846   C850    1.443   .     S
C846   N865    1.370   .     A
C846   C967    1.427   .     S
C847   C851    1.443   .     S
C847   N866    1.370   .     A
C848   N865    1.370   .     A
C848   C853    1.443   .     S
C848   C965    1.427   .     S
C849   N867    1.158   .     T
C850   N868    1.158   .     T
C851   N869    1.158   .     T
C852   O873    1.288   .     A
C852   O872    1.288   .     A
C853   N870    1.158   .     T
C854   O878    1.280   .     A
C854   C856    1.367   .     S
C854   O875    1.280   .     A
C855   O876    1.280   .     A
C855   C857    1.367   .     S
C855   O877    1.280   .     A
C857   C136    1.166   1_556 S
C858   H861    1.083   .     S
C858   C940    1.369   1_455 S
C859   H862    1.083   .     S
C859   C882    1.369   .     S
C860   H863    1.083   .     S
C860   C898    1.369   .     S
N865   Zn879   2.021   .     S
N866   Zn880   2.021   .     S
O871   Zn879   2.002   .     S
O872   Zn880   2.002   .     S
O873   Zn879   2.002   .     S
O874   Zn880   2.002   .     S
O875   Zn879   1.950   .     S
O876   Zn880   1.950   .     S
O877   Zn879   1.950   .     S
O878   Zn880   1.950   .     S
C881   C884    1.422   .     S
C881   O914    1.288   .     A
C881   O911    1.288   .     A
C882   C884    1.398   .     A
C882   H904    1.083   .     S
C883   C899    1.398   .     A
C883   C900    1.398   .     A
C883   C892    1.422   .     S
C884   C898    1.398   .     A
C885   C889    1.443   .     S
C885   N906    1.370   .     A
C886   C890    1.443   .     S
C886   N905    1.370   .     A
C886   C1007   1.427   .     S
C887   C891    1.443   .     S
C887   N906    1.370   .     A
C888   N905    1.370   .     A
C888   C893    1.443   .     S
C888   C1005   1.427   .     S
C889   N907    1.158   .     T
C890   N908    1.158   .     T
C891   N909    1.158   .     T
C892   O913    1.288   .     A
C892   O912    1.288   .     A
C893   N910    1.158   .     T
C894   O918    1.280   .     A
C894   C896    1.367   .     S
C894   O915    1.280   .     A
C895   O916    1.280   .     A
C895   C897    1.367   .     S
C895   O917    1.280   .     A
C897   C176    1.166   1_556 S
C898   H901    1.083   .     S
C899   H902    1.083   .     S
C899   C922    1.369   .     S
C900   H903    1.083   .     S
C900   C938    1.369   .     S
N905   Zn919   2.021   .     S
N906   Zn920   2.021   .     S
O911   Zn919   2.002   .     S
O912   Zn920   2.002   .     S
O913   Zn919   2.002   .     S
O914   Zn920   2.002   .     S
O915   Zn919   1.950   .     S
O916   Zn920   1.950   .     S
O917   Zn919   1.950   .     S
O918   Zn920   1.950   .     S
C921   C924    1.422   .     S
C921   O954    1.288   .     A
C921   O951    1.288   .     A
C922   C924    1.398   .     A
C922   H944    1.083   .     S
C923   C939    1.398   .     A
C923   C940    1.398   .     A
C923   C932    1.422   .     S
C924   C938    1.398   .     A
C925   C929    1.443   .     S
C925   N946    1.370   .     A
C926   C930    1.443   .     S
C926   N945    1.370   .     A
C926   C1047   1.427   .     S
C927   C931    1.443   .     S
C927   N946    1.370   .     A
C928   N945    1.370   .     A
C928   C933    1.443   .     S
C928   C1045   1.427   .     S
C929   N947    1.158   .     T
C930   N948    1.158   .     T
C931   N949    1.158   .     T
C932   O953    1.288   .     A
C932   O952    1.288   .     A
C933   N950    1.158   .     T
C934   O958    1.280   .     A
C934   C936    1.367   .     S
C934   O955    1.280   .     A
C935   O956    1.280   .     A
C935   C937    1.367   .     S
C935   O957    1.280   .     A
C937   C216    1.166   1_556 S
C938   H941    1.083   .     S
C939   H942    1.083   .     S
C939   C842    1.369   1_655 S
C940   H943    1.083   .     S
C940   C858    1.369   1_655 S
N945   Zn959   2.021   .     S
N946   Zn960   2.021   .     S
O951   Zn959   2.002   .     S
O952   Zn960   2.002   .     S
O953   Zn959   2.002   .     S
O954   Zn960   2.002   .     S
O955   Zn959   1.950   .     S
O956   Zn960   1.950   .     S
O957   Zn959   1.950   .     S
O958   Zn960   1.950   .     S
C961   C964    1.422   .     S
C961   O994    1.288   .     A
C961   O991    1.288   .     A
C962   C964    1.398   .     A
C962   H984    1.083   .     S
C962   C1059   1.369   1_455 S
C963   C979    1.398   .     A
C963   C980    1.398   .     A
C963   C972    1.422   .     S
C964   C978    1.398   .     A
C965   C969    1.443   .     S
C965   N986    1.370   .     A
C966   C970    1.443   .     S
C966   N985    1.370   .     A
C966   C727    1.427   1_565 S
C967   C971    1.443   .     S
C967   N986    1.370   .     A
C968   N985    1.370   .     A
C968   C973    1.443   .     S
C968   C725    1.427   1_565 S
C969   N987    1.158   .     T
C970   N988    1.158   .     T
C971   N989    1.158   .     T
C972   O993    1.288   .     A
C972   O992    1.288   .     A
C973   N990    1.158   .     T
C974   O998    1.280   .     A
C974   C976    1.367   .     S
C974   O995    1.280   .     A
C975   O996    1.280   .     A
C975   C977    1.367   .     S
C975   O997    1.280   .     A
C977   C256    1.166   1_556 S
C978   H981    1.083   .     S
C978   C1060   1.369   1_455 S
C979   H982    1.083   .     S
C979   C1002   1.369   .     S
C980   H983    1.083   .     S
C980   C1018   1.369   .     S
N985   Zn999   2.021   .     S
N986   Zn1000  2.021   .     S
O991   Zn999   2.002   .     S
O992   Zn1000  2.002   .     S
O993   Zn999   2.002   .     S
O994   Zn1000  2.002   .     S
O995   Zn999   1.950   .     S
O996   Zn1000  1.950   .     S
O997   Zn999   1.950   .     S
O998   Zn1000  1.950   .     S
C1001  C1004   1.422   .     S
C1001  O1034   1.288   .     A
C1001  O1031   1.288   .     A
C1002  C1004   1.398   .     A
C1002  H1024   1.083   .     S
C1003  C1019   1.398   .     A
C1003  C1020   1.398   .     A
C1003  C1012   1.422   .     S
C1004  C1018   1.398   .     A
C1005  C1009   1.443   .     S
C1005  N1026   1.370   .     A
C1006  C1010   1.443   .     S
C1006  N1025   1.370   .     A
C1006  C767    1.427   1_565 S
C1007  C1011   1.443   .     S
C1007  N1026   1.370   .     A
C1008  N1025   1.370   .     A
C1008  C1013   1.443   .     S
C1008  C765    1.427   1_565 S
C1009  N1027   1.158   .     T
C1010  N1028   1.158   .     T
C1011  N1029   1.158   .     T
C1012  O1033   1.288   .     A
C1012  O1032   1.288   .     A
C1013  N1030   1.158   .     T
C1014  O1038   1.280   .     A
C1014  C1016   1.367   .     S
C1014  O1035   1.280   .     A
C1015  O1036   1.280   .     A
C1015  C1017   1.367   .     S
C1015  O1037   1.280   .     A
C1017  C296    1.166   1_556 S
C1018  H1021   1.083   .     S
C1019  H1022   1.083   .     S
C1019  C1042   1.369   .     S
C1020  H1023   1.083   .     S
C1020  C1058   1.369   .     S
N1025  Zn1039  2.021   .     S
N1026  Zn1040  2.021   .     S
O1031  Zn1039  2.002   .     S
O1032  Zn1040  2.002   .     S
O1033  Zn1039  2.002   .     S
O1034  Zn1040  2.002   .     S
O1035  Zn1039  1.950   .     S
O1036  Zn1040  1.950   .     S
O1037  Zn1039  1.950   .     S
O1038  Zn1040  1.950   .     S
C1041  C1044   1.422   .     S
C1041  O1074   1.288   .     A
C1041  O1071   1.288   .     A
C1042  C1044   1.398   .     A
C1042  H1064   1.083   .     S
C1043  C1059   1.398   .     A
C1043  C1060   1.398   .     A
C1043  C1052   1.422   .     S
C1044  C1058   1.398   .     A
C1045  C1049   1.443   .     S
C1045  N1066   1.370   .     A
C1046  C1050   1.443   .     S
C1046  N1065   1.370   .     A
C1046  C807    1.427   1_565 S
C1047  C1051   1.443   .     S
C1047  N1066   1.370   .     A
C1048  N1065   1.370   .     A
C1048  C1053   1.443   .     S
C1048  C805    1.427   1_565 S
C1049  N1067   1.158   .     T
C1050  N1068   1.158   .     T
C1051  N1069   1.158   .     T
C1052  O1073   1.288   .     A
C1052  O1072   1.288   .     A
C1053  N1070   1.158   .     T
C1054  O1078   1.280   .     A
C1054  C1056   1.367   .     S
C1054  O1075   1.280   .     A
C1055  O1076   1.280   .     A
C1055  C1057   1.367   .     S
C1055  O1077   1.280   .     A
C1057  C336    1.166   1_556 S
C1058  H1061   1.083   .     S
C1059  H1062   1.083   .     S
C1059  C962    1.369   1_655 S
C1060  H1063   1.083   .     S
C1060  C978    1.369   1_655 S
N1065  Zn1079  2.021   .     S
N1066  Zn1080  2.021   .     S
O1071  Zn1079  2.002   .     S
O1072  Zn1080  2.002   .     S
O1073  Zn1079  2.002   .     S
O1074  Zn1080  2.002   .     S
O1075  Zn1079  1.950   .     S
O1076  Zn1080  1.950   .     S
O1077  Zn1079  1.950   .     S
O1078  Zn1080  1.950   .     S
