data_str_m3_o1_o17_pcu_sym.28
_audit_creation_date              2020-01-03
_audit_creation_method            'Materials Studio'
_symmetry_space_group_name_H-M    'P1'
_symmetry_Int_Tables_number       1
_symmetry_cell_setting            triclinic
loop_
_symmetry_equiv_pos_as_xyz
  x,y,z
_cell_length_a                    31.9572
_cell_length_b                    29.5023
_cell_length_c                    30.0213
_cell_angle_alpha                 89.9541
_cell_angle_beta                  90.1179
_cell_angle_gamma                 89.9532
loop_
_atom_site_label
_atom_site_type_symbol
_atom_site_fract_x
_atom_site_fract_y
_atom_site_fract_z
_atom_site_U_iso_or_equiv
_atom_site_adp_type
_atom_site_occupancy
C1     C     0.08677   0.16668   0.24998   0.00000  Uiso   1.00
C2     C     0.04264   0.16670   0.24997   0.00000  Uiso   1.00
C3     C     0.19169   0.02394   0.27874   0.00000  Uiso   1.00
C4     C     0.14164   0.30939   0.22126   0.00000  Uiso   1.00
C5     C     0.14164   0.02404   0.22126   0.00000  Uiso   1.00
C6     C     0.19169   0.30929   0.27874   0.00000  Uiso   1.00
C7     C     0.16661   0.16668   0.16326   0.00000  Uiso   1.00
C8     C     0.16672   0.16666   0.33674   0.00000  Uiso   1.00
C9     C     0.16681   0.20795   0.40755   0.00000  Uiso   1.00
C10    C     0.16652   0.12538   0.09245   0.00000  Uiso   1.00
C11    C     0.16678   0.16665   0.38469   0.00000  Uiso   1.00
C12    C     0.24656   0.16665   0.25002   0.00000  Uiso   1.00
C13    C     0.16655   0.16668   0.11531   0.00000  Uiso   1.00
C14    C     0.16678   0.12536   0.40762   0.00000  Uiso   1.00
C15    C     0.16655   0.20798   0.09237   0.00000  Uiso   1.00
C16    C     0.16673   0.12505   0.45370   0.00000  Uiso   1.00
C17    C     0.16660   0.20828   0.04630   0.00000  Uiso   1.00
C18    C     0.16671   0.16666   0.47683   0.00000  Uiso   1.00
C19    C     0.16663   0.16667   0.02317   0.00000  Uiso   1.00
C20    C     0.16676   0.20827   0.45362   0.00000  Uiso   1.00
C21    C     0.16657   0.12506   0.04638   0.00000  Uiso   1.00
C22    C     0.16667   0.08388   0.47694   0.00000  Uiso   1.00
C23    C     0.16659   0.08389   0.02322   0.00000  Uiso   1.00
C24    C     0.16666   0.24945   0.02306   0.00000  Uiso   1.00
C25    C     0.16674   0.24944   0.47678   0.00000  Uiso   1.00
C26    C     0.02167   0.14226   0.21677   0.00000  Uiso   1.00
C27    C     0.31166   0.19107   0.28322   0.00000  Uiso   1.00
C28    C     0.31157   0.14223   0.21680   0.00000  Uiso   1.00
C29    C     0.02176   0.19110   0.28320   0.00000  Uiso   1.00
C30    C     0.29069   0.16663   0.25002   0.00000  Uiso   1.00
H31    H     0.16679   0.09343   0.38972   0.00000  Uiso   1.00
H32    H     0.16664   0.28152   0.04065   0.00000  Uiso   1.00
H33    H     0.16655   0.05182   0.04086   0.00000  Uiso   1.00
H34    H     0.16678   0.28151   0.45914   0.00000  Uiso   1.00
H35    H     0.03698   0.08440   0.18393   0.00000  Uiso   1.00
H36    H     0.03659   0.13188   0.15178   0.00000  Uiso   1.00
H37    H     0.29635   0.24893   0.31607   0.00000  Uiso   1.00
H38    H     0.29674   0.20145   0.34822   0.00000  Uiso   1.00
H39    H     0.29636   0.13194   0.15181   0.00000  Uiso   1.00
H40    H     0.29633   0.08440   0.18386   0.00000  Uiso   1.00
H41    H     0.03697   0.20139   0.34819   0.00000  Uiso   1.00
H42    H     0.16654   0.23990   0.11028   0.00000  Uiso   1.00
H43    H     0.03700   0.24893   0.31614   0.00000  Uiso   1.00
H44    H     0.21169   0.04211   0.30171   0.00000  Uiso   1.00
H45    H     0.12164   0.29123   0.19829   0.00000  Uiso   1.00
H46    H     0.12163   0.04228   0.19830   0.00000  Uiso   1.00
H47    H     0.21170   0.29105   0.30170   0.00000  Uiso   1.00
H48    H     0.16685   0.23987   0.38960   0.00000  Uiso   1.00
H49    H     0.16648   0.09346   0.11040   0.00000  Uiso   1.00
H50    H     0.16669   0.05181   0.45935   0.00000  Uiso   1.00
N51    N     0.16667   0.28573   0.25000   0.00000  Uiso   1.00
N52    N     0.16667   0.04760   0.25000   0.00000  Uiso   1.00
N53    N     0.04487   0.11876   0.18292   0.00000  Uiso   1.00
N54    N     0.28847   0.21457   0.31708   0.00000  Uiso   1.00
N55    N     0.28830   0.11873   0.18294   0.00000  Uiso   1.00
N56    N     0.04504   0.21460   0.31706   0.00000  Uiso   1.00
O57    O     0.10559   0.20487   0.24999   0.00000  Uiso   1.00
O58    O     0.22774   0.12846   0.25000   0.00000  Uiso   1.00
O59    O     0.22774   0.20487   0.25000   0.00000  Uiso   1.00
O60    O     0.10559   0.12846   0.24999   0.00000  Uiso   1.00
O61    O     0.16666   0.20489   0.18392   0.00000  Uiso   1.00
O62    O     0.16667   0.12844   0.31607   0.00000  Uiso   1.00
O63    O     0.16667   0.20489   0.31607   0.00000  Uiso   1.00
O64    O     0.16666   0.12844   0.18392   0.00000  Uiso   1.00
Zn65   Zn    0.16667   0.21771   0.25000   0.00000  Uiso   1.00
Zn66   Zn    0.16667   0.11563   0.25000   0.00000  Uiso   1.00
C67    C     0.42011   0.16668   0.24998   0.00000  Uiso   1.00
C68    C     0.37598   0.16670   0.24997   0.00000  Uiso   1.00
C69    C     0.52503   0.02394   0.27874   0.00000  Uiso   1.00
C70    C     0.47498   0.30939   0.22126   0.00000  Uiso   1.00
C71    C     0.47497   0.02404   0.22126   0.00000  Uiso   1.00
C72    C     0.52503   0.30929   0.27874   0.00000  Uiso   1.00
C73    C     0.49995   0.16668   0.16326   0.00000  Uiso   1.00
C74    C     0.50005   0.16666   0.33674   0.00000  Uiso   1.00
C75    C     0.50015   0.20795   0.40755   0.00000  Uiso   1.00
C76    C     0.49985   0.12538   0.09245   0.00000  Uiso   1.00
C77    C     0.50012   0.16665   0.38469   0.00000  Uiso   1.00
C78    C     0.57989   0.16665   0.25002   0.00000  Uiso   1.00
C79    C     0.49988   0.16668   0.11531   0.00000  Uiso   1.00
C80    C     0.50011   0.12536   0.40762   0.00000  Uiso   1.00
C81    C     0.49989   0.20798   0.09237   0.00000  Uiso   1.00
C82    C     0.50006   0.12505   0.45370   0.00000  Uiso   1.00
C83    C     0.49994   0.20828   0.04630   0.00000  Uiso   1.00
C84    C     0.50004   0.16666   0.47683   0.00000  Uiso   1.00
C85    C     0.49996   0.16667   0.02317   0.00000  Uiso   1.00
C86    C     0.50010   0.20827   0.45362   0.00000  Uiso   1.00
C87    C     0.49990   0.12506   0.04638   0.00000  Uiso   1.00
C88    C     0.50001   0.08388   0.47694   0.00000  Uiso   1.00
C89    C     0.49992   0.08389   0.02322   0.00000  Uiso   1.00
C90    C     0.49999   0.24945   0.02306   0.00000  Uiso   1.00
C91    C     0.50008   0.24944   0.47678   0.00000  Uiso   1.00
C92    C     0.35501   0.14226   0.21677   0.00000  Uiso   1.00
C93    C     0.64499   0.19107   0.28322   0.00000  Uiso   1.00
C94    C     0.64491   0.14223   0.21680   0.00000  Uiso   1.00
C95    C     0.35509   0.19110   0.28320   0.00000  Uiso   1.00
C96    C     0.62402   0.16663   0.25002   0.00000  Uiso   1.00
H97    H     0.50012   0.09343   0.38972   0.00000  Uiso   1.00
H98    H     0.49998   0.28152   0.04065   0.00000  Uiso   1.00
H99    H     0.49988   0.05182   0.04086   0.00000  Uiso   1.00
H100   H     0.50012   0.28151   0.45914   0.00000  Uiso   1.00
H101   H     0.37031   0.08440   0.18393   0.00000  Uiso   1.00
H102   H     0.36993   0.13188   0.15178   0.00000  Uiso   1.00
H103   H     0.62969   0.24893   0.31607   0.00000  Uiso   1.00
H104   H     0.63007   0.20145   0.34822   0.00000  Uiso   1.00
H105   H     0.62970   0.13194   0.15181   0.00000  Uiso   1.00
H106   H     0.62967   0.08440   0.18386   0.00000  Uiso   1.00
H107   H     0.37030   0.20139   0.34819   0.00000  Uiso   1.00
H108   H     0.49988   0.23990   0.11028   0.00000  Uiso   1.00
H109   H     0.37033   0.24893   0.31614   0.00000  Uiso   1.00
H110   H     0.54502   0.04211   0.30171   0.00000  Uiso   1.00
H111   H     0.45498   0.29123   0.19829   0.00000  Uiso   1.00
H112   H     0.45497   0.04228   0.19830   0.00000  Uiso   1.00
H113   H     0.54503   0.29105   0.30170   0.00000  Uiso   1.00
H114   H     0.50019   0.23987   0.38960   0.00000  Uiso   1.00
H115   H     0.49981   0.09346   0.11040   0.00000  Uiso   1.00
H116   H     0.50002   0.05181   0.45935   0.00000  Uiso   1.00
N117   N     0.50000   0.28573   0.25000   0.00000  Uiso   1.00
N118   N     0.50000   0.04760   0.25000   0.00000  Uiso   1.00
N119   N     0.37820   0.11876   0.18292   0.00000  Uiso   1.00
N120   N     0.62180   0.21457   0.31708   0.00000  Uiso   1.00
N121   N     0.62163   0.11873   0.18294   0.00000  Uiso   1.00
N122   N     0.37837   0.21460   0.31706   0.00000  Uiso   1.00
O123   O     0.43892   0.20487   0.24999   0.00000  Uiso   1.00
O124   O     0.56108   0.12846   0.25000   0.00000  Uiso   1.00
O125   O     0.56108   0.20487   0.25000   0.00000  Uiso   1.00
O126   O     0.43892   0.12846   0.24999   0.00000  Uiso   1.00
O127   O     0.49999   0.20489   0.18392   0.00000  Uiso   1.00
O128   O     0.50001   0.12844   0.31607   0.00000  Uiso   1.00
O129   O     0.50001   0.20489   0.31607   0.00000  Uiso   1.00
O130   O     0.49999   0.12844   0.18392   0.00000  Uiso   1.00
Zn131  Zn    0.50000   0.21771   0.25000   0.00000  Uiso   1.00
Zn132  Zn    0.50000   0.11563   0.25000   0.00000  Uiso   1.00
C133   C     0.75344   0.16668   0.24998   0.00000  Uiso   1.00
C134   C     0.70931   0.16670   0.24997   0.00000  Uiso   1.00
C135   C     0.85836   0.02394   0.27874   0.00000  Uiso   1.00
C136   C     0.80831   0.30939   0.22126   0.00000  Uiso   1.00
C137   C     0.80831   0.02404   0.22126   0.00000  Uiso   1.00
C138   C     0.85836   0.30929   0.27874   0.00000  Uiso   1.00
C139   C     0.83328   0.16668   0.16326   0.00000  Uiso   1.00
C140   C     0.83339   0.16666   0.33674   0.00000  Uiso   1.00
C141   C     0.83348   0.20795   0.40755   0.00000  Uiso   1.00
C142   C     0.83319   0.12538   0.09245   0.00000  Uiso   1.00
C143   C     0.83345   0.16665   0.38469   0.00000  Uiso   1.00
C144   C     0.91323   0.16665   0.25002   0.00000  Uiso   1.00
C145   C     0.83322   0.16668   0.11531   0.00000  Uiso   1.00
C146   C     0.83345   0.12536   0.40762   0.00000  Uiso   1.00
C147   C     0.83322   0.20798   0.09237   0.00000  Uiso   1.00
C148   C     0.83340   0.12505   0.45370   0.00000  Uiso   1.00
C149   C     0.83327   0.20828   0.04630   0.00000  Uiso   1.00
C150   C     0.83337   0.16666   0.47683   0.00000  Uiso   1.00
C151   C     0.83329   0.16667   0.02317   0.00000  Uiso   1.00
C152   C     0.83343   0.20827   0.45362   0.00000  Uiso   1.00
C153   C     0.83324   0.12506   0.04638   0.00000  Uiso   1.00
C154   C     0.83334   0.08388   0.47694   0.00000  Uiso   1.00
C155   C     0.83326   0.08389   0.02322   0.00000  Uiso   1.00
C156   C     0.83333   0.24945   0.02306   0.00000  Uiso   1.00
C157   C     0.83341   0.24944   0.47678   0.00000  Uiso   1.00
C158   C     0.68834   0.14226   0.21677   0.00000  Uiso   1.00
C159   C     0.97833   0.19107   0.28322   0.00000  Uiso   1.00
C160   C     0.97824   0.14223   0.21680   0.00000  Uiso   1.00
C161   C     0.68843   0.19110   0.28320   0.00000  Uiso   1.00
C162   C     0.95736   0.16663   0.25002   0.00000  Uiso   1.00
H163   H     0.83346   0.09343   0.38972   0.00000  Uiso   1.00
H164   H     0.83331   0.28152   0.04065   0.00000  Uiso   1.00
H165   H     0.83322   0.05182   0.04086   0.00000  Uiso   1.00
H166   H     0.83345   0.28151   0.45914   0.00000  Uiso   1.00
H167   H     0.70365   0.08440   0.18393   0.00000  Uiso   1.00
H168   H     0.70326   0.13188   0.15178   0.00000  Uiso   1.00
H169   H     0.96302   0.24893   0.31607   0.00000  Uiso   1.00
H170   H     0.96341   0.20145   0.34822   0.00000  Uiso   1.00
H171   H     0.96303   0.13194   0.15181   0.00000  Uiso   1.00
H172   H     0.96300   0.08440   0.18386   0.00000  Uiso   1.00
H173   H     0.70364   0.20139   0.34819   0.00000  Uiso   1.00
H174   H     0.83321   0.23990   0.11028   0.00000  Uiso   1.00
H175   H     0.70367   0.24893   0.31614   0.00000  Uiso   1.00
H176   H     0.87836   0.04211   0.30171   0.00000  Uiso   1.00
H177   H     0.78831   0.29123   0.19829   0.00000  Uiso   1.00
H178   H     0.78830   0.04228   0.19830   0.00000  Uiso   1.00
H179   H     0.87837   0.29105   0.30170   0.00000  Uiso   1.00
H180   H     0.83352   0.23987   0.38960   0.00000  Uiso   1.00
H181   H     0.83315   0.09346   0.11040   0.00000  Uiso   1.00
H182   H     0.83336   0.05181   0.45935   0.00000  Uiso   1.00
N183   N     0.83333   0.28573   0.25000   0.00000  Uiso   1.00
N184   N     0.83333   0.04760   0.25000   0.00000  Uiso   1.00
N185   N     0.71153   0.11876   0.18292   0.00000  Uiso   1.00
N186   N     0.95513   0.21457   0.31708   0.00000  Uiso   1.00
N187   N     0.95496   0.11873   0.18294   0.00000  Uiso   1.00
N188   N     0.71170   0.21460   0.31706   0.00000  Uiso   1.00
O189   O     0.77226   0.20487   0.24999   0.00000  Uiso   1.00
O190   O     0.89441   0.12846   0.25000   0.00000  Uiso   1.00
O191   O     0.89441   0.20487   0.25000   0.00000  Uiso   1.00
O192   O     0.77226   0.12846   0.24999   0.00000  Uiso   1.00
O193   O     0.83333   0.20489   0.18392   0.00000  Uiso   1.00
O194   O     0.83334   0.12844   0.31607   0.00000  Uiso   1.00
O195   O     0.83334   0.20489   0.31607   0.00000  Uiso   1.00
O196   O     0.83333   0.12844   0.18392   0.00000  Uiso   1.00
Zn197  Zn    0.83333   0.21771   0.25000   0.00000  Uiso   1.00
Zn198  Zn    0.83333   0.11563   0.25000   0.00000  Uiso   1.00
C199   C     0.08677   0.50002   0.24998   0.00000  Uiso   1.00
C200   C     0.04264   0.50004   0.24997   0.00000  Uiso   1.00
C201   C     0.19169   0.35728   0.27874   0.00000  Uiso   1.00
C202   C     0.14164   0.64272   0.22126   0.00000  Uiso   1.00
C203   C     0.14164   0.35737   0.22126   0.00000  Uiso   1.00
C204   C     0.19169   0.64263   0.27874   0.00000  Uiso   1.00
C205   C     0.16661   0.50001   0.16326   0.00000  Uiso   1.00
C206   C     0.16672   0.49999   0.33674   0.00000  Uiso   1.00
C207   C     0.16681   0.54128   0.40755   0.00000  Uiso   1.00
C208   C     0.16652   0.45872   0.09245   0.00000  Uiso   1.00
C209   C     0.16678   0.49998   0.38469   0.00000  Uiso   1.00
C210   C     0.24656   0.49998   0.25002   0.00000  Uiso   1.00
C211   C     0.16655   0.50002   0.11531   0.00000  Uiso   1.00
C212   C     0.16678   0.45869   0.40762   0.00000  Uiso   1.00
C213   C     0.16655   0.54131   0.09237   0.00000  Uiso   1.00
C214   C     0.16673   0.45838   0.45370   0.00000  Uiso   1.00
C215   C     0.16660   0.54162   0.04630   0.00000  Uiso   1.00
C216   C     0.16671   0.50000   0.47683   0.00000  Uiso   1.00
C217   C     0.16663   0.50000   0.02317   0.00000  Uiso   1.00
C218   C     0.16676   0.54160   0.45362   0.00000  Uiso   1.00
C219   C     0.16657   0.45840   0.04638   0.00000  Uiso   1.00
C220   C     0.16667   0.41722   0.47694   0.00000  Uiso   1.00
C221   C     0.16659   0.41723   0.02322   0.00000  Uiso   1.00
C222   C     0.16666   0.58278   0.02306   0.00000  Uiso   1.00
C223   C     0.16674   0.58277   0.47678   0.00000  Uiso   1.00
C224   C     0.02167   0.47560   0.21677   0.00000  Uiso   1.00
C225   C     0.31166   0.52440   0.28322   0.00000  Uiso   1.00
C226   C     0.31157   0.47556   0.21680   0.00000  Uiso   1.00
C227   C     0.02176   0.52444   0.28320   0.00000  Uiso   1.00
C228   C     0.29069   0.49996   0.25002   0.00000  Uiso   1.00
H229   H     0.16679   0.42677   0.38972   0.00000  Uiso   1.00
H230   H     0.16664   0.61486   0.04065   0.00000  Uiso   1.00
H231   H     0.16655   0.38515   0.04086   0.00000  Uiso   1.00
H232   H     0.16678   0.61484   0.45914   0.00000  Uiso   1.00
H233   H     0.03698   0.41774   0.18393   0.00000  Uiso   1.00
H234   H     0.03659   0.46522   0.15178   0.00000  Uiso   1.00
H235   H     0.29635   0.58226   0.31607   0.00000  Uiso   1.00
H236   H     0.29674   0.53478   0.34822   0.00000  Uiso   1.00
H237   H     0.29636   0.46528   0.15181   0.00000  Uiso   1.00
H238   H     0.29633   0.41773   0.18386   0.00000  Uiso   1.00
H239   H     0.03697   0.53472   0.34819   0.00000  Uiso   1.00
H240   H     0.16654   0.57323   0.11028   0.00000  Uiso   1.00
H241   H     0.03700   0.58227   0.31614   0.00000  Uiso   1.00
H242   H     0.21169   0.37544   0.30171   0.00000  Uiso   1.00
H243   H     0.12164   0.62456   0.19829   0.00000  Uiso   1.00
H244   H     0.12163   0.37562   0.19830   0.00000  Uiso   1.00
H245   H     0.21170   0.62438   0.30170   0.00000  Uiso   1.00
H246   H     0.16685   0.57320   0.38960   0.00000  Uiso   1.00
H247   H     0.16648   0.42680   0.11040   0.00000  Uiso   1.00
H248   H     0.16669   0.38514   0.45935   0.00000  Uiso   1.00
N249   N     0.16667   0.61907   0.25000   0.00000  Uiso   1.00
N250   N     0.16667   0.38093   0.25000   0.00000  Uiso   1.00
N251   N     0.04487   0.45209   0.18292   0.00000  Uiso   1.00
N252   N     0.28847   0.54791   0.31708   0.00000  Uiso   1.00
N253   N     0.28830   0.45206   0.18294   0.00000  Uiso   1.00
N254   N     0.04504   0.54793   0.31706   0.00000  Uiso   1.00
O255   O     0.10559   0.53821   0.24999   0.00000  Uiso   1.00
O256   O     0.22774   0.46179   0.25000   0.00000  Uiso   1.00
O257   O     0.22774   0.53821   0.25000   0.00000  Uiso   1.00
O258   O     0.10559   0.46179   0.24999   0.00000  Uiso   1.00
O259   O     0.16666   0.53823   0.18392   0.00000  Uiso   1.00
O260   O     0.16667   0.46177   0.31607   0.00000  Uiso   1.00
O261   O     0.16667   0.53823   0.31607   0.00000  Uiso   1.00
O262   O     0.16666   0.46177   0.18392   0.00000  Uiso   1.00
Zn263  Zn    0.16667   0.55104   0.25000   0.00000  Uiso   1.00
Zn264  Zn    0.16667   0.44896   0.25000   0.00000  Uiso   1.00
C265   C     0.42011   0.50002   0.24998   0.00000  Uiso   1.00
C266   C     0.37598   0.50004   0.24997   0.00000  Uiso   1.00
C267   C     0.52503   0.35728   0.27874   0.00000  Uiso   1.00
C268   C     0.47498   0.64272   0.22126   0.00000  Uiso   1.00
C269   C     0.47497   0.35737   0.22126   0.00000  Uiso   1.00
C270   C     0.52503   0.64263   0.27874   0.00000  Uiso   1.00
C271   C     0.49995   0.50001   0.16326   0.00000  Uiso   1.00
C272   C     0.50005   0.49999   0.33674   0.00000  Uiso   1.00
C273   C     0.50015   0.54128   0.40755   0.00000  Uiso   1.00
C274   C     0.49985   0.45872   0.09245   0.00000  Uiso   1.00
C275   C     0.50012   0.49998   0.38469   0.00000  Uiso   1.00
C276   C     0.57989   0.49998   0.25002   0.00000  Uiso   1.00
C277   C     0.49988   0.50002   0.11531   0.00000  Uiso   1.00
C278   C     0.50011   0.45869   0.40762   0.00000  Uiso   1.00
C279   C     0.49989   0.54131   0.09237   0.00000  Uiso   1.00
C280   C     0.50006   0.45838   0.45370   0.00000  Uiso   1.00
C281   C     0.49994   0.54162   0.04630   0.00000  Uiso   1.00
C282   C     0.50004   0.50000   0.47683   0.00000  Uiso   1.00
C283   C     0.49996   0.50000   0.02317   0.00000  Uiso   1.00
C284   C     0.50010   0.54160   0.45362   0.00000  Uiso   1.00
C285   C     0.49990   0.45840   0.04638   0.00000  Uiso   1.00
C286   C     0.50001   0.41722   0.47694   0.00000  Uiso   1.00
C287   C     0.49992   0.41723   0.02322   0.00000  Uiso   1.00
C288   C     0.49999   0.58278   0.02306   0.00000  Uiso   1.00
C289   C     0.50008   0.58277   0.47678   0.00000  Uiso   1.00
C290   C     0.35501   0.47560   0.21677   0.00000  Uiso   1.00
C291   C     0.64499   0.52440   0.28322   0.00000  Uiso   1.00
C292   C     0.64491   0.47556   0.21680   0.00000  Uiso   1.00
C293   C     0.35509   0.52444   0.28320   0.00000  Uiso   1.00
C294   C     0.62402   0.49996   0.25002   0.00000  Uiso   1.00
H295   H     0.50012   0.42677   0.38972   0.00000  Uiso   1.00
H296   H     0.49998   0.61486   0.04065   0.00000  Uiso   1.00
H297   H     0.49988   0.38515   0.04086   0.00000  Uiso   1.00
H298   H     0.50012   0.61484   0.45914   0.00000  Uiso   1.00
H299   H     0.37031   0.41774   0.18393   0.00000  Uiso   1.00
H300   H     0.36993   0.46522   0.15178   0.00000  Uiso   1.00
H301   H     0.62969   0.58226   0.31607   0.00000  Uiso   1.00
H302   H     0.63007   0.53478   0.34822   0.00000  Uiso   1.00
H303   H     0.62970   0.46528   0.15181   0.00000  Uiso   1.00
H304   H     0.62967   0.41773   0.18386   0.00000  Uiso   1.00
H305   H     0.37030   0.53472   0.34819   0.00000  Uiso   1.00
H306   H     0.49988   0.57323   0.11028   0.00000  Uiso   1.00
H307   H     0.37033   0.58227   0.31614   0.00000  Uiso   1.00
H308   H     0.54502   0.37544   0.30171   0.00000  Uiso   1.00
H309   H     0.45498   0.62456   0.19829   0.00000  Uiso   1.00
H310   H     0.45497   0.37562   0.19830   0.00000  Uiso   1.00
H311   H     0.54503   0.62438   0.30170   0.00000  Uiso   1.00
H312   H     0.50019   0.57320   0.38960   0.00000  Uiso   1.00
H313   H     0.49981   0.42680   0.11040   0.00000  Uiso   1.00
H314   H     0.50002   0.38514   0.45935   0.00000  Uiso   1.00
N315   N     0.50000   0.61907   0.25000   0.00000  Uiso   1.00
N316   N     0.50000   0.38093   0.25000   0.00000  Uiso   1.00
N317   N     0.37820   0.45209   0.18292   0.00000  Uiso   1.00
N318   N     0.62180   0.54791   0.31708   0.00000  Uiso   1.00
N319   N     0.62163   0.45206   0.18294   0.00000  Uiso   1.00
N320   N     0.37837   0.54793   0.31706   0.00000  Uiso   1.00
O321   O     0.43892   0.53821   0.24999   0.00000  Uiso   1.00
O322   O     0.56108   0.46179   0.25000   0.00000  Uiso   1.00
O323   O     0.56108   0.53821   0.25000   0.00000  Uiso   1.00
O324   O     0.43892   0.46179   0.24999   0.00000  Uiso   1.00
O325   O     0.49999   0.53823   0.18392   0.00000  Uiso   1.00
O326   O     0.50001   0.46177   0.31607   0.00000  Uiso   1.00
O327   O     0.50001   0.53823   0.31607   0.00000  Uiso   1.00
O328   O     0.49999   0.46177   0.18392   0.00000  Uiso   1.00
Zn329  Zn    0.50000   0.55104   0.25000   0.00000  Uiso   1.00
Zn330  Zn    0.50000   0.44896   0.25000   0.00000  Uiso   1.00
C331   C     0.75344   0.50002   0.24998   0.00000  Uiso   1.00
C332   C     0.70931   0.50004   0.24997   0.00000  Uiso   1.00
C333   C     0.85836   0.35728   0.27874   0.00000  Uiso   1.00
C334   C     0.80831   0.64272   0.22126   0.00000  Uiso   1.00
C335   C     0.80831   0.35737   0.22126   0.00000  Uiso   1.00
C336   C     0.85836   0.64263   0.27874   0.00000  Uiso   1.00
C337   C     0.83328   0.50001   0.16326   0.00000  Uiso   1.00
C338   C     0.83339   0.49999   0.33674   0.00000  Uiso   1.00
C339   C     0.83348   0.54128   0.40755   0.00000  Uiso   1.00
C340   C     0.83319   0.45872   0.09245   0.00000  Uiso   1.00
C341   C     0.83345   0.49998   0.38469   0.00000  Uiso   1.00
C342   C     0.91323   0.49998   0.25002   0.00000  Uiso   1.00
C343   C     0.83322   0.50002   0.11531   0.00000  Uiso   1.00
C344   C     0.83345   0.45869   0.40762   0.00000  Uiso   1.00
C345   C     0.83322   0.54131   0.09237   0.00000  Uiso   1.00
C346   C     0.83340   0.45838   0.45370   0.00000  Uiso   1.00
C347   C     0.83327   0.54162   0.04630   0.00000  Uiso   1.00
C348   C     0.83337   0.50000   0.47683   0.00000  Uiso   1.00
C349   C     0.83329   0.50000   0.02317   0.00000  Uiso   1.00
C350   C     0.83343   0.54160   0.45362   0.00000  Uiso   1.00
C351   C     0.83324   0.45840   0.04638   0.00000  Uiso   1.00
C352   C     0.83334   0.41722   0.47694   0.00000  Uiso   1.00
C353   C     0.83326   0.41723   0.02322   0.00000  Uiso   1.00
C354   C     0.83333   0.58278   0.02306   0.00000  Uiso   1.00
C355   C     0.83341   0.58277   0.47678   0.00000  Uiso   1.00
C356   C     0.68834   0.47560   0.21677   0.00000  Uiso   1.00
C357   C     0.97833   0.52440   0.28322   0.00000  Uiso   1.00
C358   C     0.97824   0.47556   0.21680   0.00000  Uiso   1.00
C359   C     0.68843   0.52444   0.28320   0.00000  Uiso   1.00
C360   C     0.95736   0.49996   0.25002   0.00000  Uiso   1.00
H361   H     0.83346   0.42677   0.38972   0.00000  Uiso   1.00
H362   H     0.83331   0.61486   0.04065   0.00000  Uiso   1.00
H363   H     0.83322   0.38515   0.04086   0.00000  Uiso   1.00
H364   H     0.83345   0.61484   0.45914   0.00000  Uiso   1.00
H365   H     0.70365   0.41774   0.18393   0.00000  Uiso   1.00
H366   H     0.70326   0.46522   0.15178   0.00000  Uiso   1.00
H367   H     0.96302   0.58226   0.31607   0.00000  Uiso   1.00
H368   H     0.96341   0.53478   0.34822   0.00000  Uiso   1.00
H369   H     0.96303   0.46528   0.15181   0.00000  Uiso   1.00
H370   H     0.96300   0.41773   0.18386   0.00000  Uiso   1.00
H371   H     0.70364   0.53472   0.34819   0.00000  Uiso   1.00
H372   H     0.83321   0.57323   0.11028   0.00000  Uiso   1.00
H373   H     0.70367   0.58227   0.31614   0.00000  Uiso   1.00
H374   H     0.87836   0.37544   0.30171   0.00000  Uiso   1.00
H375   H     0.78831   0.62456   0.19829   0.00000  Uiso   1.00
H376   H     0.78830   0.37562   0.19830   0.00000  Uiso   1.00
H377   H     0.87837   0.62438   0.30170   0.00000  Uiso   1.00
H378   H     0.83352   0.57320   0.38960   0.00000  Uiso   1.00
H379   H     0.83315   0.42680   0.11040   0.00000  Uiso   1.00
H380   H     0.83336   0.38514   0.45935   0.00000  Uiso   1.00
N381   N     0.83333   0.61907   0.25000   0.00000  Uiso   1.00
N382   N     0.83333   0.38093   0.25000   0.00000  Uiso   1.00
N383   N     0.71153   0.45209   0.18292   0.00000  Uiso   1.00
N384   N     0.95513   0.54791   0.31708   0.00000  Uiso   1.00
N385   N     0.95496   0.45206   0.18294   0.00000  Uiso   1.00
N386   N     0.71170   0.54793   0.31706   0.00000  Uiso   1.00
O387   O     0.77226   0.53821   0.24999   0.00000  Uiso   1.00
O388   O     0.89441   0.46179   0.25000   0.00000  Uiso   1.00
O389   O     0.89441   0.53821   0.25000   0.00000  Uiso   1.00
O390   O     0.77226   0.46179   0.24999   0.00000  Uiso   1.00
O391   O     0.83333   0.53823   0.18392   0.00000  Uiso   1.00
O392   O     0.83334   0.46177   0.31607   0.00000  Uiso   1.00
O393   O     0.83334   0.53823   0.31607   0.00000  Uiso   1.00
O394   O     0.83333   0.46177   0.18392   0.00000  Uiso   1.00
Zn395  Zn    0.83333   0.55104   0.25000   0.00000  Uiso   1.00
Zn396  Zn    0.83333   0.44896   0.25000   0.00000  Uiso   1.00
C397   C     0.08677   0.83335   0.24998   0.00000  Uiso   1.00
C398   C     0.04264   0.83337   0.24997   0.00000  Uiso   1.00
C399   C     0.19169   0.69061   0.27874   0.00000  Uiso   1.00
C400   C     0.14164   0.97606   0.22126   0.00000  Uiso   1.00
C401   C     0.14164   0.69071   0.22126   0.00000  Uiso   1.00
C402   C     0.19169   0.97596   0.27874   0.00000  Uiso   1.00
C403   C     0.16661   0.83334   0.16326   0.00000  Uiso   1.00
C404   C     0.16672   0.83332   0.33674   0.00000  Uiso   1.00
C405   C     0.16681   0.87461   0.40755   0.00000  Uiso   1.00
C406   C     0.16652   0.79205   0.09245   0.00000  Uiso   1.00
C407   C     0.16678   0.83332   0.38469   0.00000  Uiso   1.00
C408   C     0.24656   0.83332   0.25002   0.00000  Uiso   1.00
C409   C     0.16655   0.83335   0.11531   0.00000  Uiso   1.00
C410   C     0.16678   0.79202   0.40762   0.00000  Uiso   1.00
C411   C     0.16655   0.87464   0.09237   0.00000  Uiso   1.00
C412   C     0.16673   0.79172   0.45370   0.00000  Uiso   1.00
C413   C     0.16660   0.87495   0.04630   0.00000  Uiso   1.00
C414   C     0.16671   0.83333   0.47683   0.00000  Uiso   1.00
C415   C     0.16663   0.83334   0.02317   0.00000  Uiso   1.00
C416   C     0.16676   0.87494   0.45362   0.00000  Uiso   1.00
C417   C     0.16657   0.79173   0.04638   0.00000  Uiso   1.00
C418   C     0.16667   0.75055   0.47694   0.00000  Uiso   1.00
C419   C     0.16659   0.75056   0.02322   0.00000  Uiso   1.00
C420   C     0.16666   0.91611   0.02306   0.00000  Uiso   1.00
C421   C     0.16674   0.91611   0.47678   0.00000  Uiso   1.00
C422   C     0.02167   0.80893   0.21677   0.00000  Uiso   1.00
C423   C     0.31166   0.85773   0.28322   0.00000  Uiso   1.00
C424   C     0.31157   0.80890   0.21680   0.00000  Uiso   1.00
C425   C     0.02176   0.85777   0.28320   0.00000  Uiso   1.00
C426   C     0.29069   0.83329   0.25002   0.00000  Uiso   1.00
H427   H     0.16679   0.76010   0.38972   0.00000  Uiso   1.00
H428   H     0.16664   0.94819   0.04065   0.00000  Uiso   1.00
H429   H     0.16655   0.71849   0.04086   0.00000  Uiso   1.00
H430   H     0.16678   0.94818   0.45914   0.00000  Uiso   1.00
H431   H     0.03698   0.75107   0.18393   0.00000  Uiso   1.00
H432   H     0.03659   0.79855   0.15178   0.00000  Uiso   1.00
H433   H     0.29635   0.91560   0.31607   0.00000  Uiso   1.00
H434   H     0.29674   0.86812   0.34822   0.00000  Uiso   1.00
H435   H     0.29636   0.79861   0.15181   0.00000  Uiso   1.00
H436   H     0.29633   0.75107   0.18386   0.00000  Uiso   1.00
H437   H     0.03697   0.86806   0.34819   0.00000  Uiso   1.00
H438   H     0.16654   0.90657   0.11028   0.00000  Uiso   1.00
H439   H     0.03700   0.91560   0.31614   0.00000  Uiso   1.00
H440   H     0.21169   0.70877   0.30171   0.00000  Uiso   1.00
H441   H     0.12164   0.95789   0.19829   0.00000  Uiso   1.00
H442   H     0.12163   0.70895   0.19830   0.00000  Uiso   1.00
H443   H     0.21170   0.95772   0.30170   0.00000  Uiso   1.00
H444   H     0.16685   0.90654   0.38960   0.00000  Uiso   1.00
H445   H     0.16648   0.76013   0.11040   0.00000  Uiso   1.00
H446   H     0.16669   0.71847   0.45935   0.00000  Uiso   1.00
N447   N     0.16667   0.95240   0.25000   0.00000  Uiso   1.00
N448   N     0.16667   0.71427   0.25000   0.00000  Uiso   1.00
N449   N     0.04487   0.78543   0.18292   0.00000  Uiso   1.00
N450   N     0.28847   0.88124   0.31708   0.00000  Uiso   1.00
N451   N     0.28830   0.78540   0.18294   0.00000  Uiso   1.00
N452   N     0.04504   0.88127   0.31706   0.00000  Uiso   1.00
O453   O     0.10559   0.87154   0.24999   0.00000  Uiso   1.00
O454   O     0.22774   0.79513   0.25000   0.00000  Uiso   1.00
O455   O     0.22774   0.87154   0.25000   0.00000  Uiso   1.00
O456   O     0.10559   0.79513   0.24999   0.00000  Uiso   1.00
O457   O     0.16666   0.87156   0.18392   0.00000  Uiso   1.00
O458   O     0.16667   0.79511   0.31607   0.00000  Uiso   1.00
O459   O     0.16667   0.87156   0.31607   0.00000  Uiso   1.00
O460   O     0.16666   0.79511   0.18392   0.00000  Uiso   1.00
Zn461  Zn    0.16667   0.88437   0.25000   0.00000  Uiso   1.00
Zn462  Zn    0.16667   0.78229   0.25000   0.00000  Uiso   1.00
C463   C     0.42011   0.83335   0.24998   0.00000  Uiso   1.00
C464   C     0.37598   0.83337   0.24997   0.00000  Uiso   1.00
C465   C     0.52503   0.69061   0.27874   0.00000  Uiso   1.00
C466   C     0.47498   0.97606   0.22126   0.00000  Uiso   1.00
C467   C     0.47497   0.69071   0.22126   0.00000  Uiso   1.00
C468   C     0.52503   0.97596   0.27874   0.00000  Uiso   1.00
C469   C     0.49995   0.83334   0.16326   0.00000  Uiso   1.00
C470   C     0.50005   0.83332   0.33674   0.00000  Uiso   1.00
C471   C     0.50015   0.87461   0.40755   0.00000  Uiso   1.00
C472   C     0.49985   0.79205   0.09245   0.00000  Uiso   1.00
C473   C     0.50012   0.83332   0.38469   0.00000  Uiso   1.00
C474   C     0.57989   0.83332   0.25002   0.00000  Uiso   1.00
C475   C     0.49988   0.83335   0.11531   0.00000  Uiso   1.00
C476   C     0.50011   0.79202   0.40762   0.00000  Uiso   1.00
C477   C     0.49989   0.87464   0.09237   0.00000  Uiso   1.00
C478   C     0.50006   0.79172   0.45370   0.00000  Uiso   1.00
C479   C     0.49994   0.87495   0.04630   0.00000  Uiso   1.00
C480   C     0.50004   0.83333   0.47683   0.00000  Uiso   1.00
C481   C     0.49996   0.83334   0.02317   0.00000  Uiso   1.00
C482   C     0.50010   0.87494   0.45362   0.00000  Uiso   1.00
C483   C     0.49990   0.79173   0.04638   0.00000  Uiso   1.00
C484   C     0.50001   0.75055   0.47694   0.00000  Uiso   1.00
C485   C     0.49992   0.75056   0.02322   0.00000  Uiso   1.00
C486   C     0.49999   0.91611   0.02306   0.00000  Uiso   1.00
C487   C     0.50008   0.91611   0.47678   0.00000  Uiso   1.00
C488   C     0.35501   0.80893   0.21677   0.00000  Uiso   1.00
C489   C     0.64499   0.85773   0.28322   0.00000  Uiso   1.00
C490   C     0.64491   0.80890   0.21680   0.00000  Uiso   1.00
C491   C     0.35509   0.85777   0.28320   0.00000  Uiso   1.00
C492   C     0.62402   0.83329   0.25002   0.00000  Uiso   1.00
H493   H     0.50012   0.76010   0.38972   0.00000  Uiso   1.00
H494   H     0.49998   0.94819   0.04065   0.00000  Uiso   1.00
H495   H     0.49988   0.71849   0.04086   0.00000  Uiso   1.00
H496   H     0.50012   0.94818   0.45914   0.00000  Uiso   1.00
H497   H     0.37031   0.75107   0.18393   0.00000  Uiso   1.00
H498   H     0.36993   0.79855   0.15178   0.00000  Uiso   1.00
H499   H     0.62969   0.91560   0.31607   0.00000  Uiso   1.00
H500   H     0.63007   0.86812   0.34822   0.00000  Uiso   1.00
H501   H     0.62970   0.79861   0.15181   0.00000  Uiso   1.00
H502   H     0.62967   0.75107   0.18386   0.00000  Uiso   1.00
H503   H     0.37030   0.86806   0.34819   0.00000  Uiso   1.00
H504   H     0.49988   0.90657   0.11028   0.00000  Uiso   1.00
H505   H     0.37033   0.91560   0.31614   0.00000  Uiso   1.00
H506   H     0.54502   0.70877   0.30171   0.00000  Uiso   1.00
H507   H     0.45498   0.95789   0.19829   0.00000  Uiso   1.00
H508   H     0.45497   0.70895   0.19830   0.00000  Uiso   1.00
H509   H     0.54503   0.95772   0.30170   0.00000  Uiso   1.00
H510   H     0.50019   0.90654   0.38960   0.00000  Uiso   1.00
H511   H     0.49981   0.76013   0.11040   0.00000  Uiso   1.00
H512   H     0.50002   0.71847   0.45935   0.00000  Uiso   1.00
N513   N     0.50000   0.95240   0.25000   0.00000  Uiso   1.00
N514   N     0.50000   0.71427   0.25000   0.00000  Uiso   1.00
N515   N     0.37820   0.78543   0.18292   0.00000  Uiso   1.00
N516   N     0.62180   0.88124   0.31708   0.00000  Uiso   1.00
N517   N     0.62163   0.78540   0.18294   0.00000  Uiso   1.00
N518   N     0.37837   0.88127   0.31706   0.00000  Uiso   1.00
O519   O     0.43892   0.87154   0.24999   0.00000  Uiso   1.00
O520   O     0.56108   0.79513   0.25000   0.00000  Uiso   1.00
O521   O     0.56108   0.87154   0.25000   0.00000  Uiso   1.00
O522   O     0.43892   0.79513   0.24999   0.00000  Uiso   1.00
O523   O     0.49999   0.87156   0.18392   0.00000  Uiso   1.00
O524   O     0.50001   0.79511   0.31607   0.00000  Uiso   1.00
O525   O     0.50001   0.87156   0.31607   0.00000  Uiso   1.00
O526   O     0.49999   0.79511   0.18392   0.00000  Uiso   1.00
Zn527  Zn    0.50000   0.88437   0.25000   0.00000  Uiso   1.00
Zn528  Zn    0.50000   0.78229   0.25000   0.00000  Uiso   1.00
C529   C     0.75344   0.83335   0.24998   0.00000  Uiso   1.00
C530   C     0.70931   0.83337   0.24997   0.00000  Uiso   1.00
C531   C     0.85836   0.69061   0.27874   0.00000  Uiso   1.00
C532   C     0.80831   0.97606   0.22126   0.00000  Uiso   1.00
C533   C     0.80831   0.69071   0.22126   0.00000  Uiso   1.00
C534   C     0.85836   0.97596   0.27874   0.00000  Uiso   1.00
C535   C     0.83328   0.83334   0.16326   0.00000  Uiso   1.00
C536   C     0.83339   0.83332   0.33674   0.00000  Uiso   1.00
C537   C     0.83348   0.87461   0.40755   0.00000  Uiso   1.00
C538   C     0.83319   0.79205   0.09245   0.00000  Uiso   1.00
C539   C     0.83345   0.83332   0.38469   0.00000  Uiso   1.00
C540   C     0.91323   0.83332   0.25002   0.00000  Uiso   1.00
C541   C     0.83322   0.83335   0.11531   0.00000  Uiso   1.00
C542   C     0.83345   0.79202   0.40762   0.00000  Uiso   1.00
C543   C     0.83322   0.87464   0.09237   0.00000  Uiso   1.00
C544   C     0.83340   0.79172   0.45370   0.00000  Uiso   1.00
C545   C     0.83327   0.87495   0.04630   0.00000  Uiso   1.00
C546   C     0.83337   0.83333   0.47683   0.00000  Uiso   1.00
C547   C     0.83329   0.83334   0.02317   0.00000  Uiso   1.00
C548   C     0.83343   0.87494   0.45362   0.00000  Uiso   1.00
C549   C     0.83324   0.79173   0.04638   0.00000  Uiso   1.00
C550   C     0.83334   0.75055   0.47694   0.00000  Uiso   1.00
C551   C     0.83326   0.75056   0.02322   0.00000  Uiso   1.00
C552   C     0.83333   0.91611   0.02306   0.00000  Uiso   1.00
C553   C     0.83341   0.91611   0.47678   0.00000  Uiso   1.00
C554   C     0.68834   0.80893   0.21677   0.00000  Uiso   1.00
C555   C     0.97833   0.85773   0.28322   0.00000  Uiso   1.00
C556   C     0.97824   0.80890   0.21680   0.00000  Uiso   1.00
C557   C     0.68843   0.85777   0.28320   0.00000  Uiso   1.00
C558   C     0.95736   0.83329   0.25002   0.00000  Uiso   1.00
H559   H     0.83346   0.76010   0.38972   0.00000  Uiso   1.00
H560   H     0.83331   0.94819   0.04065   0.00000  Uiso   1.00
H561   H     0.83322   0.71849   0.04086   0.00000  Uiso   1.00
H562   H     0.83345   0.94818   0.45914   0.00000  Uiso   1.00
H563   H     0.70365   0.75107   0.18393   0.00000  Uiso   1.00
H564   H     0.70326   0.79855   0.15178   0.00000  Uiso   1.00
H565   H     0.96302   0.91560   0.31607   0.00000  Uiso   1.00
H566   H     0.96341   0.86812   0.34822   0.00000  Uiso   1.00
H567   H     0.96303   0.79861   0.15181   0.00000  Uiso   1.00
H568   H     0.96300   0.75107   0.18386   0.00000  Uiso   1.00
H569   H     0.70364   0.86806   0.34819   0.00000  Uiso   1.00
H570   H     0.83321   0.90657   0.11028   0.00000  Uiso   1.00
H571   H     0.70367   0.91560   0.31614   0.00000  Uiso   1.00
H572   H     0.87836   0.70877   0.30171   0.00000  Uiso   1.00
H573   H     0.78831   0.95789   0.19829   0.00000  Uiso   1.00
H574   H     0.78830   0.70895   0.19830   0.00000  Uiso   1.00
H575   H     0.87837   0.95772   0.30170   0.00000  Uiso   1.00
H576   H     0.83352   0.90654   0.38960   0.00000  Uiso   1.00
H577   H     0.83315   0.76013   0.11040   0.00000  Uiso   1.00
H578   H     0.83336   0.71847   0.45935   0.00000  Uiso   1.00
N579   N     0.83333   0.95240   0.25000   0.00000  Uiso   1.00
N580   N     0.83333   0.71427   0.25000   0.00000  Uiso   1.00
N581   N     0.71153   0.78543   0.18292   0.00000  Uiso   1.00
N582   N     0.95513   0.88124   0.31708   0.00000  Uiso   1.00
N583   N     0.95496   0.78540   0.18294   0.00000  Uiso   1.00
N584   N     0.71170   0.88127   0.31706   0.00000  Uiso   1.00
O585   O     0.77226   0.87154   0.24999   0.00000  Uiso   1.00
O586   O     0.89441   0.79513   0.25000   0.00000  Uiso   1.00
O587   O     0.89441   0.87154   0.25000   0.00000  Uiso   1.00
O588   O     0.77226   0.79513   0.24999   0.00000  Uiso   1.00
O589   O     0.83333   0.87156   0.18392   0.00000  Uiso   1.00
O590   O     0.83334   0.79511   0.31607   0.00000  Uiso   1.00
O591   O     0.83334   0.87156   0.31607   0.00000  Uiso   1.00
O592   O     0.83333   0.79511   0.18392   0.00000  Uiso   1.00
Zn593  Zn    0.83333   0.88437   0.25000   0.00000  Uiso   1.00
Zn594  Zn    0.83333   0.78229   0.25000   0.00000  Uiso   1.00
C595   C     0.08677   0.16668   0.74998   0.00000  Uiso   1.00
C596   C     0.04264   0.16670   0.74997   0.00000  Uiso   1.00
C597   C     0.19169   0.02394   0.77874   0.00000  Uiso   1.00
C598   C     0.14164   0.30939   0.72126   0.00000  Uiso   1.00
C599   C     0.14164   0.02404   0.72126   0.00000  Uiso   1.00
C600   C     0.19169   0.30929   0.77874   0.00000  Uiso   1.00
C601   C     0.16661   0.16668   0.66326   0.00000  Uiso   1.00
C602   C     0.16672   0.16666   0.83674   0.00000  Uiso   1.00
C603   C     0.16681   0.20795   0.90755   0.00000  Uiso   1.00
C604   C     0.16652   0.12538   0.59245   0.00000  Uiso   1.00
C605   C     0.16678   0.16665   0.88469   0.00000  Uiso   1.00
C606   C     0.24656   0.16665   0.75002   0.00000  Uiso   1.00
C607   C     0.16655   0.16668   0.61531   0.00000  Uiso   1.00
C608   C     0.16678   0.12536   0.90762   0.00000  Uiso   1.00
C609   C     0.16655   0.20798   0.59237   0.00000  Uiso   1.00
C610   C     0.16673   0.12505   0.95370   0.00000  Uiso   1.00
C611   C     0.16660   0.20828   0.54630   0.00000  Uiso   1.00
C612   C     0.16671   0.16666   0.97683   0.00000  Uiso   1.00
C613   C     0.16663   0.16667   0.52317   0.00000  Uiso   1.00
C614   C     0.16676   0.20827   0.95362   0.00000  Uiso   1.00
C615   C     0.16657   0.12506   0.54638   0.00000  Uiso   1.00
C616   C     0.16667   0.08388   0.97694   0.00000  Uiso   1.00
C617   C     0.16659   0.08389   0.52322   0.00000  Uiso   1.00
C618   C     0.16666   0.24945   0.52306   0.00000  Uiso   1.00
C619   C     0.16674   0.24944   0.97678   0.00000  Uiso   1.00
C620   C     0.02167   0.14226   0.71677   0.00000  Uiso   1.00
C621   C     0.31166   0.19107   0.78322   0.00000  Uiso   1.00
C622   C     0.31157   0.14223   0.71680   0.00000  Uiso   1.00
C623   C     0.02176   0.19110   0.78320   0.00000  Uiso   1.00
C624   C     0.29069   0.16663   0.75002   0.00000  Uiso   1.00
H625   H     0.16679   0.09343   0.88972   0.00000  Uiso   1.00
H626   H     0.16664   0.28152   0.54065   0.00000  Uiso   1.00
H627   H     0.16655   0.05182   0.54086   0.00000  Uiso   1.00
H628   H     0.16678   0.28151   0.95914   0.00000  Uiso   1.00
H629   H     0.03698   0.08440   0.68393   0.00000  Uiso   1.00
H630   H     0.03659   0.13188   0.65178   0.00000  Uiso   1.00
H631   H     0.29635   0.24893   0.81607   0.00000  Uiso   1.00
H632   H     0.29674   0.20145   0.84822   0.00000  Uiso   1.00
H633   H     0.29636   0.13194   0.65181   0.00000  Uiso   1.00
H634   H     0.29633   0.08440   0.68386   0.00000  Uiso   1.00
H635   H     0.03697   0.20139   0.84819   0.00000  Uiso   1.00
H636   H     0.16654   0.23990   0.61028   0.00000  Uiso   1.00
H637   H     0.03700   0.24893   0.81614   0.00000  Uiso   1.00
H638   H     0.21169   0.04211   0.80171   0.00000  Uiso   1.00
H639   H     0.12164   0.29123   0.69829   0.00000  Uiso   1.00
H640   H     0.12163   0.04228   0.69830   0.00000  Uiso   1.00
H641   H     0.21170   0.29105   0.80170   0.00000  Uiso   1.00
H642   H     0.16685   0.23987   0.88960   0.00000  Uiso   1.00
H643   H     0.16648   0.09346   0.61040   0.00000  Uiso   1.00
H644   H     0.16669   0.05181   0.95935   0.00000  Uiso   1.00
N645   N     0.16667   0.28573   0.75000   0.00000  Uiso   1.00
N646   N     0.16667   0.04760   0.75000   0.00000  Uiso   1.00
N647   N     0.04487   0.11876   0.68292   0.00000  Uiso   1.00
N648   N     0.28847   0.21457   0.81708   0.00000  Uiso   1.00
N649   N     0.28830   0.11873   0.68294   0.00000  Uiso   1.00
N650   N     0.04504   0.21460   0.81706   0.00000  Uiso   1.00
O651   O     0.10559   0.20487   0.74999   0.00000  Uiso   1.00
O652   O     0.22774   0.12846   0.75000   0.00000  Uiso   1.00
O653   O     0.22774   0.20487   0.75000   0.00000  Uiso   1.00
O654   O     0.10559   0.12846   0.74999   0.00000  Uiso   1.00
O655   O     0.16666   0.20489   0.68392   0.00000  Uiso   1.00
O656   O     0.16667   0.12844   0.81607   0.00000  Uiso   1.00
O657   O     0.16667   0.20489   0.81607   0.00000  Uiso   1.00
O658   O     0.16666   0.12844   0.68392   0.00000  Uiso   1.00
Zn659  Zn    0.16667   0.21771   0.75000   0.00000  Uiso   1.00
Zn660  Zn    0.16667   0.11563   0.75000   0.00000  Uiso   1.00
C661   C     0.42011   0.16668   0.74998   0.00000  Uiso   1.00
C662   C     0.37598   0.16670   0.74997   0.00000  Uiso   1.00
C663   C     0.52503   0.02394   0.77874   0.00000  Uiso   1.00
C664   C     0.47498   0.30939   0.72126   0.00000  Uiso   1.00
C665   C     0.47497   0.02404   0.72126   0.00000  Uiso   1.00
C666   C     0.52503   0.30929   0.77874   0.00000  Uiso   1.00
C667   C     0.49995   0.16668   0.66326   0.00000  Uiso   1.00
C668   C     0.50005   0.16666   0.83674   0.00000  Uiso   1.00
C669   C     0.50015   0.20795   0.90755   0.00000  Uiso   1.00
C670   C     0.49985   0.12538   0.59245   0.00000  Uiso   1.00
C671   C     0.50012   0.16665   0.88469   0.00000  Uiso   1.00
C672   C     0.57989   0.16665   0.75002   0.00000  Uiso   1.00
C673   C     0.49988   0.16668   0.61531   0.00000  Uiso   1.00
C674   C     0.50011   0.12536   0.90762   0.00000  Uiso   1.00
C675   C     0.49989   0.20798   0.59237   0.00000  Uiso   1.00
C676   C     0.50006   0.12505   0.95370   0.00000  Uiso   1.00
C677   C     0.49994   0.20828   0.54630   0.00000  Uiso   1.00
C678   C     0.50004   0.16666   0.97683   0.00000  Uiso   1.00
C679   C     0.49996   0.16667   0.52317   0.00000  Uiso   1.00
C680   C     0.50010   0.20827   0.95362   0.00000  Uiso   1.00
C681   C     0.49990   0.12506   0.54638   0.00000  Uiso   1.00
C682   C     0.50001   0.08388   0.97694   0.00000  Uiso   1.00
C683   C     0.49992   0.08389   0.52322   0.00000  Uiso   1.00
C684   C     0.49999   0.24945   0.52306   0.00000  Uiso   1.00
C685   C     0.50008   0.24944   0.97678   0.00000  Uiso   1.00
C686   C     0.35501   0.14226   0.71677   0.00000  Uiso   1.00
C687   C     0.64499   0.19107   0.78322   0.00000  Uiso   1.00
C688   C     0.64491   0.14223   0.71680   0.00000  Uiso   1.00
C689   C     0.35509   0.19110   0.78320   0.00000  Uiso   1.00
C690   C     0.62402   0.16663   0.75002   0.00000  Uiso   1.00
H691   H     0.50012   0.09343   0.88972   0.00000  Uiso   1.00
H692   H     0.49998   0.28152   0.54065   0.00000  Uiso   1.00
H693   H     0.49988   0.05182   0.54086   0.00000  Uiso   1.00
H694   H     0.50012   0.28151   0.95914   0.00000  Uiso   1.00
H695   H     0.37031   0.08440   0.68393   0.00000  Uiso   1.00
H696   H     0.36993   0.13188   0.65178   0.00000  Uiso   1.00
H697   H     0.62969   0.24893   0.81607   0.00000  Uiso   1.00
H698   H     0.63007   0.20145   0.84822   0.00000  Uiso   1.00
H699   H     0.62970   0.13194   0.65181   0.00000  Uiso   1.00
H700   H     0.62967   0.08440   0.68386   0.00000  Uiso   1.00
H701   H     0.37030   0.20139   0.84819   0.00000  Uiso   1.00
H702   H     0.49988   0.23990   0.61028   0.00000  Uiso   1.00
H703   H     0.37033   0.24893   0.81614   0.00000  Uiso   1.00
H704   H     0.54502   0.04211   0.80171   0.00000  Uiso   1.00
H705   H     0.45498   0.29123   0.69829   0.00000  Uiso   1.00
H706   H     0.45497   0.04228   0.69830   0.00000  Uiso   1.00
H707   H     0.54503   0.29105   0.80170   0.00000  Uiso   1.00
H708   H     0.50019   0.23987   0.88960   0.00000  Uiso   1.00
H709   H     0.49981   0.09346   0.61040   0.00000  Uiso   1.00
H710   H     0.50002   0.05181   0.95935   0.00000  Uiso   1.00
N711   N     0.50000   0.28573   0.75000   0.00000  Uiso   1.00
N712   N     0.50000   0.04760   0.75000   0.00000  Uiso   1.00
N713   N     0.37820   0.11876   0.68292   0.00000  Uiso   1.00
N714   N     0.62180   0.21457   0.81708   0.00000  Uiso   1.00
N715   N     0.62163   0.11873   0.68294   0.00000  Uiso   1.00
N716   N     0.37837   0.21460   0.81706   0.00000  Uiso   1.00
O717   O     0.43892   0.20487   0.74999   0.00000  Uiso   1.00
O718   O     0.56108   0.12846   0.75000   0.00000  Uiso   1.00
O719   O     0.56108   0.20487   0.75000   0.00000  Uiso   1.00
O720   O     0.43892   0.12846   0.74999   0.00000  Uiso   1.00
O721   O     0.49999   0.20489   0.68392   0.00000  Uiso   1.00
O722   O     0.50001   0.12844   0.81607   0.00000  Uiso   1.00
O723   O     0.50001   0.20489   0.81607   0.00000  Uiso   1.00
O724   O     0.49999   0.12844   0.68392   0.00000  Uiso   1.00
Zn725  Zn    0.50000   0.21771   0.75000   0.00000  Uiso   1.00
Zn726  Zn    0.50000   0.11563   0.75000   0.00000  Uiso   1.00
C727   C     0.75344   0.16668   0.74998   0.00000  Uiso   1.00
C728   C     0.70931   0.16670   0.74997   0.00000  Uiso   1.00
C729   C     0.85836   0.02394   0.77874   0.00000  Uiso   1.00
C730   C     0.80831   0.30939   0.72126   0.00000  Uiso   1.00
C731   C     0.80831   0.02404   0.72126   0.00000  Uiso   1.00
C732   C     0.85836   0.30929   0.77874   0.00000  Uiso   1.00
C733   C     0.83328   0.16668   0.66326   0.00000  Uiso   1.00
C734   C     0.83339   0.16666   0.83674   0.00000  Uiso   1.00
C735   C     0.83348   0.20795   0.90755   0.00000  Uiso   1.00
C736   C     0.83319   0.12538   0.59245   0.00000  Uiso   1.00
C737   C     0.83345   0.16665   0.88469   0.00000  Uiso   1.00
C738   C     0.91323   0.16665   0.75002   0.00000  Uiso   1.00
C739   C     0.83322   0.16668   0.61531   0.00000  Uiso   1.00
C740   C     0.83345   0.12536   0.90762   0.00000  Uiso   1.00
C741   C     0.83322   0.20798   0.59237   0.00000  Uiso   1.00
C742   C     0.83340   0.12505   0.95370   0.00000  Uiso   1.00
C743   C     0.83327   0.20828   0.54630   0.00000  Uiso   1.00
C744   C     0.83337   0.16666   0.97683   0.00000  Uiso   1.00
C745   C     0.83329   0.16667   0.52317   0.00000  Uiso   1.00
C746   C     0.83343   0.20827   0.95362   0.00000  Uiso   1.00
C747   C     0.83324   0.12506   0.54638   0.00000  Uiso   1.00
C748   C     0.83334   0.08388   0.97694   0.00000  Uiso   1.00
C749   C     0.83326   0.08389   0.52322   0.00000  Uiso   1.00
C750   C     0.83333   0.24945   0.52306   0.00000  Uiso   1.00
C751   C     0.83341   0.24944   0.97678   0.00000  Uiso   1.00
C752   C     0.68834   0.14226   0.71677   0.00000  Uiso   1.00
C753   C     0.97833   0.19107   0.78322   0.00000  Uiso   1.00
C754   C     0.97824   0.14223   0.71680   0.00000  Uiso   1.00
C755   C     0.68843   0.19110   0.78320   0.00000  Uiso   1.00
C756   C     0.95736   0.16663   0.75002   0.00000  Uiso   1.00
H757   H     0.83346   0.09343   0.88972   0.00000  Uiso   1.00
H758   H     0.83331   0.28152   0.54065   0.00000  Uiso   1.00
H759   H     0.83322   0.05182   0.54086   0.00000  Uiso   1.00
H760   H     0.83345   0.28151   0.95914   0.00000  Uiso   1.00
H761   H     0.70365   0.08440   0.68393   0.00000  Uiso   1.00
H762   H     0.70326   0.13188   0.65178   0.00000  Uiso   1.00
H763   H     0.96302   0.24893   0.81607   0.00000  Uiso   1.00
H764   H     0.96341   0.20145   0.84822   0.00000  Uiso   1.00
H765   H     0.96303   0.13194   0.65181   0.00000  Uiso   1.00
H766   H     0.96300   0.08440   0.68386   0.00000  Uiso   1.00
H767   H     0.70364   0.20139   0.84819   0.00000  Uiso   1.00
H768   H     0.83321   0.23990   0.61028   0.00000  Uiso   1.00
H769   H     0.70367   0.24893   0.81614   0.00000  Uiso   1.00
H770   H     0.87836   0.04211   0.80171   0.00000  Uiso   1.00
H771   H     0.78831   0.29123   0.69829   0.00000  Uiso   1.00
H772   H     0.78830   0.04228   0.69830   0.00000  Uiso   1.00
H773   H     0.87837   0.29105   0.80170   0.00000  Uiso   1.00
H774   H     0.83352   0.23987   0.88960   0.00000  Uiso   1.00
H775   H     0.83315   0.09346   0.61040   0.00000  Uiso   1.00
H776   H     0.83336   0.05181   0.95935   0.00000  Uiso   1.00
N777   N     0.83333   0.28573   0.75000   0.00000  Uiso   1.00
N778   N     0.83333   0.04760   0.75000   0.00000  Uiso   1.00
N779   N     0.71153   0.11876   0.68292   0.00000  Uiso   1.00
N780   N     0.95513   0.21457   0.81708   0.00000  Uiso   1.00
N781   N     0.95496   0.11873   0.68294   0.00000  Uiso   1.00
N782   N     0.71170   0.21460   0.81706   0.00000  Uiso   1.00
O783   O     0.77226   0.20487   0.74999   0.00000  Uiso   1.00
O784   O     0.89441   0.12846   0.75000   0.00000  Uiso   1.00
O785   O     0.89441   0.20487   0.75000   0.00000  Uiso   1.00
O786   O     0.77226   0.12846   0.74999   0.00000  Uiso   1.00
O787   O     0.83333   0.20489   0.68392   0.00000  Uiso   1.00
O788   O     0.83334   0.12844   0.81607   0.00000  Uiso   1.00
O789   O     0.83334   0.20489   0.81607   0.00000  Uiso   1.00
O790   O     0.83333   0.12844   0.68392   0.00000  Uiso   1.00
Zn791  Zn    0.83333   0.21771   0.75000   0.00000  Uiso   1.00
Zn792  Zn    0.83333   0.11563   0.75000   0.00000  Uiso   1.00
C793   C     0.08677   0.50002   0.74998   0.00000  Uiso   1.00
C794   C     0.04264   0.50004   0.74997   0.00000  Uiso   1.00
C795   C     0.19169   0.35728   0.77874   0.00000  Uiso   1.00
C796   C     0.14164   0.64272   0.72126   0.00000  Uiso   1.00
C797   C     0.14164   0.35737   0.72126   0.00000  Uiso   1.00
C798   C     0.19169   0.64263   0.77874   0.00000  Uiso   1.00
C799   C     0.16661   0.50001   0.66326   0.00000  Uiso   1.00
C800   C     0.16672   0.49999   0.83674   0.00000  Uiso   1.00
C801   C     0.16681   0.54128   0.90755   0.00000  Uiso   1.00
C802   C     0.16652   0.45872   0.59245   0.00000  Uiso   1.00
C803   C     0.16678   0.49998   0.88469   0.00000  Uiso   1.00
C804   C     0.24656   0.49998   0.75002   0.00000  Uiso   1.00
C805   C     0.16655   0.50002   0.61531   0.00000  Uiso   1.00
C806   C     0.16678   0.45869   0.90762   0.00000  Uiso   1.00
C807   C     0.16655   0.54131   0.59237   0.00000  Uiso   1.00
C808   C     0.16673   0.45838   0.95370   0.00000  Uiso   1.00
C809   C     0.16660   0.54162   0.54630   0.00000  Uiso   1.00
C810   C     0.16671   0.50000   0.97683   0.00000  Uiso   1.00
C811   C     0.16663   0.50000   0.52317   0.00000  Uiso   1.00
C812   C     0.16676   0.54160   0.95362   0.00000  Uiso   1.00
C813   C     0.16657   0.45840   0.54638   0.00000  Uiso   1.00
C814   C     0.16667   0.41722   0.97694   0.00000  Uiso   1.00
C815   C     0.16659   0.41723   0.52322   0.00000  Uiso   1.00
C816   C     0.16666   0.58278   0.52306   0.00000  Uiso   1.00
C817   C     0.16674   0.58277   0.97678   0.00000  Uiso   1.00
C818   C     0.02167   0.47560   0.71677   0.00000  Uiso   1.00
C819   C     0.31166   0.52440   0.78322   0.00000  Uiso   1.00
C820   C     0.31157   0.47556   0.71680   0.00000  Uiso   1.00
C821   C     0.02176   0.52444   0.78320   0.00000  Uiso   1.00
C822   C     0.29069   0.49996   0.75002   0.00000  Uiso   1.00
H823   H     0.16679   0.42677   0.88972   0.00000  Uiso   1.00
H824   H     0.16664   0.61486   0.54065   0.00000  Uiso   1.00
H825   H     0.16655   0.38515   0.54086   0.00000  Uiso   1.00
H826   H     0.16678   0.61484   0.95914   0.00000  Uiso   1.00
H827   H     0.03698   0.41774   0.68393   0.00000  Uiso   1.00
H828   H     0.03659   0.46522   0.65178   0.00000  Uiso   1.00
H829   H     0.29635   0.58226   0.81607   0.00000  Uiso   1.00
H830   H     0.29674   0.53478   0.84822   0.00000  Uiso   1.00
H831   H     0.29636   0.46528   0.65181   0.00000  Uiso   1.00
H832   H     0.29633   0.41773   0.68386   0.00000  Uiso   1.00
H833   H     0.03697   0.53472   0.84819   0.00000  Uiso   1.00
H834   H     0.16654   0.57323   0.61028   0.00000  Uiso   1.00
H835   H     0.03700   0.58227   0.81614   0.00000  Uiso   1.00
H836   H     0.21169   0.37544   0.80171   0.00000  Uiso   1.00
H837   H     0.12164   0.62456   0.69829   0.00000  Uiso   1.00
H838   H     0.12163   0.37562   0.69830   0.00000  Uiso   1.00
H839   H     0.21170   0.62438   0.80170   0.00000  Uiso   1.00
H840   H     0.16685   0.57320   0.88960   0.00000  Uiso   1.00
H841   H     0.16648   0.42680   0.61040   0.00000  Uiso   1.00
H842   H     0.16669   0.38514   0.95935   0.00000  Uiso   1.00
N843   N     0.16667   0.61907   0.75000   0.00000  Uiso   1.00
N844   N     0.16667   0.38093   0.75000   0.00000  Uiso   1.00
N845   N     0.04487   0.45209   0.68292   0.00000  Uiso   1.00
N846   N     0.28847   0.54791   0.81708   0.00000  Uiso   1.00
N847   N     0.28830   0.45206   0.68294   0.00000  Uiso   1.00
N848   N     0.04504   0.54793   0.81706   0.00000  Uiso   1.00
O849   O     0.10559   0.53821   0.74999   0.00000  Uiso   1.00
O850   O     0.22774   0.46179   0.75000   0.00000  Uiso   1.00
O851   O     0.22774   0.53821   0.75000   0.00000  Uiso   1.00
O852   O     0.10559   0.46179   0.74999   0.00000  Uiso   1.00
O853   O     0.16666   0.53823   0.68392   0.00000  Uiso   1.00
O854   O     0.16667   0.46177   0.81607   0.00000  Uiso   1.00
O855   O     0.16667   0.53823   0.81607   0.00000  Uiso   1.00
O856   O     0.16666   0.46177   0.68392   0.00000  Uiso   1.00
Zn857  Zn    0.16667   0.55104   0.75000   0.00000  Uiso   1.00
Zn858  Zn    0.16667   0.44896   0.75000   0.00000  Uiso   1.00
C859   C     0.42011   0.50002   0.74998   0.00000  Uiso   1.00
C860   C     0.37598   0.50004   0.74997   0.00000  Uiso   1.00
C861   C     0.52503   0.35728   0.77874   0.00000  Uiso   1.00
C862   C     0.47498   0.64272   0.72126   0.00000  Uiso   1.00
C863   C     0.47497   0.35737   0.72126   0.00000  Uiso   1.00
C864   C     0.52503   0.64263   0.77874   0.00000  Uiso   1.00
C865   C     0.49995   0.50001   0.66326   0.00000  Uiso   1.00
C866   C     0.50005   0.49999   0.83674   0.00000  Uiso   1.00
C867   C     0.50015   0.54128   0.90755   0.00000  Uiso   1.00
C868   C     0.49985   0.45872   0.59245   0.00000  Uiso   1.00
C869   C     0.50012   0.49998   0.88469   0.00000  Uiso   1.00
C870   C     0.57989   0.49998   0.75002   0.00000  Uiso   1.00
C871   C     0.49988   0.50002   0.61531   0.00000  Uiso   1.00
C872   C     0.50011   0.45869   0.90762   0.00000  Uiso   1.00
C873   C     0.49989   0.54131   0.59237   0.00000  Uiso   1.00
C874   C     0.50006   0.45838   0.95370   0.00000  Uiso   1.00
C875   C     0.49994   0.54162   0.54630   0.00000  Uiso   1.00
C876   C     0.50004   0.50000   0.97683   0.00000  Uiso   1.00
C877   C     0.49996   0.50000   0.52317   0.00000  Uiso   1.00
C878   C     0.50010   0.54160   0.95362   0.00000  Uiso   1.00
C879   C     0.49990   0.45840   0.54638   0.00000  Uiso   1.00
C880   C     0.50001   0.41722   0.97694   0.00000  Uiso   1.00
C881   C     0.49992   0.41723   0.52322   0.00000  Uiso   1.00
C882   C     0.49999   0.58278   0.52306   0.00000  Uiso   1.00
C883   C     0.50008   0.58277   0.97678   0.00000  Uiso   1.00
C884   C     0.35501   0.47560   0.71677   0.00000  Uiso   1.00
C885   C     0.64499   0.52440   0.78322   0.00000  Uiso   1.00
C886   C     0.64491   0.47556   0.71680   0.00000  Uiso   1.00
C887   C     0.35509   0.52444   0.78320   0.00000  Uiso   1.00
C888   C     0.62402   0.49996   0.75002   0.00000  Uiso   1.00
H889   H     0.50012   0.42677   0.88972   0.00000  Uiso   1.00
H890   H     0.49998   0.61486   0.54065   0.00000  Uiso   1.00
H891   H     0.49988   0.38515   0.54086   0.00000  Uiso   1.00
H892   H     0.50012   0.61484   0.95914   0.00000  Uiso   1.00
H893   H     0.37031   0.41774   0.68393   0.00000  Uiso   1.00
H894   H     0.36993   0.46522   0.65178   0.00000  Uiso   1.00
H895   H     0.62969   0.58226   0.81607   0.00000  Uiso   1.00
H896   H     0.63007   0.53478   0.84822   0.00000  Uiso   1.00
H897   H     0.62970   0.46528   0.65181   0.00000  Uiso   1.00
H898   H     0.62967   0.41773   0.68386   0.00000  Uiso   1.00
H899   H     0.37030   0.53472   0.84819   0.00000  Uiso   1.00
H900   H     0.49988   0.57323   0.61028   0.00000  Uiso   1.00
H901   H     0.37033   0.58227   0.81614   0.00000  Uiso   1.00
H902   H     0.54502   0.37544   0.80171   0.00000  Uiso   1.00
H903   H     0.45498   0.62456   0.69829   0.00000  Uiso   1.00
H904   H     0.45497   0.37562   0.69830   0.00000  Uiso   1.00
H905   H     0.54503   0.62438   0.80170   0.00000  Uiso   1.00
H906   H     0.50019   0.57320   0.88960   0.00000  Uiso   1.00
H907   H     0.49981   0.42680   0.61040   0.00000  Uiso   1.00
H908   H     0.50002   0.38514   0.95935   0.00000  Uiso   1.00
N909   N     0.50000   0.61907   0.75000   0.00000  Uiso   1.00
N910   N     0.50000   0.38093   0.75000   0.00000  Uiso   1.00
N911   N     0.37820   0.45209   0.68292   0.00000  Uiso   1.00
N912   N     0.62180   0.54791   0.81708   0.00000  Uiso   1.00
N913   N     0.62163   0.45206   0.68294   0.00000  Uiso   1.00
N914   N     0.37837   0.54793   0.81706   0.00000  Uiso   1.00
O915   O     0.43892   0.53821   0.74999   0.00000  Uiso   1.00
O916   O     0.56108   0.46179   0.75000   0.00000  Uiso   1.00
O917   O     0.56108   0.53821   0.75000   0.00000  Uiso   1.00
O918   O     0.43892   0.46179   0.74999   0.00000  Uiso   1.00
O919   O     0.49999   0.53823   0.68392   0.00000  Uiso   1.00
O920   O     0.50001   0.46177   0.81607   0.00000  Uiso   1.00
O921   O     0.50001   0.53823   0.81607   0.00000  Uiso   1.00
O922   O     0.49999   0.46177   0.68392   0.00000  Uiso   1.00
Zn923  Zn    0.50000   0.55104   0.75000   0.00000  Uiso   1.00
Zn924  Zn    0.50000   0.44896   0.75000   0.00000  Uiso   1.00
C925   C     0.75344   0.50002   0.74998   0.00000  Uiso   1.00
C926   C     0.70931   0.50004   0.74997   0.00000  Uiso   1.00
C927   C     0.85836   0.35728   0.77874   0.00000  Uiso   1.00
C928   C     0.80831   0.64272   0.72126   0.00000  Uiso   1.00
C929   C     0.80831   0.35737   0.72126   0.00000  Uiso   1.00
C930   C     0.85836   0.64263   0.77874   0.00000  Uiso   1.00
C931   C     0.83328   0.50001   0.66326   0.00000  Uiso   1.00
C932   C     0.83339   0.49999   0.83674   0.00000  Uiso   1.00
C933   C     0.83348   0.54128   0.90755   0.00000  Uiso   1.00
C934   C     0.83319   0.45872   0.59245   0.00000  Uiso   1.00
C935   C     0.83345   0.49998   0.88469   0.00000  Uiso   1.00
C936   C     0.91323   0.49998   0.75002   0.00000  Uiso   1.00
C937   C     0.83322   0.50002   0.61531   0.00000  Uiso   1.00
C938   C     0.83345   0.45869   0.90762   0.00000  Uiso   1.00
C939   C     0.83322   0.54131   0.59237   0.00000  Uiso   1.00
C940   C     0.83340   0.45838   0.95370   0.00000  Uiso   1.00
C941   C     0.83327   0.54162   0.54630   0.00000  Uiso   1.00
C942   C     0.83337   0.50000   0.97683   0.00000  Uiso   1.00
C943   C     0.83329   0.50000   0.52317   0.00000  Uiso   1.00
C944   C     0.83343   0.54160   0.95362   0.00000  Uiso   1.00
C945   C     0.83324   0.45840   0.54638   0.00000  Uiso   1.00
C946   C     0.83334   0.41722   0.97694   0.00000  Uiso   1.00
C947   C     0.83326   0.41723   0.52322   0.00000  Uiso   1.00
C948   C     0.83333   0.58278   0.52306   0.00000  Uiso   1.00
C949   C     0.83341   0.58277   0.97678   0.00000  Uiso   1.00
C950   C     0.68834   0.47560   0.71677   0.00000  Uiso   1.00
C951   C     0.97833   0.52440   0.78322   0.00000  Uiso   1.00
C952   C     0.97824   0.47556   0.71680   0.00000  Uiso   1.00
C953   C     0.68843   0.52444   0.78320   0.00000  Uiso   1.00
C954   C     0.95736   0.49996   0.75002   0.00000  Uiso   1.00
H955   H     0.83346   0.42677   0.88972   0.00000  Uiso   1.00
H956   H     0.83331   0.61486   0.54065   0.00000  Uiso   1.00
H957   H     0.83322   0.38515   0.54086   0.00000  Uiso   1.00
H958   H     0.83345   0.61484   0.95914   0.00000  Uiso   1.00
H959   H     0.70365   0.41774   0.68393   0.00000  Uiso   1.00
H960   H     0.70326   0.46522   0.65178   0.00000  Uiso   1.00
H961   H     0.96302   0.58226   0.81607   0.00000  Uiso   1.00
H962   H     0.96341   0.53478   0.84822   0.00000  Uiso   1.00
H963   H     0.96303   0.46528   0.65181   0.00000  Uiso   1.00
H964   H     0.96300   0.41773   0.68386   0.00000  Uiso   1.00
H965   H     0.70364   0.53472   0.84819   0.00000  Uiso   1.00
H966   H     0.83321   0.57323   0.61028   0.00000  Uiso   1.00
H967   H     0.70367   0.58227   0.81614   0.00000  Uiso   1.00
H968   H     0.87836   0.37544   0.80171   0.00000  Uiso   1.00
H969   H     0.78831   0.62456   0.69829   0.00000  Uiso   1.00
H970   H     0.78830   0.37562   0.69830   0.00000  Uiso   1.00
H971   H     0.87837   0.62438   0.80170   0.00000  Uiso   1.00
H972   H     0.83352   0.57320   0.88960   0.00000  Uiso   1.00
H973   H     0.83315   0.42680   0.61040   0.00000  Uiso   1.00
H974   H     0.83336   0.38514   0.95935   0.00000  Uiso   1.00
N975   N     0.83333   0.61907   0.75000   0.00000  Uiso   1.00
N976   N     0.83333   0.38093   0.75000   0.00000  Uiso   1.00
N977   N     0.71153   0.45209   0.68292   0.00000  Uiso   1.00
N978   N     0.95513   0.54791   0.81708   0.00000  Uiso   1.00
N979   N     0.95496   0.45206   0.68294   0.00000  Uiso   1.00
N980   N     0.71170   0.54793   0.81706   0.00000  Uiso   1.00
O981   O     0.77226   0.53821   0.74999   0.00000  Uiso   1.00
O982   O     0.89441   0.46179   0.75000   0.00000  Uiso   1.00
O983   O     0.89441   0.53821   0.75000   0.00000  Uiso   1.00
O984   O     0.77226   0.46179   0.74999   0.00000  Uiso   1.00
O985   O     0.83333   0.53823   0.68392   0.00000  Uiso   1.00
O986   O     0.83334   0.46177   0.81607   0.00000  Uiso   1.00
O987   O     0.83334   0.53823   0.81607   0.00000  Uiso   1.00
O988   O     0.83333   0.46177   0.68392   0.00000  Uiso   1.00
Zn989  Zn    0.83333   0.55104   0.75000   0.00000  Uiso   1.00
Zn990  Zn    0.83333   0.44896   0.75000   0.00000  Uiso   1.00
C991   C     0.08677   0.83335   0.74998   0.00000  Uiso   1.00
C992   C     0.04264   0.83337   0.74997   0.00000  Uiso   1.00
C993   C     0.19169   0.69061   0.77874   0.00000  Uiso   1.00
C994   C     0.14164   0.97606   0.72126   0.00000  Uiso   1.00
C995   C     0.14164   0.69071   0.72126   0.00000  Uiso   1.00
C996   C     0.19169   0.97596   0.77874   0.00000  Uiso   1.00
C997   C     0.16661   0.83334   0.66326   0.00000  Uiso   1.00
C998   C     0.16672   0.83332   0.83674   0.00000  Uiso   1.00
C999   C     0.16681   0.87461   0.90755   0.00000  Uiso   1.00
C1000  C     0.16652   0.79205   0.59245   0.00000  Uiso   1.00
C1001  C     0.16678   0.83332   0.88469   0.00000  Uiso   1.00
C1002  C     0.24656   0.83332   0.75002   0.00000  Uiso   1.00
C1003  C     0.16655   0.83335   0.61531   0.00000  Uiso   1.00
C1004  C     0.16678   0.79202   0.90762   0.00000  Uiso   1.00
C1005  C     0.16655   0.87464   0.59237   0.00000  Uiso   1.00
C1006  C     0.16673   0.79172   0.95370   0.00000  Uiso   1.00
C1007  C     0.16660   0.87495   0.54630   0.00000  Uiso   1.00
C1008  C     0.16671   0.83333   0.97683   0.00000  Uiso   1.00
C1009  C     0.16663   0.83334   0.52317   0.00000  Uiso   1.00
C1010  C     0.16676   0.87494   0.95362   0.00000  Uiso   1.00
C1011  C     0.16657   0.79173   0.54638   0.00000  Uiso   1.00
C1012  C     0.16667   0.75055   0.97694   0.00000  Uiso   1.00
C1013  C     0.16659   0.75056   0.52322   0.00000  Uiso   1.00
C1014  C     0.16666   0.91611   0.52306   0.00000  Uiso   1.00
C1015  C     0.16674   0.91611   0.97678   0.00000  Uiso   1.00
C1016  C     0.02167   0.80893   0.71677   0.00000  Uiso   1.00
C1017  C     0.31166   0.85773   0.78322   0.00000  Uiso   1.00
C1018  C     0.31157   0.80890   0.71680   0.00000  Uiso   1.00
C1019  C     0.02176   0.85777   0.78320   0.00000  Uiso   1.00
C1020  C     0.29069   0.83329   0.75002   0.00000  Uiso   1.00
H1021  H     0.16679   0.76010   0.88972   0.00000  Uiso   1.00
H1022  H     0.16664   0.94819   0.54065   0.00000  Uiso   1.00
H1023  H     0.16655   0.71849   0.54086   0.00000  Uiso   1.00
H1024  H     0.16678   0.94818   0.95914   0.00000  Uiso   1.00
H1025  H     0.03698   0.75107   0.68393   0.00000  Uiso   1.00
H1026  H     0.03659   0.79855   0.65178   0.00000  Uiso   1.00
H1027  H     0.29635   0.91560   0.81607   0.00000  Uiso   1.00
H1028  H     0.29674   0.86812   0.84822   0.00000  Uiso   1.00
H1029  H     0.29636   0.79861   0.65181   0.00000  Uiso   1.00
H1030  H     0.29633   0.75107   0.68386   0.00000  Uiso   1.00
H1031  H     0.03697   0.86806   0.84819   0.00000  Uiso   1.00
H1032  H     0.16654   0.90657   0.61028   0.00000  Uiso   1.00
H1033  H     0.03700   0.91560   0.81614   0.00000  Uiso   1.00
H1034  H     0.21169   0.70877   0.80171   0.00000  Uiso   1.00
H1035  H     0.12164   0.95789   0.69829   0.00000  Uiso   1.00
H1036  H     0.12163   0.70895   0.69830   0.00000  Uiso   1.00
H1037  H     0.21170   0.95772   0.80170   0.00000  Uiso   1.00
H1038  H     0.16685   0.90654   0.88960   0.00000  Uiso   1.00
H1039  H     0.16648   0.76013   0.61040   0.00000  Uiso   1.00
H1040  H     0.16669   0.71847   0.95935   0.00000  Uiso   1.00
N1041  N     0.16667   0.95240   0.75000   0.00000  Uiso   1.00
N1042  N     0.16667   0.71427   0.75000   0.00000  Uiso   1.00
N1043  N     0.04487   0.78543   0.68292   0.00000  Uiso   1.00
N1044  N     0.28847   0.88124   0.81708   0.00000  Uiso   1.00
N1045  N     0.28830   0.78540   0.68294   0.00000  Uiso   1.00
N1046  N     0.04504   0.88127   0.81706   0.00000  Uiso   1.00
O1047  O     0.10559   0.87154   0.74999   0.00000  Uiso   1.00
O1048  O     0.22774   0.79513   0.75000   0.00000  Uiso   1.00
O1049  O     0.22774   0.87154   0.75000   0.00000  Uiso   1.00
O1050  O     0.10559   0.79513   0.74999   0.00000  Uiso   1.00
O1051  O     0.16666   0.87156   0.68392   0.00000  Uiso   1.00
O1052  O     0.16667   0.79511   0.81607   0.00000  Uiso   1.00
O1053  O     0.16667   0.87156   0.81607   0.00000  Uiso   1.00
O1054  O     0.16666   0.79511   0.68392   0.00000  Uiso   1.00
Zn1055 Zn    0.16667   0.88437   0.75000   0.00000  Uiso   1.00
Zn1056 Zn    0.16667   0.78229   0.75000   0.00000  Uiso   1.00
C1057  C     0.42011   0.83335   0.74998   0.00000  Uiso   1.00
C1058  C     0.37598   0.83337   0.74997   0.00000  Uiso   1.00
C1059  C     0.52503   0.69061   0.77874   0.00000  Uiso   1.00
C1060  C     0.47498   0.97606   0.72126   0.00000  Uiso   1.00
C1061  C     0.47497   0.69071   0.72126   0.00000  Uiso   1.00
C1062  C     0.52503   0.97596   0.77874   0.00000  Uiso   1.00
C1063  C     0.49995   0.83334   0.66326   0.00000  Uiso   1.00
C1064  C     0.50005   0.83332   0.83674   0.00000  Uiso   1.00
C1065  C     0.50015   0.87461   0.90755   0.00000  Uiso   1.00
C1066  C     0.49985   0.79205   0.59245   0.00000  Uiso   1.00
C1067  C     0.50012   0.83332   0.88469   0.00000  Uiso   1.00
C1068  C     0.57989   0.83332   0.75002   0.00000  Uiso   1.00
C1069  C     0.49988   0.83335   0.61531   0.00000  Uiso   1.00
C1070  C     0.50011   0.79202   0.90762   0.00000  Uiso   1.00
C1071  C     0.49989   0.87464   0.59237   0.00000  Uiso   1.00
C1072  C     0.50006   0.79172   0.95370   0.00000  Uiso   1.00
C1073  C     0.49994   0.87495   0.54630   0.00000  Uiso   1.00
C1074  C     0.50004   0.83333   0.97683   0.00000  Uiso   1.00
C1075  C     0.49996   0.83334   0.52317   0.00000  Uiso   1.00
C1076  C     0.50010   0.87494   0.95362   0.00000  Uiso   1.00
C1077  C     0.49990   0.79173   0.54638   0.00000  Uiso   1.00
C1078  C     0.50001   0.75055   0.97694   0.00000  Uiso   1.00
C1079  C     0.49992   0.75056   0.52322   0.00000  Uiso   1.00
C1080  C     0.49999   0.91611   0.52306   0.00000  Uiso   1.00
C1081  C     0.50008   0.91611   0.97678   0.00000  Uiso   1.00
C1082  C     0.35501   0.80893   0.71677   0.00000  Uiso   1.00
C1083  C     0.64499   0.85773   0.78322   0.00000  Uiso   1.00
C1084  C     0.64491   0.80890   0.71680   0.00000  Uiso   1.00
C1085  C     0.35509   0.85777   0.78320   0.00000  Uiso   1.00
C1086  C     0.62402   0.83329   0.75002   0.00000  Uiso   1.00
H1087  H     0.50012   0.76010   0.88972   0.00000  Uiso   1.00
H1088  H     0.49998   0.94819   0.54065   0.00000  Uiso   1.00
H1089  H     0.49988   0.71849   0.54086   0.00000  Uiso   1.00
H1090  H     0.50012   0.94818   0.95914   0.00000  Uiso   1.00
H1091  H     0.37031   0.75107   0.68393   0.00000  Uiso   1.00
H1092  H     0.36993   0.79855   0.65178   0.00000  Uiso   1.00
H1093  H     0.62969   0.91560   0.81607   0.00000  Uiso   1.00
H1094  H     0.63007   0.86812   0.84822   0.00000  Uiso   1.00
H1095  H     0.62970   0.79861   0.65181   0.00000  Uiso   1.00
H1096  H     0.62967   0.75107   0.68386   0.00000  Uiso   1.00
H1097  H     0.37030   0.86806   0.84819   0.00000  Uiso   1.00
H1098  H     0.49988   0.90657   0.61028   0.00000  Uiso   1.00
H1099  H     0.37033   0.91560   0.81614   0.00000  Uiso   1.00
H1100  H     0.54502   0.70877   0.80171   0.00000  Uiso   1.00
H1101  H     0.45498   0.95789   0.69829   0.00000  Uiso   1.00
H1102  H     0.45497   0.70895   0.69830   0.00000  Uiso   1.00
H1103  H     0.54503   0.95772   0.80170   0.00000  Uiso   1.00
H1104  H     0.50019   0.90654   0.88960   0.00000  Uiso   1.00
H1105  H     0.49981   0.76013   0.61040   0.00000  Uiso   1.00
H1106  H     0.50002   0.71847   0.95935   0.00000  Uiso   1.00
N1107  N     0.50000   0.95240   0.75000   0.00000  Uiso   1.00
N1108  N     0.50000   0.71427   0.75000   0.00000  Uiso   1.00
N1109  N     0.37820   0.78543   0.68292   0.00000  Uiso   1.00
N1110  N     0.62180   0.88124   0.81708   0.00000  Uiso   1.00
N1111  N     0.62163   0.78540   0.68294   0.00000  Uiso   1.00
N1112  N     0.37837   0.88127   0.81706   0.00000  Uiso   1.00
O1113  O     0.43892   0.87154   0.74999   0.00000  Uiso   1.00
O1114  O     0.56108   0.79513   0.75000   0.00000  Uiso   1.00
O1115  O     0.56108   0.87154   0.75000   0.00000  Uiso   1.00
O1116  O     0.43892   0.79513   0.74999   0.00000  Uiso   1.00
O1117  O     0.49999   0.87156   0.68392   0.00000  Uiso   1.00
O1118  O     0.50001   0.79511   0.81607   0.00000  Uiso   1.00
O1119  O     0.50001   0.87156   0.81607   0.00000  Uiso   1.00
O1120  O     0.49999   0.79511   0.68392   0.00000  Uiso   1.00
Zn1121 Zn    0.50000   0.88437   0.75000   0.00000  Uiso   1.00
Zn1122 Zn    0.50000   0.78229   0.75000   0.00000  Uiso   1.00
C1123  C     0.75344   0.83335   0.74998   0.00000  Uiso   1.00
C1124  C     0.70931   0.83337   0.74997   0.00000  Uiso   1.00
C1125  C     0.85836   0.69061   0.77874   0.00000  Uiso   1.00
C1126  C     0.80831   0.97606   0.72126   0.00000  Uiso   1.00
C1127  C     0.80831   0.69071   0.72126   0.00000  Uiso   1.00
C1128  C     0.85836   0.97596   0.77874   0.00000  Uiso   1.00
C1129  C     0.83328   0.83334   0.66326   0.00000  Uiso   1.00
C1130  C     0.83339   0.83332   0.83674   0.00000  Uiso   1.00
C1131  C     0.83348   0.87461   0.90755   0.00000  Uiso   1.00
C1132  C     0.83319   0.79205   0.59245   0.00000  Uiso   1.00
C1133  C     0.83345   0.83332   0.88469   0.00000  Uiso   1.00
C1134  C     0.91323   0.83332   0.75002   0.00000  Uiso   1.00
C1135  C     0.83322   0.83335   0.61531   0.00000  Uiso   1.00
C1136  C     0.83345   0.79202   0.90762   0.00000  Uiso   1.00
C1137  C     0.83322   0.87464   0.59237   0.00000  Uiso   1.00
C1138  C     0.83340   0.79172   0.95370   0.00000  Uiso   1.00
C1139  C     0.83327   0.87495   0.54630   0.00000  Uiso   1.00
C1140  C     0.83337   0.83333   0.97683   0.00000  Uiso   1.00
C1141  C     0.83329   0.83334   0.52317   0.00000  Uiso   1.00
C1142  C     0.83343   0.87494   0.95362   0.00000  Uiso   1.00
C1143  C     0.83324   0.79173   0.54638   0.00000  Uiso   1.00
C1144  C     0.83334   0.75055   0.97694   0.00000  Uiso   1.00
C1145  C     0.83326   0.75056   0.52322   0.00000  Uiso   1.00
C1146  C     0.83333   0.91611   0.52306   0.00000  Uiso   1.00
C1147  C     0.83341   0.91611   0.97678   0.00000  Uiso   1.00
C1148  C     0.68834   0.80893   0.71677   0.00000  Uiso   1.00
C1149  C     0.97833   0.85773   0.78322   0.00000  Uiso   1.00
C1150  C     0.97824   0.80890   0.71680   0.00000  Uiso   1.00
C1151  C     0.68843   0.85777   0.78320   0.00000  Uiso   1.00
C1152  C     0.95736   0.83329   0.75002   0.00000  Uiso   1.00
H1153  H     0.83346   0.76010   0.88972   0.00000  Uiso   1.00
H1154  H     0.83331   0.94819   0.54065   0.00000  Uiso   1.00
H1155  H     0.83322   0.71849   0.54086   0.00000  Uiso   1.00
H1156  H     0.83345   0.94818   0.95914   0.00000  Uiso   1.00
H1157  H     0.70365   0.75107   0.68393   0.00000  Uiso   1.00
H1158  H     0.70326   0.79855   0.65178   0.00000  Uiso   1.00
H1159  H     0.96302   0.91560   0.81607   0.00000  Uiso   1.00
H1160  H     0.96341   0.86812   0.84822   0.00000  Uiso   1.00
H1161  H     0.96303   0.79861   0.65181   0.00000  Uiso   1.00
H1162  H     0.96300   0.75107   0.68386   0.00000  Uiso   1.00
H1163  H     0.70364   0.86806   0.84819   0.00000  Uiso   1.00
H1164  H     0.83321   0.90657   0.61028   0.00000  Uiso   1.00
H1165  H     0.70367   0.91560   0.81614   0.00000  Uiso   1.00
H1166  H     0.87836   0.70877   0.80171   0.00000  Uiso   1.00
H1167  H     0.78831   0.95789   0.69829   0.00000  Uiso   1.00
H1168  H     0.78830   0.70895   0.69830   0.00000  Uiso   1.00
H1169  H     0.87837   0.95772   0.80170   0.00000  Uiso   1.00
H1170  H     0.83352   0.90654   0.88960   0.00000  Uiso   1.00
H1171  H     0.83315   0.76013   0.61040   0.00000  Uiso   1.00
H1172  H     0.83336   0.71847   0.95935   0.00000  Uiso   1.00
N1173  N     0.83333   0.95240   0.75000   0.00000  Uiso   1.00
N1174  N     0.83333   0.71427   0.75000   0.00000  Uiso   1.00
N1175  N     0.71153   0.78543   0.68292   0.00000  Uiso   1.00
N1176  N     0.95513   0.88124   0.81708   0.00000  Uiso   1.00
N1177  N     0.95496   0.78540   0.68294   0.00000  Uiso   1.00
N1178  N     0.71170   0.88127   0.81706   0.00000  Uiso   1.00
O1179  O     0.77226   0.87154   0.74999   0.00000  Uiso   1.00
O1180  O     0.89441   0.79513   0.75000   0.00000  Uiso   1.00
O1181  O     0.89441   0.87154   0.75000   0.00000  Uiso   1.00
O1182  O     0.77226   0.79513   0.74999   0.00000  Uiso   1.00
O1183  O     0.83333   0.87156   0.68392   0.00000  Uiso   1.00
O1184  O     0.83334   0.79511   0.81607   0.00000  Uiso   1.00
O1185  O     0.83334   0.87156   0.81607   0.00000  Uiso   1.00
O1186  O     0.83333   0.79511   0.68392   0.00000  Uiso   1.00
Zn1187 Zn    0.83333   0.88437   0.75000   0.00000  Uiso   1.00
Zn1188 Zn    0.83333   0.78229   0.75000   0.00000  Uiso   1.00
loop_
_geom_bond_atom_site_label_1
_geom_bond_atom_site_label_2
_geom_bond_distance
_geom_bond_site_symmetry_2
_ccdc_geom_bond_type
C1     O57     1.278   .     A
C1     C2      1.410   .     S
C1     O60     1.278   .     A
C2     C26     1.401   .     A
C2     C29     1.401   .     A
C3     N52     1.366   .     A
C3     H44     1.082   .     S
C3     C402    1.416   1_545 S
C4     H45     1.082   .     S
C4     N51     1.366   .     A
C4     C203    1.416   .     S
C5     N52     1.366   .     A
C5     H46     1.082   .     S
C5     C400    1.416   1_545 S
C6     N51     1.366   .     A
C6     H47     1.082   .     S
C6     C201    1.416   .     S
C7     O64     1.287   .     A
C7     C13     1.440   .     S
C7     O61     1.287   .     A
C8     C11     1.440   .     S
C8     O63     1.287   .     A
C8     O62     1.287   .     A
C9     C20     1.383   .     A
C9     C11     1.399   .     A
C9     H48     1.085   .     S
C10    H49     1.085   .     S
C10    C21     1.383   .     A
C10    C13     1.399   .     A
C11    C14     1.399   .     A
C12    O58     1.278   .     A
C12    O59     1.278   .     A
C12    C30     1.410   .     S
C13    C15     1.399   .     A
C14    H31     1.085   .     S
C14    C16     1.383   .     A
C15    C17     1.383   .     A
C15    H42     1.085   .     S
C16    C18     1.411   .     A
C16    C22     1.400   .     A
C17    C24     1.400   .     A
C17    C19     1.411   .     A
C18    C20     1.411   .     A
C18    C613    1.391   .     S
C19    C21     1.411   .     A
C19    C612    1.391   1_554 S
C20    C25     1.400   .     A
C21    C23     1.400   .     A
C22    H50     1.084   .     S
C22    C617    1.389   .     S
C23    H33     1.084   .     S
C23    C616    1.389   1_554 S
C24    H32     1.084   .     S
C24    C619    1.389   1_554 S
C25    H34     1.084   .     S
C25    C618    1.389   .     S
C26    N53     1.438   .     S
C26    C160    1.388   1_455 S
C27    N54     1.438   .     S
C27    C30     1.401   .     A
C27    C95     1.388   .     S
C28    C30     1.401   .     A
C28    N55     1.437   .     S
C28    C92     1.388   .     S
C29    N56     1.437   .     S
C29    C159    1.388   1_455 S
H35    N53     1.045   .     S
H36    N53     1.045   .     S
H37    N54     1.045   .     S
H38    N54     1.045   .     S
H39    N55     1.045   .     S
H40    N55     1.045   .     S
H41    N56     1.045   .     S
H43    N56     1.045   .     S
N51    Zn65    2.007   .     S
N52    Zn66    2.007   .     S
O57    Zn65    1.989   .     S
O58    Zn66    1.989   .     S
O59    Zn65    1.988   .     S
O60    Zn66    1.988   .     S
O61    Zn65    2.020   .     S
O62    Zn66    2.020   .     S
O63    Zn65    2.019   .     S
O64    Zn66    2.019   .     S
C67    O123    1.278   .     A
C67    C68     1.410   .     S
C67    O126    1.278   .     A
C68    C92     1.401   .     A
C68    C95     1.401   .     A
C69    N118    1.366   .     A
C69    H110    1.082   .     S
C69    C468    1.416   1_545 S
C70    H111    1.082   .     S
C70    N117    1.366   .     A
C70    C269    1.416   .     S
C71    N118    1.366   .     A
C71    H112    1.082   .     S
C71    C466    1.416   1_545 S
C72    N117    1.366   .     A
C72    H113    1.082   .     S
C72    C267    1.416   .     S
C73    O130    1.287   .     A
C73    C79     1.440   .     S
C73    O127    1.287   .     A
C74    C77     1.440   .     S
C74    O129    1.287   .     A
C74    O128    1.287   .     A
C75    C86     1.383   .     A
C75    C77     1.399   .     A
C75    H114    1.085   .     S
C76    H115    1.085   .     S
C76    C87     1.383   .     A
C76    C79     1.399   .     A
C77    C80     1.399   .     A
C78    O124    1.278   .     A
C78    O125    1.278   .     A
C78    C96     1.410   .     S
C79    C81     1.399   .     A
C80    H97     1.085   .     S
C80    C82     1.383   .     A
C81    C83     1.383   .     A
C81    H108    1.085   .     S
C82    C84     1.411   .     A
C82    C88     1.400   .     A
C83    C90     1.400   .     A
C83    C85     1.411   .     A
C84    C86     1.411   .     A
C84    C679    1.391   .     S
C85    C87     1.411   .     A
C85    C678    1.391   1_554 S
C86    C91     1.400   .     A
C87    C89     1.400   .     A
C88    H116    1.084   .     S
C88    C683    1.389   .     S
C89    H99     1.084   .     S
C89    C682    1.389   1_554 S
C90    H98     1.084   .     S
C90    C685    1.389   1_554 S
C91    H100    1.084   .     S
C91    C684    1.389   .     S
C92    N119    1.438   .     S
C93    N120    1.438   .     S
C93    C96     1.401   .     A
C93    C161    1.388   .     S
C94    C96     1.401   .     A
C94    N121    1.437   .     S
C94    C158    1.388   .     S
C95    N122    1.437   .     S
H101   N119    1.045   .     S
H102   N119    1.045   .     S
H103   N120    1.045   .     S
H104   N120    1.045   .     S
H105   N121    1.045   .     S
H106   N121    1.045   .     S
H107   N122    1.045   .     S
H109   N122    1.045   .     S
N117   Zn131   2.007   .     S
N118   Zn132   2.007   .     S
O123   Zn131   1.989   .     S
O124   Zn132   1.989   .     S
O125   Zn131   1.988   .     S
O126   Zn132   1.988   .     S
O127   Zn131   2.020   .     S
O128   Zn132   2.020   .     S
O129   Zn131   2.019   .     S
O130   Zn132   2.019   .     S
C133   O189    1.278   .     A
C133   C134    1.410   .     S
C133   O192    1.278   .     A
C134   C158    1.401   .     A
C134   C161    1.401   .     A
C135   N184    1.366   .     A
C135   H176    1.082   .     S
C135   C534    1.416   1_545 S
C136   H177    1.082   .     S
C136   N183    1.366   .     A
C136   C335    1.416   .     S
C137   N184    1.366   .     A
C137   H178    1.082   .     S
C137   C532    1.416   1_545 S
C138   N183    1.366   .     A
C138   H179    1.082   .     S
C138   C333    1.416   .     S
C139   O196    1.287   .     A
C139   C145    1.440   .     S
C139   O193    1.287   .     A
C140   C143    1.440   .     S
C140   O195    1.287   .     A
C140   O194    1.287   .     A
C141   C152    1.383   .     A
C141   C143    1.399   .     A
C141   H180    1.085   .     S
C142   H181    1.085   .     S
C142   C153    1.383   .     A
C142   C145    1.399   .     A
C143   C146    1.399   .     A
C144   O190    1.278   .     A
C144   O191    1.278   .     A
C144   C162    1.410   .     S
C145   C147    1.399   .     A
C146   H163    1.085   .     S
C146   C148    1.383   .     A
C147   C149    1.383   .     A
C147   H174    1.085   .     S
C148   C150    1.411   .     A
C148   C154    1.400   .     A
C149   C156    1.400   .     A
C149   C151    1.411   .     A
C150   C152    1.411   .     A
C150   C745    1.391   .     S
C151   C153    1.411   .     A
C151   C744    1.391   1_554 S
C152   C157    1.400   .     A
C153   C155    1.400   .     A
C154   H182    1.084   .     S
C154   C749    1.389   .     S
C155   H165    1.084   .     S
C155   C748    1.389   1_554 S
C156   H164    1.084   .     S
C156   C751    1.389   1_554 S
C157   H166    1.084   .     S
C157   C750    1.389   .     S
C158   N185    1.438   .     S
C159   N186    1.438   .     S
C159   C162    1.401   .     A
C159   C29     1.388   1_655 S
C160   C162    1.401   .     A
C160   N187    1.437   .     S
C160   C26     1.388   1_655 S
C161   N188    1.437   .     S
H167   N185    1.045   .     S
H168   N185    1.045   .     S
H169   N186    1.045   .     S
H170   N186    1.045   .     S
H171   N187    1.045   .     S
H172   N187    1.045   .     S
H173   N188    1.045   .     S
H175   N188    1.045   .     S
N183   Zn197   2.007   .     S
N184   Zn198   2.007   .     S
O189   Zn197   1.989   .     S
O190   Zn198   1.989   .     S
O191   Zn197   1.988   .     S
O192   Zn198   1.988   .     S
O193   Zn197   2.020   .     S
O194   Zn198   2.020   .     S
O195   Zn197   2.019   .     S
O196   Zn198   2.019   .     S
C199   O255    1.278   .     A
C199   C200    1.410   .     S
C199   O258    1.278   .     A
C200   C224    1.401   .     A
C200   C227    1.401   .     A
C201   N250    1.366   .     A
C201   H242    1.082   .     S
C202   H243    1.082   .     S
C202   N249    1.366   .     A
C202   C401    1.416   .     S
C203   N250    1.366   .     A
C203   H244    1.082   .     S
C204   N249    1.366   .     A
C204   H245    1.082   .     S
C204   C399    1.416   .     S
C205   O262    1.287   .     A
C205   C211    1.440   .     S
C205   O259    1.287   .     A
C206   C209    1.440   .     S
C206   O261    1.287   .     A
C206   O260    1.287   .     A
C207   C218    1.383   .     A
C207   C209    1.399   .     A
C207   H246    1.085   .     S
C208   H247    1.085   .     S
C208   C219    1.383   .     A
C208   C211    1.399   .     A
C209   C212    1.399   .     A
C210   O256    1.278   .     A
C210   O257    1.278   .     A
C210   C228    1.410   .     S
C211   C213    1.399   .     A
C212   H229    1.085   .     S
C212   C214    1.383   .     A
C213   C215    1.383   .     A
C213   H240    1.085   .     S
C214   C216    1.411   .     A
C214   C220    1.400   .     A
C215   C222    1.400   .     A
C215   C217    1.411   .     A
C216   C218    1.411   .     A
C216   C811    1.391   .     S
C217   C219    1.411   .     A
C217   C810    1.391   1_554 S
C218   C223    1.400   .     A
C219   C221    1.400   .     A
C220   H248    1.084   .     S
C220   C815    1.389   .     S
C221   H231    1.084   .     S
C221   C814    1.389   1_554 S
C222   H230    1.084   .     S
C222   C817    1.389   1_554 S
C223   H232    1.084   .     S
C223   C816    1.389   .     S
C224   N251    1.438   .     S
C224   C358    1.388   1_455 S
C225   N252    1.438   .     S
C225   C228    1.401   .     A
C225   C293    1.388   .     S
C226   C228    1.401   .     A
C226   N253    1.437   .     S
C226   C290    1.388   .     S
C227   N254    1.437   .     S
C227   C357    1.388   1_455 S
H233   N251    1.045   .     S
H234   N251    1.045   .     S
H235   N252    1.045   .     S
H236   N252    1.045   .     S
H237   N253    1.045   .     S
H238   N253    1.045   .     S
H239   N254    1.045   .     S
H241   N254    1.045   .     S
N249   Zn263   2.007   .     S
N250   Zn264   2.007   .     S
O255   Zn263   1.989   .     S
O256   Zn264   1.989   .     S
O257   Zn263   1.988   .     S
O258   Zn264   1.988   .     S
O259   Zn263   2.020   .     S
O260   Zn264   2.020   .     S
O261   Zn263   2.019   .     S
O262   Zn264   2.019   .     S
C265   O321    1.278   .     A
C265   C266    1.410   .     S
C265   O324    1.278   .     A
C266   C290    1.401   .     A
C266   C293    1.401   .     A
C267   N316    1.366   .     A
C267   H308    1.082   .     S
C268   H309    1.082   .     S
C268   N315    1.366   .     A
C268   C467    1.416   .     S
C269   N316    1.366   .     A
C269   H310    1.082   .     S
C270   N315    1.366   .     A
C270   H311    1.082   .     S
C270   C465    1.416   .     S
C271   O328    1.287   .     A
C271   C277    1.440   .     S
C271   O325    1.287   .     A
C272   C275    1.440   .     S
C272   O327    1.287   .     A
C272   O326    1.287   .     A
C273   C284    1.383   .     A
C273   C275    1.399   .     A
C273   H312    1.085   .     S
C274   H313    1.085   .     S
C274   C285    1.383   .     A
C274   C277    1.399   .     A
C275   C278    1.399   .     A
C276   O322    1.278   .     A
C276   O323    1.278   .     A
C276   C294    1.410   .     S
C277   C279    1.399   .     A
C278   H295    1.085   .     S
C278   C280    1.383   .     A
C279   C281    1.383   .     A
C279   H306    1.085   .     S
C280   C282    1.411   .     A
C280   C286    1.400   .     A
C281   C288    1.400   .     A
C281   C283    1.411   .     A
C282   C284    1.411   .     A
C282   C877    1.391   .     S
C283   C285    1.411   .     A
C283   C876    1.391   1_554 S
C284   C289    1.400   .     A
C285   C287    1.400   .     A
C286   H314    1.084   .     S
C286   C881    1.389   .     S
C287   H297    1.084   .     S
C287   C880    1.389   1_554 S
C288   H296    1.084   .     S
C288   C883    1.389   1_554 S
C289   H298    1.084   .     S
C289   C882    1.389   .     S
C290   N317    1.438   .     S
C291   N318    1.438   .     S
C291   C294    1.401   .     A
C291   C359    1.388   .     S
C292   C294    1.401   .     A
C292   N319    1.437   .     S
C292   C356    1.388   .     S
C293   N320    1.437   .     S
H299   N317    1.045   .     S
H300   N317    1.045   .     S
H301   N318    1.045   .     S
H302   N318    1.045   .     S
H303   N319    1.045   .     S
H304   N319    1.045   .     S
H305   N320    1.045   .     S
H307   N320    1.045   .     S
N315   Zn329   2.007   .     S
N316   Zn330   2.007   .     S
O321   Zn329   1.989   .     S
O322   Zn330   1.989   .     S
O323   Zn329   1.988   .     S
O324   Zn330   1.988   .     S
O325   Zn329   2.020   .     S
O326   Zn330   2.020   .     S
O327   Zn329   2.019   .     S
O328   Zn330   2.019   .     S
C331   O387    1.278   .     A
C331   C332    1.410   .     S
C331   O390    1.278   .     A
C332   C356    1.401   .     A
C332   C359    1.401   .     A
C333   N382    1.366   .     A
C333   H374    1.082   .     S
C334   H375    1.082   .     S
C334   N381    1.366   .     A
C334   C533    1.416   .     S
C335   N382    1.366   .     A
C335   H376    1.082   .     S
C336   N381    1.366   .     A
C336   H377    1.082   .     S
C336   C531    1.416   .     S
C337   O394    1.287   .     A
C337   C343    1.440   .     S
C337   O391    1.287   .     A
C338   C341    1.440   .     S
C338   O393    1.287   .     A
C338   O392    1.287   .     A
C339   C350    1.383   .     A
C339   C341    1.399   .     A
C339   H378    1.085   .     S
C340   H379    1.085   .     S
C340   C351    1.383   .     A
C340   C343    1.399   .     A
C341   C344    1.399   .     A
C342   O388    1.278   .     A
C342   O389    1.278   .     A
C342   C360    1.410   .     S
C343   C345    1.399   .     A
C344   H361    1.085   .     S
C344   C346    1.383   .     A
C345   C347    1.383   .     A
C345   H372    1.085   .     S
C346   C348    1.411   .     A
C346   C352    1.400   .     A
C347   C354    1.400   .     A
C347   C349    1.411   .     A
C348   C350    1.411   .     A
C348   C943    1.391   .     S
C349   C351    1.411   .     A
C349   C942    1.391   1_554 S
C350   C355    1.400   .     A
C351   C353    1.400   .     A
C352   H380    1.084   .     S
C352   C947    1.389   .     S
C353   H363    1.084   .     S
C353   C946    1.389   1_554 S
C354   H362    1.084   .     S
C354   C949    1.389   1_554 S
C355   H364    1.084   .     S
C355   C948    1.389   .     S
C356   N383    1.438   .     S
C357   N384    1.438   .     S
C357   C360    1.401   .     A
C357   C227    1.388   1_655 S
C358   C360    1.401   .     A
C358   N385    1.437   .     S
C358   C224    1.388   1_655 S
C359   N386    1.437   .     S
H365   N383    1.045   .     S
H366   N383    1.045   .     S
H367   N384    1.045   .     S
H368   N384    1.045   .     S
H369   N385    1.045   .     S
H370   N385    1.045   .     S
H371   N386    1.045   .     S
H373   N386    1.045   .     S
N381   Zn395   2.007   .     S
N382   Zn396   2.007   .     S
O387   Zn395   1.989   .     S
O388   Zn396   1.989   .     S
O389   Zn395   1.988   .     S
O390   Zn396   1.988   .     S
O391   Zn395   2.020   .     S
O392   Zn396   2.020   .     S
O393   Zn395   2.019   .     S
O394   Zn396   2.019   .     S
C397   O453    1.278   .     A
C397   C398    1.410   .     S
C397   O456    1.278   .     A
C398   C422    1.401   .     A
C398   C425    1.401   .     A
C399   N448    1.366   .     A
C399   H440    1.082   .     S
C400   H441    1.082   .     S
C400   N447    1.366   .     A
C400   C5      1.416   1_565 S
C401   N448    1.366   .     A
C401   H442    1.082   .     S
C402   N447    1.366   .     A
C402   H443    1.082   .     S
C402   C3      1.416   1_565 S
C403   O460    1.287   .     A
C403   C409    1.440   .     S
C403   O457    1.287   .     A
C404   C407    1.440   .     S
C404   O459    1.287   .     A
C404   O458    1.287   .     A
C405   C416    1.383   .     A
C405   C407    1.399   .     A
C405   H444    1.085   .     S
C406   H445    1.085   .     S
C406   C417    1.383   .     A
C406   C409    1.399   .     A
C407   C410    1.399   .     A
C408   O454    1.278   .     A
C408   O455    1.278   .     A
C408   C426    1.410   .     S
C409   C411    1.399   .     A
C410   H427    1.085   .     S
C410   C412    1.383   .     A
C411   C413    1.383   .     A
C411   H438    1.085   .     S
C412   C414    1.411   .     A
C412   C418    1.400   .     A
C413   C420    1.400   .     A
C413   C415    1.411   .     A
C414   C416    1.411   .     A
C414   C1009   1.391   .     S
C415   C417    1.411   .     A
C415   C1008   1.391   1_554 S
C416   C421    1.400   .     A
C417   C419    1.400   .     A
C418   H446    1.084   .     S
C418   C1013   1.389   .     S
C419   H429    1.084   .     S
C419   C1012   1.389   1_554 S
C420   H428    1.084   .     S
C420   C1015   1.389   1_554 S
C421   H430    1.084   .     S
C421   C1014   1.389   .     S
C422   N449    1.438   .     S
C422   C556    1.388   1_455 S
C423   N450    1.438   .     S
C423   C426    1.401   .     A
C423   C491    1.388   .     S
C424   C426    1.401   .     A
C424   N451    1.437   .     S
C424   C488    1.388   .     S
C425   N452    1.437   .     S
C425   C555    1.388   1_455 S
H431   N449    1.045   .     S
H432   N449    1.045   .     S
H433   N450    1.045   .     S
H434   N450    1.045   .     S
H435   N451    1.045   .     S
H436   N451    1.045   .     S
H437   N452    1.045   .     S
H439   N452    1.045   .     S
N447   Zn461   2.007   .     S
N448   Zn462   2.007   .     S
O453   Zn461   1.989   .     S
O454   Zn462   1.989   .     S
O455   Zn461   1.988   .     S
O456   Zn462   1.988   .     S
O457   Zn461   2.020   .     S
O458   Zn462   2.020   .     S
O459   Zn461   2.019   .     S
O460   Zn462   2.019   .     S
C463   O519    1.278   .     A
C463   C464    1.410   .     S
C463   O522    1.278   .     A
C464   C488    1.401   .     A
C464   C491    1.401   .     A
C465   N514    1.366   .     A
C465   H506    1.082   .     S
C466   H507    1.082   .     S
C466   N513    1.366   .     A
C466   C71     1.416   1_565 S
C467   N514    1.366   .     A
C467   H508    1.082   .     S
C468   N513    1.366   .     A
C468   H509    1.082   .     S
C468   C69     1.416   1_565 S
C469   O526    1.287   .     A
C469   C475    1.440   .     S
C469   O523    1.287   .     A
C470   C473    1.440   .     S
C470   O525    1.287   .     A
C470   O524    1.287   .     A
C471   C482    1.383   .     A
C471   C473    1.399   .     A
C471   H510    1.085   .     S
C472   H511    1.085   .     S
C472   C483    1.383   .     A
C472   C475    1.399   .     A
C473   C476    1.399   .     A
C474   O520    1.278   .     A
C474   O521    1.278   .     A
C474   C492    1.410   .     S
C475   C477    1.399   .     A
C476   H493    1.085   .     S
C476   C478    1.383   .     A
C477   C479    1.383   .     A
C477   H504    1.085   .     S
C478   C480    1.411   .     A
C478   C484    1.400   .     A
C479   C486    1.400   .     A
C479   C481    1.411   .     A
C480   C482    1.411   .     A
C480   C1075   1.391   .     S
C481   C483    1.411   .     A
C481   C1074   1.391   1_554 S
C482   C487    1.400   .     A
C483   C485    1.400   .     A
C484   H512    1.084   .     S
C484   C1079   1.389   .     S
C485   H495    1.084   .     S
C485   C1078   1.389   1_554 S
C486   H494    1.084   .     S
C486   C1081   1.389   1_554 S
C487   H496    1.084   .     S
C487   C1080   1.389   .     S
C488   N515    1.438   .     S
C489   N516    1.438   .     S
C489   C492    1.401   .     A
C489   C557    1.388   .     S
C490   C492    1.401   .     A
C490   N517    1.437   .     S
C490   C554    1.388   .     S
C491   N518    1.437   .     S
H497   N515    1.045   .     S
H498   N515    1.045   .     S
H499   N516    1.045   .     S
H500   N516    1.045   .     S
H501   N517    1.045   .     S
H502   N517    1.045   .     S
H503   N518    1.045   .     S
H505   N518    1.045   .     S
N513   Zn527   2.007   .     S
N514   Zn528   2.007   .     S
O519   Zn527   1.989   .     S
O520   Zn528   1.989   .     S
O521   Zn527   1.988   .     S
O522   Zn528   1.988   .     S
O523   Zn527   2.020   .     S
O524   Zn528   2.020   .     S
O525   Zn527   2.019   .     S
O526   Zn528   2.019   .     S
C529   O585    1.278   .     A
C529   C530    1.410   .     S
C529   O588    1.278   .     A
C530   C554    1.401   .     A
C530   C557    1.401   .     A
C531   N580    1.366   .     A
C531   H572    1.082   .     S
C532   H573    1.082   .     S
C532   N579    1.366   .     A
C532   C137    1.416   1_565 S
C533   N580    1.366   .     A
C533   H574    1.082   .     S
C534   N579    1.366   .     A
C534   H575    1.082   .     S
C534   C135    1.416   1_565 S
C535   O592    1.287   .     A
C535   C541    1.440   .     S
C535   O589    1.287   .     A
C536   C539    1.440   .     S
C536   O591    1.287   .     A
C536   O590    1.287   .     A
C537   C548    1.383   .     A
C537   C539    1.399   .     A
C537   H576    1.085   .     S
C538   H577    1.085   .     S
C538   C549    1.383   .     A
C538   C541    1.399   .     A
C539   C542    1.399   .     A
C540   O586    1.278   .     A
C540   O587    1.278   .     A
C540   C558    1.410   .     S
C541   C543    1.399   .     A
C542   H559    1.085   .     S
C542   C544    1.383   .     A
C543   C545    1.383   .     A
C543   H570    1.085   .     S
C544   C546    1.411   .     A
C544   C550    1.400   .     A
C545   C552    1.400   .     A
C545   C547    1.411   .     A
C546   C548    1.411   .     A
C546   C1141   1.391   .     S
C547   C549    1.411   .     A
C547   C1140   1.391   1_554 S
C548   C553    1.400   .     A
C549   C551    1.400   .     A
C550   H578    1.084   .     S
C550   C1145   1.389   .     S
C551   H561    1.084   .     S
C551   C1144   1.389   1_554 S
C552   H560    1.084   .     S
C552   C1147   1.389   1_554 S
C553   H562    1.084   .     S
C553   C1146   1.389   .     S
C554   N581    1.438   .     S
C555   N582    1.438   .     S
C555   C558    1.401   .     A
C555   C425    1.388   1_655 S
C556   C558    1.401   .     A
C556   N583    1.437   .     S
C556   C422    1.388   1_655 S
C557   N584    1.437   .     S
H563   N581    1.045   .     S
H564   N581    1.045   .     S
H565   N582    1.045   .     S
H566   N582    1.045   .     S
H567   N583    1.045   .     S
H568   N583    1.045   .     S
H569   N584    1.045   .     S
H571   N584    1.045   .     S
N579   Zn593   2.007   .     S
N580   Zn594   2.007   .     S
O585   Zn593   1.989   .     S
O586   Zn594   1.989   .     S
O587   Zn593   1.988   .     S
O588   Zn594   1.988   .     S
O589   Zn593   2.020   .     S
O590   Zn594   2.020   .     S
O591   Zn593   2.019   .     S
O592   Zn594   2.019   .     S
C595   O651    1.278   .     A
C595   C596    1.410   .     S
C595   O654    1.278   .     A
C596   C620    1.401   .     A
C596   C623    1.401   .     A
C597   N646    1.366   .     A
C597   H638    1.082   .     S
C597   C996    1.416   1_545 S
C598   H639    1.082   .     S
C598   N645    1.366   .     A
C598   C797    1.416   .     S
C599   N646    1.366   .     A
C599   H640    1.082   .     S
C599   C994    1.416   1_545 S
C600   N645    1.366   .     A
C600   H641    1.082   .     S
C600   C795    1.416   .     S
C601   O658    1.287   .     A
C601   C607    1.440   .     S
C601   O655    1.287   .     A
C602   C605    1.440   .     S
C602   O657    1.287   .     A
C602   O656    1.287   .     A
C603   C614    1.383   .     A
C603   C605    1.399   .     A
C603   H642    1.085   .     S
C604   H643    1.085   .     S
C604   C615    1.383   .     A
C604   C607    1.399   .     A
C605   C608    1.399   .     A
C606   O652    1.278   .     A
C606   O653    1.278   .     A
C606   C624    1.410   .     S
C607   C609    1.399   .     A
C608   H625    1.085   .     S
C608   C610    1.383   .     A
C609   C611    1.383   .     A
C609   H636    1.085   .     S
C610   C612    1.411   .     A
C610   C616    1.400   .     A
C611   C618    1.400   .     A
C611   C613    1.411   .     A
C612   C614    1.411   .     A
C612   C19     1.391   1_556 S
C613   C615    1.411   .     A
C614   C619    1.400   .     A
C615   C617    1.400   .     A
C616   H644    1.084   .     S
C616   C23     1.389   1_556 S
C617   H627    1.084   .     S
C618   H626    1.084   .     S
C619   H628    1.084   .     S
C619   C24     1.389   1_556 S
C620   N647    1.438   .     S
C620   C754    1.388   1_455 S
C621   N648    1.438   .     S
C621   C624    1.401   .     A
C621   C689    1.388   .     S
C622   C624    1.401   .     A
C622   N649    1.437   .     S
C622   C686    1.388   .     S
C623   N650    1.437   .     S
C623   C753    1.388   1_455 S
H629   N647    1.045   .     S
H630   N647    1.045   .     S
H631   N648    1.045   .     S
H632   N648    1.045   .     S
H633   N649    1.045   .     S
H634   N649    1.045   .     S
H635   N650    1.045   .     S
H637   N650    1.045   .     S
N645   Zn659   2.007   .     S
N646   Zn660   2.007   .     S
O651   Zn659   1.989   .     S
O652   Zn660   1.989   .     S
O653   Zn659   1.988   .     S
O654   Zn660   1.988   .     S
O655   Zn659   2.020   .     S
O656   Zn660   2.020   .     S
O657   Zn659   2.019   .     S
O658   Zn660   2.019   .     S
C661   O717    1.278   .     A
C661   C662    1.410   .     S
C661   O720    1.278   .     A
C662   C686    1.401   .     A
C662   C689    1.401   .     A
C663   N712    1.366   .     A
C663   H704    1.082   .     S
C663   C1062   1.416   1_545 S
C664   H705    1.082   .     S
C664   N711    1.366   .     A
C664   C863    1.416   .     S
C665   N712    1.366   .     A
C665   H706    1.082   .     S
C665   C1060   1.416   1_545 S
C666   N711    1.366   .     A
C666   H707    1.082   .     S
C666   C861    1.416   .     S
C667   O724    1.287   .     A
C667   C673    1.440   .     S
C667   O721    1.287   .     A
C668   C671    1.440   .     S
C668   O723    1.287   .     A
C668   O722    1.287   .     A
C669   C680    1.383   .     A
C669   C671    1.399   .     A
C669   H708    1.085   .     S
C670   H709    1.085   .     S
C670   C681    1.383   .     A
C670   C673    1.399   .     A
C671   C674    1.399   .     A
C672   O718    1.278   .     A
C672   O719    1.278   .     A
C672   C690    1.410   .     S
C673   C675    1.399   .     A
C674   H691    1.085   .     S
C674   C676    1.383   .     A
C675   C677    1.383   .     A
C675   H702    1.085   .     S
C676   C678    1.411   .     A
C676   C682    1.400   .     A
C677   C684    1.400   .     A
C677   C679    1.411   .     A
C678   C680    1.411   .     A
C678   C85     1.391   1_556 S
C679   C681    1.411   .     A
C680   C685    1.400   .     A
C681   C683    1.400   .     A
C682   H710    1.084   .     S
C682   C89     1.389   1_556 S
C683   H693    1.084   .     S
C684   H692    1.084   .     S
C685   H694    1.084   .     S
C685   C90     1.389   1_556 S
C686   N713    1.438   .     S
C687   N714    1.438   .     S
C687   C690    1.401   .     A
C687   C755    1.388   .     S
C688   C690    1.401   .     A
C688   N715    1.437   .     S
C688   C752    1.388   .     S
C689   N716    1.437   .     S
H695   N713    1.045   .     S
H696   N713    1.045   .     S
H697   N714    1.045   .     S
H698   N714    1.045   .     S
H699   N715    1.045   .     S
H700   N715    1.045   .     S
H701   N716    1.045   .     S
H703   N716    1.045   .     S
N711   Zn725   2.007   .     S
N712   Zn726   2.007   .     S
O717   Zn725   1.989   .     S
O718   Zn726   1.989   .     S
O719   Zn725   1.988   .     S
O720   Zn726   1.988   .     S
O721   Zn725   2.020   .     S
O722   Zn726   2.020   .     S
O723   Zn725   2.019   .     S
O724   Zn726   2.019   .     S
C727   O783    1.278   .     A
C727   C728    1.410   .     S
C727   O786    1.278   .     A
C728   C752    1.401   .     A
C728   C755    1.401   .     A
C729   N778    1.366   .     A
C729   H770    1.082   .     S
C729   C1128   1.416   1_545 S
C730   H771    1.082   .     S
C730   N777    1.366   .     A
C730   C929    1.416   .     S
C731   N778    1.366   .     A
C731   H772    1.082   .     S
C731   C1126   1.416   1_545 S
C732   N777    1.366   .     A
C732   H773    1.082   .     S
C732   C927    1.416   .     S
C733   O790    1.287   .     A
C733   C739    1.440   .     S
C733   O787    1.287   .     A
C734   C737    1.440   .     S
C734   O789    1.287   .     A
C734   O788    1.287   .     A
C735   C746    1.383   .     A
C735   C737    1.399   .     A
C735   H774    1.085   .     S
C736   H775    1.085   .     S
C736   C747    1.383   .     A
C736   C739    1.399   .     A
C737   C740    1.399   .     A
C738   O784    1.278   .     A
C738   O785    1.278   .     A
C738   C756    1.410   .     S
C739   C741    1.399   .     A
C740   H757    1.085   .     S
C740   C742    1.383   .     A
C741   C743    1.383   .     A
C741   H768    1.085   .     S
C742   C744    1.411   .     A
C742   C748    1.400   .     A
C743   C750    1.400   .     A
C743   C745    1.411   .     A
C744   C746    1.411   .     A
C744   C151    1.391   1_556 S
C745   C747    1.411   .     A
C746   C751    1.400   .     A
C747   C749    1.400   .     A
C748   H776    1.084   .     S
C748   C155    1.389   1_556 S
C749   H759    1.084   .     S
C750   H758    1.084   .     S
C751   H760    1.084   .     S
C751   C156    1.389   1_556 S
C752   N779    1.438   .     S
C753   N780    1.438   .     S
C753   C756    1.401   .     A
C753   C623    1.388   1_655 S
C754   C756    1.401   .     A
C754   N781    1.437   .     S
C754   C620    1.388   1_655 S
C755   N782    1.437   .     S
H761   N779    1.045   .     S
H762   N779    1.045   .     S
H763   N780    1.045   .     S
H764   N780    1.045   .     S
H765   N781    1.045   .     S
H766   N781    1.045   .     S
H767   N782    1.045   .     S
H769   N782    1.045   .     S
N777   Zn791   2.007   .     S
N778   Zn792   2.007   .     S
O783   Zn791   1.989   .     S
O784   Zn792   1.989   .     S
O785   Zn791   1.988   .     S
O786   Zn792   1.988   .     S
O787   Zn791   2.020   .     S
O788   Zn792   2.020   .     S
O789   Zn791   2.019   .     S
O790   Zn792   2.019   .     S
C793   O849    1.278   .     A
C793   C794    1.410   .     S
C793   O852    1.278   .     A
C794   C818    1.401   .     A
C794   C821    1.401   .     A
C795   N844    1.366   .     A
C795   H836    1.082   .     S
C796   H837    1.082   .     S
C796   N843    1.366   .     A
C796   C995    1.416   .     S
C797   N844    1.366   .     A
C797   H838    1.082   .     S
C798   N843    1.366   .     A
C798   H839    1.082   .     S
C798   C993    1.416   .     S
C799   O856    1.287   .     A
C799   C805    1.440   .     S
C799   O853    1.287   .     A
C800   C803    1.440   .     S
C800   O855    1.287   .     A
C800   O854    1.287   .     A
C801   C812    1.383   .     A
C801   C803    1.399   .     A
C801   H840    1.085   .     S
C802   H841    1.085   .     S
C802   C813    1.383   .     A
C802   C805    1.399   .     A
C803   C806    1.399   .     A
C804   O850    1.278   .     A
C804   O851    1.278   .     A
C804   C822    1.410   .     S
C805   C807    1.399   .     A
C806   H823    1.085   .     S
C806   C808    1.383   .     A
C807   C809    1.383   .     A
C807   H834    1.085   .     S
C808   C810    1.411   .     A
C808   C814    1.400   .     A
C809   C816    1.400   .     A
C809   C811    1.411   .     A
C810   C812    1.411   .     A
C810   C217    1.391   1_556 S
C811   C813    1.411   .     A
C812   C817    1.400   .     A
C813   C815    1.400   .     A
C814   H842    1.084   .     S
C814   C221    1.389   1_556 S
C815   H825    1.084   .     S
C816   H824    1.084   .     S
C817   H826    1.084   .     S
C817   C222    1.389   1_556 S
C818   N845    1.438   .     S
C818   C952    1.388   1_455 S
C819   N846    1.438   .     S
C819   C822    1.401   .     A
C819   C887    1.388   .     S
C820   C822    1.401   .     A
C820   N847    1.437   .     S
C820   C884    1.388   .     S
C821   N848    1.437   .     S
C821   C951    1.388   1_455 S
H827   N845    1.045   .     S
H828   N845    1.045   .     S
H829   N846    1.045   .     S
H830   N846    1.045   .     S
H831   N847    1.045   .     S
H832   N847    1.045   .     S
H833   N848    1.045   .     S
H835   N848    1.045   .     S
N843   Zn857   2.007   .     S
N844   Zn858   2.007   .     S
O849   Zn857   1.989   .     S
O850   Zn858   1.989   .     S
O851   Zn857   1.988   .     S
O852   Zn858   1.988   .     S
O853   Zn857   2.020   .     S
O854   Zn858   2.020   .     S
O855   Zn857   2.019   .     S
O856   Zn858   2.019   .     S
C859   O915    1.278   .     A
C859   C860    1.410   .     S
C859   O918    1.278   .     A
C860   C884    1.401   .     A
C860   C887    1.401   .     A
C861   N910    1.366   .     A
C861   H902    1.082   .     S
C862   H903    1.082   .     S
C862   N909    1.366   .     A
C862   C1061   1.416   .     S
C863   N910    1.366   .     A
C863   H904    1.082   .     S
C864   N909    1.366   .     A
C864   H905    1.082   .     S
C864   C1059   1.416   .     S
C865   O922    1.287   .     A
C865   C871    1.440   .     S
C865   O919    1.287   .     A
C866   C869    1.440   .     S
C866   O921    1.287   .     A
C866   O920    1.287   .     A
C867   C878    1.383   .     A
C867   C869    1.399   .     A
C867   H906    1.085   .     S
C868   H907    1.085   .     S
C868   C879    1.383   .     A
C868   C871    1.399   .     A
C869   C872    1.399   .     A
C870   O916    1.278   .     A
C870   O917    1.278   .     A
C870   C888    1.410   .     S
C871   C873    1.399   .     A
C872   H889    1.085   .     S
C872   C874    1.383   .     A
C873   C875    1.383   .     A
C873   H900    1.085   .     S
C874   C876    1.411   .     A
C874   C880    1.400   .     A
C875   C882    1.400   .     A
C875   C877    1.411   .     A
C876   C878    1.411   .     A
C876   C283    1.391   1_556 S
C877   C879    1.411   .     A
C878   C883    1.400   .     A
C879   C881    1.400   .     A
C880   H908    1.084   .     S
C880   C287    1.389   1_556 S
C881   H891    1.084   .     S
C882   H890    1.084   .     S
C883   H892    1.084   .     S
C883   C288    1.389   1_556 S
C884   N911    1.438   .     S
C885   N912    1.438   .     S
C885   C888    1.401   .     A
C885   C953    1.388   .     S
C886   C888    1.401   .     A
C886   N913    1.437   .     S
C886   C950    1.388   .     S
C887   N914    1.437   .     S
H893   N911    1.045   .     S
H894   N911    1.045   .     S
H895   N912    1.045   .     S
H896   N912    1.045   .     S
H897   N913    1.045   .     S
H898   N913    1.045   .     S
H899   N914    1.045   .     S
H901   N914    1.045   .     S
N909   Zn923   2.007   .     S
N910   Zn924   2.007   .     S
O915   Zn923   1.989   .     S
O916   Zn924   1.989   .     S
O917   Zn923   1.988   .     S
O918   Zn924   1.988   .     S
O919   Zn923   2.020   .     S
O920   Zn924   2.020   .     S
O921   Zn923   2.019   .     S
O922   Zn924   2.019   .     S
C925   O981    1.278   .     A
C925   C926    1.410   .     S
C925   O984    1.278   .     A
C926   C950    1.401   .     A
C926   C953    1.401   .     A
C927   N976    1.366   .     A
C927   H968    1.082   .     S
C928   H969    1.082   .     S
C928   N975    1.366   .     A
C928   C1127   1.416   .     S
C929   N976    1.366   .     A
C929   H970    1.082   .     S
C930   N975    1.366   .     A
C930   H971    1.082   .     S
C930   C1125   1.416   .     S
C931   O988    1.287   .     A
C931   C937    1.440   .     S
C931   O985    1.287   .     A
C932   C935    1.440   .     S
C932   O987    1.287   .     A
C932   O986    1.287   .     A
C933   C944    1.383   .     A
C933   C935    1.399   .     A
C933   H972    1.085   .     S
C934   H973    1.085   .     S
C934   C945    1.383   .     A
C934   C937    1.399   .     A
C935   C938    1.399   .     A
C936   O982    1.278   .     A
C936   O983    1.278   .     A
C936   C954    1.410   .     S
C937   C939    1.399   .     A
C938   H955    1.085   .     S
C938   C940    1.383   .     A
C939   C941    1.383   .     A
C939   H966    1.085   .     S
C940   C942    1.411   .     A
C940   C946    1.400   .     A
C941   C948    1.400   .     A
C941   C943    1.411   .     A
C942   C944    1.411   .     A
C942   C349    1.391   1_556 S
C943   C945    1.411   .     A
C944   C949    1.400   .     A
C945   C947    1.400   .     A
C946   H974    1.084   .     S
C946   C353    1.389   1_556 S
C947   H957    1.084   .     S
C948   H956    1.084   .     S
C949   H958    1.084   .     S
C949   C354    1.389   1_556 S
C950   N977    1.438   .     S
C951   N978    1.438   .     S
C951   C954    1.401   .     A
C951   C821    1.388   1_655 S
C952   C954    1.401   .     A
C952   N979    1.437   .     S
C952   C818    1.388   1_655 S
C953   N980    1.437   .     S
H959   N977    1.045   .     S
H960   N977    1.045   .     S
H961   N978    1.045   .     S
H962   N978    1.045   .     S
H963   N979    1.045   .     S
H964   N979    1.045   .     S
H965   N980    1.045   .     S
H967   N980    1.045   .     S
N975   Zn989   2.007   .     S
N976   Zn990   2.007   .     S
O981   Zn989   1.989   .     S
O982   Zn990   1.989   .     S
O983   Zn989   1.988   .     S
O984   Zn990   1.988   .     S
O985   Zn989   2.020   .     S
O986   Zn990   2.020   .     S
O987   Zn989   2.019   .     S
O988   Zn990   2.019   .     S
C991   O1047   1.278   .     A
C991   C992    1.410   .     S
C991   O1050   1.278   .     A
C992   C1016   1.401   .     A
C992   C1019   1.401   .     A
C993   N1042   1.366   .     A
C993   H1034   1.082   .     S
C994   H1035   1.082   .     S
C994   N1041   1.366   .     A
C994   C599    1.416   1_565 S
C995   N1042   1.366   .     A
C995   H1036   1.082   .     S
C996   N1041   1.366   .     A
C996   H1037   1.082   .     S
C996   C597    1.416   1_565 S
C997   O1054   1.287   .     A
C997   C1003   1.440   .     S
C997   O1051   1.287   .     A
C998   C1001   1.440   .     S
C998   O1053   1.287   .     A
C998   O1052   1.287   .     A
C999   C1010   1.383   .     A
C999   C1001   1.399   .     A
C999   H1038   1.085   .     S
C1000  H1039   1.085   .     S
C1000  C1011   1.383   .     A
C1000  C1003   1.399   .     A
C1001  C1004   1.399   .     A
C1002  O1048   1.278   .     A
C1002  O1049   1.278   .     A
C1002  C1020   1.410   .     S
C1003  C1005   1.399   .     A
C1004  H1021   1.085   .     S
C1004  C1006   1.383   .     A
C1005  C1007   1.383   .     A
C1005  H1032   1.085   .     S
C1006  C1008   1.411   .     A
C1006  C1012   1.400   .     A
C1007  C1014   1.400   .     A
C1007  C1009   1.411   .     A
C1008  C1010   1.411   .     A
C1008  C415    1.391   1_556 S
C1009  C1011   1.411   .     A
C1010  C1015   1.400   .     A
C1011  C1013   1.400   .     A
C1012  H1040   1.084   .     S
C1012  C419    1.389   1_556 S
C1013  H1023   1.084   .     S
C1014  H1022   1.084   .     S
C1015  H1024   1.084   .     S
C1015  C420    1.389   1_556 S
C1016  N1043   1.438   .     S
C1016  C1150   1.388   1_455 S
C1017  N1044   1.438   .     S
C1017  C1020   1.401   .     A
C1017  C1085   1.388   .     S
C1018  C1020   1.401   .     A
C1018  N1045   1.437   .     S
C1018  C1082   1.388   .     S
C1019  N1046   1.437   .     S
C1019  C1149   1.388   1_455 S
H1025  N1043   1.045   .     S
H1026  N1043   1.045   .     S
H1027  N1044   1.045   .     S
H1028  N1044   1.045   .     S
H1029  N1045   1.045   .     S
H1030  N1045   1.045   .     S
H1031  N1046   1.045   .     S
H1033  N1046   1.045   .     S
N1041  Zn1055  2.007   .     S
N1042  Zn1056  2.007   .     S
O1047  Zn1055  1.989   .     S
O1048  Zn1056  1.989   .     S
O1049  Zn1055  1.988   .     S
O1050  Zn1056  1.988   .     S
O1051  Zn1055  2.020   .     S
O1052  Zn1056  2.020   .     S
O1053  Zn1055  2.019   .     S
O1054  Zn1056  2.019   .     S
C1057  O1113   1.278   .     A
C1057  C1058   1.410   .     S
C1057  O1116   1.278   .     A
C1058  C1082   1.401   .     A
C1058  C1085   1.401   .     A
C1059  N1108   1.366   .     A
C1059  H1100   1.082   .     S
C1060  H1101   1.082   .     S
C1060  N1107   1.366   .     A
C1060  C665    1.416   1_565 S
C1061  N1108   1.366   .     A
C1061  H1102   1.082   .     S
C1062  N1107   1.366   .     A
C1062  H1103   1.082   .     S
C1062  C663    1.416   1_565 S
C1063  O1120   1.287   .     A
C1063  C1069   1.440   .     S
C1063  O1117   1.287   .     A
C1064  C1067   1.440   .     S
C1064  O1119   1.287   .     A
C1064  O1118   1.287   .     A
C1065  C1076   1.383   .     A
C1065  C1067   1.399   .     A
C1065  H1104   1.085   .     S
C1066  H1105   1.085   .     S
C1066  C1077   1.383   .     A
C1066  C1069   1.399   .     A
C1067  C1070   1.399   .     A
C1068  O1114   1.278   .     A
C1068  O1115   1.278   .     A
C1068  C1086   1.410   .     S
C1069  C1071   1.399   .     A
C1070  H1087   1.085   .     S
C1070  C1072   1.383   .     A
C1071  C1073   1.383   .     A
C1071  H1098   1.085   .     S
C1072  C1074   1.411   .     A
C1072  C1078   1.400   .     A
C1073  C1080   1.400   .     A
C1073  C1075   1.411   .     A
C1074  C1076   1.411   .     A
C1074  C481    1.391   1_556 S
C1075  C1077   1.411   .     A
C1076  C1081   1.400   .     A
C1077  C1079   1.400   .     A
C1078  H1106   1.084   .     S
C1078  C485    1.389   1_556 S
C1079  H1089   1.084   .     S
C1080  H1088   1.084   .     S
C1081  H1090   1.084   .     S
C1081  C486    1.389   1_556 S
C1082  N1109   1.438   .     S
C1083  N1110   1.438   .     S
C1083  C1086   1.401   .     A
C1083  C1151   1.388   .     S
C1084  C1086   1.401   .     A
C1084  N1111   1.437   .     S
C1084  C1148   1.388   .     S
C1085  N1112   1.437   .     S
H1091  N1109   1.045   .     S
H1092  N1109   1.045   .     S
H1093  N1110   1.045   .     S
H1094  N1110   1.045   .     S
H1095  N1111   1.045   .     S
H1096  N1111   1.045   .     S
H1097  N1112   1.045   .     S
H1099  N1112   1.045   .     S
N1107  Zn1121  2.007   .     S
N1108  Zn1122  2.007   .     S
O1113  Zn1121  1.989   .     S
O1114  Zn1122  1.989   .     S
O1115  Zn1121  1.988   .     S
O1116  Zn1122  1.988   .     S
O1117  Zn1121  2.020   .     S
O1118  Zn1122  2.020   .     S
O1119  Zn1121  2.019   .     S
O1120  Zn1122  2.019   .     S
C1123  O1179   1.278   .     A
C1123  C1124   1.410   .     S
C1123  O1182   1.278   .     A
C1124  C1148   1.401   .     A
C1124  C1151   1.401   .     A
C1125  N1174   1.366   .     A
C1125  H1166   1.082   .     S
C1126  H1167   1.082   .     S
C1126  N1173   1.366   .     A
C1126  C731    1.416   1_565 S
C1127  N1174   1.366   .     A
C1127  H1168   1.082   .     S
C1128  N1173   1.366   .     A
C1128  H1169   1.082   .     S
C1128  C729    1.416   1_565 S
C1129  O1186   1.287   .     A
C1129  C1135   1.440   .     S
C1129  O1183   1.287   .     A
C1130  C1133   1.440   .     S
C1130  O1185   1.287   .     A
C1130  O1184   1.287   .     A
C1131  C1142   1.383   .     A
C1131  C1133   1.399   .     A
C1131  H1170   1.085   .     S
C1132  H1171   1.085   .     S
C1132  C1143   1.383   .     A
C1132  C1135   1.399   .     A
C1133  C1136   1.399   .     A
C1134  O1180   1.278   .     A
C1134  O1181   1.278   .     A
C1134  C1152   1.410   .     S
C1135  C1137   1.399   .     A
C1136  H1153   1.085   .     S
C1136  C1138   1.383   .     A
C1137  C1139   1.383   .     A
C1137  H1164   1.085   .     S
C1138  C1140   1.411   .     A
C1138  C1144   1.400   .     A
C1139  C1146   1.400   .     A
C1139  C1141   1.411   .     A
C1140  C1142   1.411   .     A
C1140  C547    1.391   1_556 S
C1141  C1143   1.411   .     A
C1142  C1147   1.400   .     A
C1143  C1145   1.400   .     A
C1144  H1172   1.084   .     S
C1144  C551    1.389   1_556 S
C1145  H1155   1.084   .     S
C1146  H1154   1.084   .     S
C1147  H1156   1.084   .     S
C1147  C552    1.389   1_556 S
C1148  N1175   1.438   .     S
C1149  N1176   1.438   .     S
C1149  C1152   1.401   .     A
C1149  C1019   1.388   1_655 S
C1150  C1152   1.401   .     A
C1150  N1177   1.437   .     S
C1150  C1016   1.388   1_655 S
C1151  N1178   1.437   .     S
H1157  N1175   1.045   .     S
H1158  N1175   1.045   .     S
H1159  N1176   1.045   .     S
H1160  N1176   1.045   .     S
H1161  N1177   1.045   .     S
H1162  N1177   1.045   .     S
H1163  N1178   1.045   .     S
H1165  N1178   1.045   .     S
N1173  Zn1187  2.007   .     S
N1174  Zn1188  2.007   .     S
O1179  Zn1187  1.989   .     S
O1180  Zn1188  1.989   .     S
O1181  Zn1187  1.988   .     S
O1182  Zn1188  1.988   .     S
O1183  Zn1187  2.020   .     S
O1184  Zn1188  2.020   .     S
O1185  Zn1187  2.019   .     S
O1186  Zn1188  2.019   .     S
