data_str_m1_o10_o16_pcu_sym.96
_audit_creation_date              2020-01-03
_audit_creation_method            'Materials Studio'
_symmetry_space_group_name_H-M    'P1'
_symmetry_Int_Tables_number       1
_symmetry_cell_setting            triclinic
loop_
_symmetry_equiv_pos_as_xyz
  x,y,z
_cell_length_a                    32.5400
_cell_length_b                    32.5110
_cell_length_c                    31.0941
_cell_angle_alpha                 96.0469
_cell_angle_beta                  74.4560
_cell_angle_gamma                 98.4288
loop_
_atom_site_label
_atom_site_type_symbol
_atom_site_fract_x
_atom_site_fract_y
_atom_site_fract_z
_atom_site_U_iso_or_equiv
_atom_site_adp_type
_atom_site_occupancy
Zn1    Zn    0.19338   0.13994   0.28734   0.00000  Uiso   1.00
Zn2    Zn    0.13379   0.12458   0.21876   0.00000  Uiso   1.00
Zn3    Zn    0.21056   0.19775   0.20657   0.00000  Uiso   1.00
Zn4    Zn    0.12893   0.20439   0.28734   0.00000  Uiso   1.00
O5     O     0.16667   0.16667   0.25000   0.00000  Uiso   1.00
O6     O     0.07071   0.18878   0.28213   0.00000  Uiso   1.00
O7     O     0.25491   0.15226   0.27014   0.00000  Uiso   1.00
O8     O     0.13760   0.06944   0.23413   0.00000  Uiso   1.00
O9     O     0.20345   0.25620   0.21361   0.00000  Uiso   1.00
O10    O     0.15451   0.12637   0.15459   0.00000  Uiso   1.00
O11    O     0.12940   0.20391   0.34968   0.00000  Uiso   1.00
O12    O     0.20824   0.17759   0.14606   0.00000  Uiso   1.00
O13    O     0.17451   0.15880   0.34968   0.00000  Uiso   1.00
O14    O     0.17930   0.08019   0.28214   0.00000  Uiso   1.00
O15    O     0.14632   0.26085   0.27014   0.00000  Uiso   1.00
O16    O     0.07412   0.13291   0.23413   0.00000  Uiso   1.00
O17    O     0.26693   0.19272   0.21361   0.00000  Uiso   1.00
C18    C     0.05279   0.15978   0.25999   0.00000  Uiso   1.00
C19    C     0.28086   0.17385   0.23993   0.00000  Uiso   1.00
C20    C     0.15633   0.05590   0.26015   0.00000  Uiso   1.00
C21    C     0.17666   0.27796   0.24009   0.00000  Uiso   1.00
C22    C     0.18563   0.14841   0.12936   0.00000  Uiso   1.00
C23    C     0.14898   0.18498   0.37086   0.00000  Uiso   1.00
C24    C     0.24997   0.14249   0.01128   0.00000  Uiso   1.00
H25    H     0.26000   0.13016   0.07362   0.00000  Uiso   1.00
H26    H     0.27035   0.16252   0.42755   0.00000  Uiso   1.00
H27    H     0.28284   0.13868   0.49330   0.00000  Uiso   1.00
C28    C     0.19510   0.14290   0.08095   0.00000  Uiso   1.00
C29    C     0.09622   0.19697   0.44306   0.00000  Uiso   1.00
C30    C     0.08103   0.19352   0.48918   0.00000  Uiso   1.00
C31    C     0.10794   0.18104   0.01253   0.00000  Uiso   1.00
C32    C     0.15069   0.17360   0.49079   0.00000  Uiso   1.00
C33    C     0.16638   0.18005   0.44441   0.00000  Uiso   1.00
C34    C     0.17858   0.16023   0.01357   0.00000  Uiso   1.00
C35    C     0.22171   0.15515   0.48979   0.00000  Uiso   1.00
C36    C     0.23705   0.16460   0.44530   0.00000  Uiso   1.00
C37    C     0.21019   0.17777   0.42326   0.00000  Uiso   1.00
C38    C     0.16573   0.15288   0.05949   0.00000  Uiso   1.00
C39    C     0.23691   0.13707   0.05678   0.00000  Uiso   1.00
C40    C     0.13801   0.18910   0.42021   0.00000  Uiso   1.00
H41    H     0.13423   0.15736   0.08033   0.00000  Uiso   1.00
H42    H     0.07468   0.20419   0.42449   0.00000  Uiso   1.00
H43    H     0.09460   0.17778   0.04774   0.00000  Uiso   1.00
H44    H     0.22469   0.18697   0.38960   0.00000  Uiso   1.00
C45    C     0.32679   0.17646   0.23563   0.00000  Uiso   1.00
H46    H     0.01597   0.19378   0.20920   0.00000  Uiso   1.00
C47    C     0.00746   0.15755   0.26409   0.00000  Uiso   1.00
H48    H     0.31892   0.14044   0.29103   0.00000  Uiso   1.00
C49    C     0.18058   0.32255   0.23619   0.00000  Uiso   1.00
H50    H     0.20673   0.00379   0.21052   0.00000  Uiso   1.00
C51    C     0.15224   0.01178   0.26401   0.00000  Uiso   1.00
H52    H     0.12585   0.33132   0.28992   0.00000  Uiso   1.00
N53    N     0.03776   0.20132   0.01206   0.00000  Uiso   1.00
O54    O     0.01294   0.21330   0.49044   0.00000  Uiso   1.00
O55    O     0.02286   0.19693   0.05481   0.00000  Uiso   1.00
Zn56   Zn    0.52672   0.13994   0.28734   0.00000  Uiso   1.00
Zn57   Zn    0.46713   0.12458   0.21876   0.00000  Uiso   1.00
Zn58   Zn    0.54389   0.19775   0.20657   0.00000  Uiso   1.00
Zn59   Zn    0.46226   0.20439   0.28734   0.00000  Uiso   1.00
O60    O     0.50000   0.16667   0.25000   0.00000  Uiso   1.00
O61    O     0.40405   0.18878   0.28213   0.00000  Uiso   1.00
O62    O     0.58824   0.15226   0.27014   0.00000  Uiso   1.00
O63    O     0.47093   0.06944   0.23413   0.00000  Uiso   1.00
O64    O     0.53678   0.25620   0.21361   0.00000  Uiso   1.00
O65    O     0.48784   0.12637   0.15459   0.00000  Uiso   1.00
O66    O     0.46274   0.20391   0.34968   0.00000  Uiso   1.00
O67    O     0.54157   0.17759   0.14606   0.00000  Uiso   1.00
O68    O     0.50785   0.15880   0.34968   0.00000  Uiso   1.00
O69    O     0.51264   0.08019   0.28214   0.00000  Uiso   1.00
O70    O     0.47965   0.26085   0.27014   0.00000  Uiso   1.00
O71    O     0.40745   0.13291   0.23413   0.00000  Uiso   1.00
O72    O     0.60026   0.19272   0.21361   0.00000  Uiso   1.00
C73    C     0.38612   0.15978   0.25999   0.00000  Uiso   1.00
C74    C     0.61419   0.17385   0.23993   0.00000  Uiso   1.00
C75    C     0.48966   0.05590   0.26015   0.00000  Uiso   1.00
C76    C     0.51000   0.27796   0.24009   0.00000  Uiso   1.00
C77    C     0.51896   0.14841   0.12936   0.00000  Uiso   1.00
C78    C     0.48231   0.18498   0.37086   0.00000  Uiso   1.00
C79    C     0.58331   0.14249   0.01128   0.00000  Uiso   1.00
H80    H     0.59333   0.13016   0.07362   0.00000  Uiso   1.00
H81    H     0.60369   0.16252   0.42755   0.00000  Uiso   1.00
H82    H     0.61617   0.13868   0.49330   0.00000  Uiso   1.00
C83    C     0.52843   0.14290   0.08095   0.00000  Uiso   1.00
C84    C     0.42955   0.19697   0.44306   0.00000  Uiso   1.00
C85    C     0.41436   0.19352   0.48918   0.00000  Uiso   1.00
C86    C     0.44127   0.18104   0.01253   0.00000  Uiso   1.00
C87    C     0.48403   0.17360   0.49079   0.00000  Uiso   1.00
C88    C     0.49972   0.18005   0.44441   0.00000  Uiso   1.00
C89    C     0.51191   0.16023   0.01357   0.00000  Uiso   1.00
C90    C     0.55504   0.15515   0.48979   0.00000  Uiso   1.00
C91    C     0.57039   0.16460   0.44530   0.00000  Uiso   1.00
C92    C     0.54353   0.17777   0.42326   0.00000  Uiso   1.00
C93    C     0.49906   0.15288   0.05949   0.00000  Uiso   1.00
C94    C     0.57024   0.13707   0.05678   0.00000  Uiso   1.00
C95    C     0.47135   0.18910   0.42021   0.00000  Uiso   1.00
H96    H     0.46757   0.15736   0.08033   0.00000  Uiso   1.00
H97    H     0.40802   0.20419   0.42449   0.00000  Uiso   1.00
H98    H     0.42794   0.17778   0.04774   0.00000  Uiso   1.00
H99    H     0.55803   0.18697   0.38960   0.00000  Uiso   1.00
C100   C     0.66013   0.17646   0.23563   0.00000  Uiso   1.00
H101   H     0.34930   0.19378   0.20920   0.00000  Uiso   1.00
C102   C     0.34079   0.15755   0.26409   0.00000  Uiso   1.00
H103   H     0.65225   0.14044   0.29103   0.00000  Uiso   1.00
C104   C     0.51391   0.32255   0.23619   0.00000  Uiso   1.00
H105   H     0.54006   0.00379   0.21052   0.00000  Uiso   1.00
C106   C     0.48557   0.01178   0.26401   0.00000  Uiso   1.00
H107   H     0.45918   0.33132   0.28992   0.00000  Uiso   1.00
N108   N     0.37110   0.20132   0.01206   0.00000  Uiso   1.00
O109   O     0.34627   0.21330   0.49044   0.00000  Uiso   1.00
O110   O     0.35619   0.19693   0.05481   0.00000  Uiso   1.00
Zn111  Zn    0.86005   0.13994   0.28734   0.00000  Uiso   1.00
Zn112  Zn    0.80046   0.12458   0.21876   0.00000  Uiso   1.00
Zn113  Zn    0.87723   0.19775   0.20657   0.00000  Uiso   1.00
Zn114  Zn    0.79560   0.20439   0.28734   0.00000  Uiso   1.00
O115   O     0.83333   0.16667   0.25000   0.00000  Uiso   1.00
O116   O     0.73738   0.18878   0.28213   0.00000  Uiso   1.00
O117   O     0.92158   0.15226   0.27014   0.00000  Uiso   1.00
O118   O     0.80426   0.06944   0.23413   0.00000  Uiso   1.00
O119   O     0.87012   0.25620   0.21361   0.00000  Uiso   1.00
O120   O     0.82118   0.12637   0.15459   0.00000  Uiso   1.00
O121   O     0.79607   0.20391   0.34968   0.00000  Uiso   1.00
O122   O     0.87491   0.17759   0.14606   0.00000  Uiso   1.00
O123   O     0.84118   0.15880   0.34968   0.00000  Uiso   1.00
O124   O     0.84597   0.08019   0.28214   0.00000  Uiso   1.00
O125   O     0.81298   0.26085   0.27014   0.00000  Uiso   1.00
O126   O     0.74078   0.13291   0.23413   0.00000  Uiso   1.00
O127   O     0.93360   0.19272   0.21361   0.00000  Uiso   1.00
C128   C     0.71946   0.15978   0.25999   0.00000  Uiso   1.00
C129   C     0.94753   0.17385   0.23993   0.00000  Uiso   1.00
C130   C     0.82299   0.05590   0.26015   0.00000  Uiso   1.00
C131   C     0.84333   0.27796   0.24009   0.00000  Uiso   1.00
C132   C     0.85230   0.14841   0.12936   0.00000  Uiso   1.00
C133   C     0.81564   0.18498   0.37086   0.00000  Uiso   1.00
C134   C     0.91664   0.14249   0.01128   0.00000  Uiso   1.00
H135   H     0.92667   0.13016   0.07362   0.00000  Uiso   1.00
H136   H     0.93702   0.16252   0.42755   0.00000  Uiso   1.00
H137   H     0.94950   0.13868   0.49330   0.00000  Uiso   1.00
C138   C     0.86176   0.14290   0.08095   0.00000  Uiso   1.00
C139   C     0.76289   0.19697   0.44306   0.00000  Uiso   1.00
C140   C     0.74769   0.19352   0.48918   0.00000  Uiso   1.00
C141   C     0.77460   0.18104   0.01253   0.00000  Uiso   1.00
C142   C     0.81736   0.17360   0.49079   0.00000  Uiso   1.00
C143   C     0.83305   0.18005   0.44441   0.00000  Uiso   1.00
C144   C     0.84525   0.16023   0.01357   0.00000  Uiso   1.00
C145   C     0.88837   0.15515   0.48979   0.00000  Uiso   1.00
C146   C     0.90372   0.16460   0.44530   0.00000  Uiso   1.00
C147   C     0.87686   0.17777   0.42326   0.00000  Uiso   1.00
C148   C     0.83239   0.15288   0.05949   0.00000  Uiso   1.00
C149   C     0.90358   0.13707   0.05678   0.00000  Uiso   1.00
C150   C     0.80468   0.18910   0.42021   0.00000  Uiso   1.00
H151   H     0.80090   0.15736   0.08033   0.00000  Uiso   1.00
H152   H     0.74135   0.20419   0.42449   0.00000  Uiso   1.00
H153   H     0.76127   0.17778   0.04774   0.00000  Uiso   1.00
H154   H     0.89136   0.18697   0.38960   0.00000  Uiso   1.00
C155   C     0.99346   0.17646   0.23563   0.00000  Uiso   1.00
H156   H     0.68264   0.19378   0.20920   0.00000  Uiso   1.00
C157   C     0.67413   0.15755   0.26409   0.00000  Uiso   1.00
H158   H     0.98559   0.14044   0.29103   0.00000  Uiso   1.00
C159   C     0.84725   0.32255   0.23619   0.00000  Uiso   1.00
H160   H     0.87339   0.00379   0.21052   0.00000  Uiso   1.00
C161   C     0.81891   0.01178   0.26401   0.00000  Uiso   1.00
H162   H     0.79251   0.33132   0.28992   0.00000  Uiso   1.00
N163   N     0.70443   0.20132   0.01206   0.00000  Uiso   1.00
O164   O     0.67961   0.21330   0.49044   0.00000  Uiso   1.00
O165   O     0.68953   0.19693   0.05481   0.00000  Uiso   1.00
Zn166  Zn    0.19338   0.47327   0.28734   0.00000  Uiso   1.00
Zn167  Zn    0.13379   0.45791   0.21876   0.00000  Uiso   1.00
Zn168  Zn    0.21056   0.53109   0.20657   0.00000  Uiso   1.00
Zn169  Zn    0.12893   0.53773   0.28734   0.00000  Uiso   1.00
O170   O     0.16667   0.50000   0.25000   0.00000  Uiso   1.00
O171   O     0.07071   0.52211   0.28213   0.00000  Uiso   1.00
O172   O     0.25491   0.48559   0.27014   0.00000  Uiso   1.00
O173   O     0.13760   0.40277   0.23413   0.00000  Uiso   1.00
O174   O     0.20345   0.58953   0.21361   0.00000  Uiso   1.00
O175   O     0.15451   0.45970   0.15459   0.00000  Uiso   1.00
O176   O     0.12940   0.53724   0.34968   0.00000  Uiso   1.00
O177   O     0.20824   0.51092   0.14606   0.00000  Uiso   1.00
O178   O     0.17451   0.49213   0.34968   0.00000  Uiso   1.00
O179   O     0.17930   0.41352   0.28214   0.00000  Uiso   1.00
O180   O     0.14632   0.59418   0.27014   0.00000  Uiso   1.00
O181   O     0.07412   0.46625   0.23413   0.00000  Uiso   1.00
O182   O     0.26693   0.52605   0.21361   0.00000  Uiso   1.00
C183   C     0.05279   0.49312   0.25999   0.00000  Uiso   1.00
C184   C     0.28086   0.50718   0.23993   0.00000  Uiso   1.00
C185   C     0.15633   0.38923   0.26015   0.00000  Uiso   1.00
C186   C     0.17666   0.61129   0.24009   0.00000  Uiso   1.00
C187   C     0.18563   0.48174   0.12936   0.00000  Uiso   1.00
C188   C     0.14898   0.51832   0.37086   0.00000  Uiso   1.00
C189   C     0.24997   0.47583   0.01128   0.00000  Uiso   1.00
H190   H     0.26000   0.46349   0.07362   0.00000  Uiso   1.00
H191   H     0.27035   0.49586   0.42755   0.00000  Uiso   1.00
H192   H     0.28284   0.47201   0.49330   0.00000  Uiso   1.00
C193   C     0.19510   0.47624   0.08095   0.00000  Uiso   1.00
C194   C     0.09622   0.53030   0.44306   0.00000  Uiso   1.00
C195   C     0.08103   0.52685   0.48918   0.00000  Uiso   1.00
C196   C     0.10794   0.51437   0.01253   0.00000  Uiso   1.00
C197   C     0.15069   0.50693   0.49079   0.00000  Uiso   1.00
C198   C     0.16638   0.51339   0.44441   0.00000  Uiso   1.00
C199   C     0.17858   0.49356   0.01357   0.00000  Uiso   1.00
C200   C     0.22171   0.48848   0.48979   0.00000  Uiso   1.00
C201   C     0.23705   0.49794   0.44530   0.00000  Uiso   1.00
C202   C     0.21019   0.51110   0.42326   0.00000  Uiso   1.00
C203   C     0.16573   0.48621   0.05949   0.00000  Uiso   1.00
C204   C     0.23691   0.47041   0.05678   0.00000  Uiso   1.00
C205   C     0.13801   0.52244   0.42021   0.00000  Uiso   1.00
H206   H     0.13423   0.49069   0.08033   0.00000  Uiso   1.00
H207   H     0.07468   0.53752   0.42449   0.00000  Uiso   1.00
H208   H     0.09460   0.51111   0.04774   0.00000  Uiso   1.00
H209   H     0.22469   0.52030   0.38960   0.00000  Uiso   1.00
C210   C     0.32679   0.50980   0.23563   0.00000  Uiso   1.00
H211   H     0.01597   0.52711   0.20920   0.00000  Uiso   1.00
C212   C     0.00746   0.49088   0.26409   0.00000  Uiso   1.00
H213   H     0.31892   0.47377   0.29103   0.00000  Uiso   1.00
C214   C     0.18058   0.65588   0.23619   0.00000  Uiso   1.00
H215   H     0.20673   0.33712   0.21052   0.00000  Uiso   1.00
C216   C     0.15224   0.34512   0.26401   0.00000  Uiso   1.00
H217   H     0.12585   0.66466   0.28992   0.00000  Uiso   1.00
N218   N     0.03776   0.53465   0.01206   0.00000  Uiso   1.00
O219   O     0.01294   0.54663   0.49044   0.00000  Uiso   1.00
O220   O     0.02286   0.53026   0.05481   0.00000  Uiso   1.00
Zn221  Zn    0.52672   0.47327   0.28734   0.00000  Uiso   1.00
Zn222  Zn    0.46713   0.45791   0.21876   0.00000  Uiso   1.00
Zn223  Zn    0.54389   0.53109   0.20657   0.00000  Uiso   1.00
Zn224  Zn    0.46226   0.53773   0.28734   0.00000  Uiso   1.00
O225   O     0.50000   0.50000   0.25000   0.00000  Uiso   1.00
O226   O     0.40405   0.52211   0.28213   0.00000  Uiso   1.00
O227   O     0.58824   0.48559   0.27014   0.00000  Uiso   1.00
O228   O     0.47093   0.40277   0.23413   0.00000  Uiso   1.00
O229   O     0.53678   0.58953   0.21361   0.00000  Uiso   1.00
O230   O     0.48784   0.45970   0.15459   0.00000  Uiso   1.00
O231   O     0.46274   0.53724   0.34968   0.00000  Uiso   1.00
O232   O     0.54157   0.51092   0.14606   0.00000  Uiso   1.00
O233   O     0.50785   0.49213   0.34968   0.00000  Uiso   1.00
O234   O     0.51264   0.41352   0.28214   0.00000  Uiso   1.00
O235   O     0.47965   0.59418   0.27014   0.00000  Uiso   1.00
O236   O     0.40745   0.46625   0.23413   0.00000  Uiso   1.00
O237   O     0.60026   0.52605   0.21361   0.00000  Uiso   1.00
C238   C     0.38612   0.49312   0.25999   0.00000  Uiso   1.00
C239   C     0.61419   0.50718   0.23993   0.00000  Uiso   1.00
C240   C     0.48966   0.38923   0.26015   0.00000  Uiso   1.00
C241   C     0.51000   0.61129   0.24009   0.00000  Uiso   1.00
C242   C     0.51896   0.48174   0.12936   0.00000  Uiso   1.00
C243   C     0.48231   0.51832   0.37086   0.00000  Uiso   1.00
C244   C     0.58331   0.47583   0.01128   0.00000  Uiso   1.00
H245   H     0.59333   0.46349   0.07362   0.00000  Uiso   1.00
H246   H     0.60369   0.49586   0.42755   0.00000  Uiso   1.00
H247   H     0.61617   0.47201   0.49330   0.00000  Uiso   1.00
C248   C     0.52843   0.47624   0.08095   0.00000  Uiso   1.00
C249   C     0.42955   0.53030   0.44306   0.00000  Uiso   1.00
C250   C     0.41436   0.52685   0.48918   0.00000  Uiso   1.00
C251   C     0.44127   0.51437   0.01253   0.00000  Uiso   1.00
C252   C     0.48403   0.50693   0.49079   0.00000  Uiso   1.00
C253   C     0.49972   0.51339   0.44441   0.00000  Uiso   1.00
C254   C     0.51191   0.49356   0.01357   0.00000  Uiso   1.00
C255   C     0.55504   0.48848   0.48979   0.00000  Uiso   1.00
C256   C     0.57039   0.49794   0.44530   0.00000  Uiso   1.00
C257   C     0.54353   0.51110   0.42326   0.00000  Uiso   1.00
C258   C     0.49906   0.48621   0.05949   0.00000  Uiso   1.00
C259   C     0.57024   0.47041   0.05678   0.00000  Uiso   1.00
C260   C     0.47135   0.52244   0.42021   0.00000  Uiso   1.00
H261   H     0.46757   0.49069   0.08033   0.00000  Uiso   1.00
H262   H     0.40802   0.53752   0.42449   0.00000  Uiso   1.00
H263   H     0.42794   0.51111   0.04774   0.00000  Uiso   1.00
H264   H     0.55803   0.52030   0.38960   0.00000  Uiso   1.00
C265   C     0.66013   0.50980   0.23563   0.00000  Uiso   1.00
H266   H     0.34930   0.52711   0.20920   0.00000  Uiso   1.00
C267   C     0.34079   0.49088   0.26409   0.00000  Uiso   1.00
H268   H     0.65225   0.47377   0.29103   0.00000  Uiso   1.00
C269   C     0.51391   0.65588   0.23619   0.00000  Uiso   1.00
H270   H     0.54006   0.33712   0.21052   0.00000  Uiso   1.00
C271   C     0.48557   0.34512   0.26401   0.00000  Uiso   1.00
H272   H     0.45918   0.66466   0.28992   0.00000  Uiso   1.00
N273   N     0.37110   0.53465   0.01206   0.00000  Uiso   1.00
O274   O     0.34627   0.54663   0.49044   0.00000  Uiso   1.00
O275   O     0.35619   0.53026   0.05481   0.00000  Uiso   1.00
Zn276  Zn    0.86005   0.47327   0.28734   0.00000  Uiso   1.00
Zn277  Zn    0.80046   0.45791   0.21876   0.00000  Uiso   1.00
Zn278  Zn    0.87723   0.53109   0.20657   0.00000  Uiso   1.00
Zn279  Zn    0.79560   0.53773   0.28734   0.00000  Uiso   1.00
O280   O     0.83333   0.50000   0.25000   0.00000  Uiso   1.00
O281   O     0.73738   0.52211   0.28213   0.00000  Uiso   1.00
O282   O     0.92158   0.48559   0.27014   0.00000  Uiso   1.00
O283   O     0.80426   0.40277   0.23413   0.00000  Uiso   1.00
O284   O     0.87012   0.58953   0.21361   0.00000  Uiso   1.00
O285   O     0.82118   0.45970   0.15459   0.00000  Uiso   1.00
O286   O     0.79607   0.53724   0.34968   0.00000  Uiso   1.00
O287   O     0.87491   0.51092   0.14606   0.00000  Uiso   1.00
O288   O     0.84118   0.49213   0.34968   0.00000  Uiso   1.00
O289   O     0.84597   0.41352   0.28214   0.00000  Uiso   1.00
O290   O     0.81298   0.59418   0.27014   0.00000  Uiso   1.00
O291   O     0.74078   0.46625   0.23413   0.00000  Uiso   1.00
O292   O     0.93360   0.52605   0.21361   0.00000  Uiso   1.00
C293   C     0.71946   0.49312   0.25999   0.00000  Uiso   1.00
C294   C     0.94753   0.50718   0.23993   0.00000  Uiso   1.00
C295   C     0.82299   0.38923   0.26015   0.00000  Uiso   1.00
C296   C     0.84333   0.61129   0.24009   0.00000  Uiso   1.00
C297   C     0.85230   0.48174   0.12936   0.00000  Uiso   1.00
C298   C     0.81564   0.51832   0.37086   0.00000  Uiso   1.00
C299   C     0.91664   0.47583   0.01128   0.00000  Uiso   1.00
H300   H     0.92667   0.46349   0.07362   0.00000  Uiso   1.00
H301   H     0.93702   0.49586   0.42755   0.00000  Uiso   1.00
H302   H     0.94950   0.47201   0.49330   0.00000  Uiso   1.00
C303   C     0.86176   0.47624   0.08095   0.00000  Uiso   1.00
C304   C     0.76289   0.53030   0.44306   0.00000  Uiso   1.00
C305   C     0.74769   0.52685   0.48918   0.00000  Uiso   1.00
C306   C     0.77460   0.51437   0.01253   0.00000  Uiso   1.00
C307   C     0.81736   0.50693   0.49079   0.00000  Uiso   1.00
C308   C     0.83305   0.51339   0.44441   0.00000  Uiso   1.00
C309   C     0.84525   0.49356   0.01357   0.00000  Uiso   1.00
C310   C     0.88837   0.48848   0.48979   0.00000  Uiso   1.00
C311   C     0.90372   0.49794   0.44530   0.00000  Uiso   1.00
C312   C     0.87686   0.51110   0.42326   0.00000  Uiso   1.00
C313   C     0.83239   0.48621   0.05949   0.00000  Uiso   1.00
C314   C     0.90358   0.47041   0.05678   0.00000  Uiso   1.00
C315   C     0.80468   0.52244   0.42021   0.00000  Uiso   1.00
H316   H     0.80090   0.49069   0.08033   0.00000  Uiso   1.00
H317   H     0.74135   0.53752   0.42449   0.00000  Uiso   1.00
H318   H     0.76127   0.51111   0.04774   0.00000  Uiso   1.00
H319   H     0.89136   0.52030   0.38960   0.00000  Uiso   1.00
C320   C     0.99346   0.50980   0.23563   0.00000  Uiso   1.00
H321   H     0.68264   0.52711   0.20920   0.00000  Uiso   1.00
C322   C     0.67413   0.49088   0.26409   0.00000  Uiso   1.00
H323   H     0.98559   0.47377   0.29103   0.00000  Uiso   1.00
C324   C     0.84725   0.65588   0.23619   0.00000  Uiso   1.00
H325   H     0.87339   0.33712   0.21052   0.00000  Uiso   1.00
C326   C     0.81891   0.34512   0.26401   0.00000  Uiso   1.00
H327   H     0.79251   0.66466   0.28992   0.00000  Uiso   1.00
N328   N     0.70443   0.53465   0.01206   0.00000  Uiso   1.00
O329   O     0.67961   0.54663   0.49044   0.00000  Uiso   1.00
O330   O     0.68953   0.53026   0.05481   0.00000  Uiso   1.00
Zn331  Zn    0.19338   0.80661   0.28734   0.00000  Uiso   1.00
Zn332  Zn    0.13379   0.79124   0.21876   0.00000  Uiso   1.00
Zn333  Zn    0.21056   0.86442   0.20657   0.00000  Uiso   1.00
Zn334  Zn    0.12893   0.87106   0.28734   0.00000  Uiso   1.00
O335   O     0.16667   0.83333   0.25000   0.00000  Uiso   1.00
O336   O     0.07071   0.85544   0.28213   0.00000  Uiso   1.00
O337   O     0.25491   0.81892   0.27014   0.00000  Uiso   1.00
O338   O     0.13760   0.73610   0.23413   0.00000  Uiso   1.00
O339   O     0.20345   0.92286   0.21361   0.00000  Uiso   1.00
O340   O     0.15451   0.79304   0.15459   0.00000  Uiso   1.00
O341   O     0.12940   0.87058   0.34968   0.00000  Uiso   1.00
O342   O     0.20824   0.84425   0.14606   0.00000  Uiso   1.00
O343   O     0.17451   0.82546   0.34968   0.00000  Uiso   1.00
O344   O     0.17930   0.74686   0.28214   0.00000  Uiso   1.00
O345   O     0.14632   0.92751   0.27014   0.00000  Uiso   1.00
O346   O     0.07412   0.79958   0.23413   0.00000  Uiso   1.00
O347   O     0.26693   0.85939   0.21361   0.00000  Uiso   1.00
C348   C     0.05279   0.82645   0.25999   0.00000  Uiso   1.00
C349   C     0.28086   0.84051   0.23993   0.00000  Uiso   1.00
C350   C     0.15633   0.72256   0.26015   0.00000  Uiso   1.00
C351   C     0.17666   0.94463   0.24009   0.00000  Uiso   1.00
C352   C     0.18563   0.81507   0.12936   0.00000  Uiso   1.00
C353   C     0.14898   0.85165   0.37086   0.00000  Uiso   1.00
C354   C     0.24997   0.80916   0.01128   0.00000  Uiso   1.00
H355   H     0.26000   0.79682   0.07362   0.00000  Uiso   1.00
H356   H     0.27035   0.82919   0.42755   0.00000  Uiso   1.00
H357   H     0.28284   0.80534   0.49330   0.00000  Uiso   1.00
C358   C     0.19510   0.80957   0.08095   0.00000  Uiso   1.00
C359   C     0.09622   0.86364   0.44306   0.00000  Uiso   1.00
C360   C     0.08103   0.86018   0.48918   0.00000  Uiso   1.00
C361   C     0.10794   0.84771   0.01253   0.00000  Uiso   1.00
C362   C     0.15069   0.84026   0.49079   0.00000  Uiso   1.00
C363   C     0.16638   0.84672   0.44441   0.00000  Uiso   1.00
C364   C     0.17858   0.82690   0.01357   0.00000  Uiso   1.00
C365   C     0.22171   0.82181   0.48979   0.00000  Uiso   1.00
C366   C     0.23705   0.83127   0.44530   0.00000  Uiso   1.00
C367   C     0.21019   0.84444   0.42326   0.00000  Uiso   1.00
C368   C     0.16573   0.81954   0.05949   0.00000  Uiso   1.00
C369   C     0.23691   0.80374   0.05678   0.00000  Uiso   1.00
C370   C     0.13801   0.85577   0.42021   0.00000  Uiso   1.00
H371   H     0.13423   0.82402   0.08033   0.00000  Uiso   1.00
H372   H     0.07468   0.87086   0.42449   0.00000  Uiso   1.00
H373   H     0.09460   0.84445   0.04774   0.00000  Uiso   1.00
H374   H     0.22469   0.85364   0.38960   0.00000  Uiso   1.00
C375   C     0.32679   0.84313   0.23563   0.00000  Uiso   1.00
H376   H     0.01597   0.86044   0.20920   0.00000  Uiso   1.00
C377   C     0.00746   0.82421   0.26409   0.00000  Uiso   1.00
H378   H     0.31892   0.80711   0.29103   0.00000  Uiso   1.00
C379   C     0.18058   0.98922   0.23619   0.00000  Uiso   1.00
H380   H     0.20673   0.67046   0.21052   0.00000  Uiso   1.00
C381   C     0.15224   0.67845   0.26401   0.00000  Uiso   1.00
H382   H     0.12585   0.99799   0.28992   0.00000  Uiso   1.00
N383   N     0.03776   0.86798   0.01206   0.00000  Uiso   1.00
O384   O     0.01294   0.87997   0.49044   0.00000  Uiso   1.00
O385   O     0.02286   0.86360   0.05481   0.00000  Uiso   1.00
Zn386  Zn    0.52672   0.80661   0.28734   0.00000  Uiso   1.00
Zn387  Zn    0.46713   0.79124   0.21876   0.00000  Uiso   1.00
Zn388  Zn    0.54389   0.86442   0.20657   0.00000  Uiso   1.00
Zn389  Zn    0.46226   0.87106   0.28734   0.00000  Uiso   1.00
O390   O     0.50000   0.83333   0.25000   0.00000  Uiso   1.00
O391   O     0.40405   0.85544   0.28213   0.00000  Uiso   1.00
O392   O     0.58824   0.81892   0.27014   0.00000  Uiso   1.00
O393   O     0.47093   0.73610   0.23413   0.00000  Uiso   1.00
O394   O     0.53678   0.92286   0.21361   0.00000  Uiso   1.00
O395   O     0.48784   0.79304   0.15459   0.00000  Uiso   1.00
O396   O     0.46274   0.87058   0.34968   0.00000  Uiso   1.00
O397   O     0.54157   0.84425   0.14606   0.00000  Uiso   1.00
O398   O     0.50785   0.82546   0.34968   0.00000  Uiso   1.00
O399   O     0.51264   0.74686   0.28214   0.00000  Uiso   1.00
O400   O     0.47965   0.92751   0.27014   0.00000  Uiso   1.00
O401   O     0.40745   0.79958   0.23413   0.00000  Uiso   1.00
O402   O     0.60026   0.85939   0.21361   0.00000  Uiso   1.00
C403   C     0.38612   0.82645   0.25999   0.00000  Uiso   1.00
C404   C     0.61419   0.84051   0.23993   0.00000  Uiso   1.00
C405   C     0.48966   0.72256   0.26015   0.00000  Uiso   1.00
C406   C     0.51000   0.94463   0.24009   0.00000  Uiso   1.00
C407   C     0.51896   0.81507   0.12936   0.00000  Uiso   1.00
C408   C     0.48231   0.85165   0.37086   0.00000  Uiso   1.00
C409   C     0.58331   0.80916   0.01128   0.00000  Uiso   1.00
H410   H     0.59333   0.79682   0.07362   0.00000  Uiso   1.00
H411   H     0.60369   0.82919   0.42755   0.00000  Uiso   1.00
H412   H     0.61617   0.80534   0.49330   0.00000  Uiso   1.00
C413   C     0.52843   0.80957   0.08095   0.00000  Uiso   1.00
C414   C     0.42955   0.86364   0.44306   0.00000  Uiso   1.00
C415   C     0.41436   0.86018   0.48918   0.00000  Uiso   1.00
C416   C     0.44127   0.84771   0.01253   0.00000  Uiso   1.00
C417   C     0.48403   0.84026   0.49079   0.00000  Uiso   1.00
C418   C     0.49972   0.84672   0.44441   0.00000  Uiso   1.00
C419   C     0.51191   0.82690   0.01357   0.00000  Uiso   1.00
C420   C     0.55504   0.82181   0.48979   0.00000  Uiso   1.00
C421   C     0.57039   0.83127   0.44530   0.00000  Uiso   1.00
C422   C     0.54353   0.84444   0.42326   0.00000  Uiso   1.00
C423   C     0.49906   0.81954   0.05949   0.00000  Uiso   1.00
C424   C     0.57024   0.80374   0.05678   0.00000  Uiso   1.00
C425   C     0.47135   0.85577   0.42021   0.00000  Uiso   1.00
H426   H     0.46757   0.82402   0.08033   0.00000  Uiso   1.00
H427   H     0.40802   0.87086   0.42449   0.00000  Uiso   1.00
H428   H     0.42794   0.84445   0.04774   0.00000  Uiso   1.00
H429   H     0.55803   0.85364   0.38960   0.00000  Uiso   1.00
C430   C     0.66013   0.84313   0.23563   0.00000  Uiso   1.00
H431   H     0.34930   0.86044   0.20920   0.00000  Uiso   1.00
C432   C     0.34079   0.82421   0.26409   0.00000  Uiso   1.00
H433   H     0.65225   0.80711   0.29103   0.00000  Uiso   1.00
C434   C     0.51391   0.98922   0.23619   0.00000  Uiso   1.00
H435   H     0.54006   0.67046   0.21052   0.00000  Uiso   1.00
C436   C     0.48557   0.67845   0.26401   0.00000  Uiso   1.00
H437   H     0.45918   0.99799   0.28992   0.00000  Uiso   1.00
N438   N     0.37110   0.86798   0.01206   0.00000  Uiso   1.00
O439   O     0.34627   0.87997   0.49044   0.00000  Uiso   1.00
O440   O     0.35619   0.86360   0.05481   0.00000  Uiso   1.00
Zn441  Zn    0.86005   0.80661   0.28734   0.00000  Uiso   1.00
Zn442  Zn    0.80046   0.79124   0.21876   0.00000  Uiso   1.00
Zn443  Zn    0.87723   0.86442   0.20657   0.00000  Uiso   1.00
Zn444  Zn    0.79560   0.87106   0.28734   0.00000  Uiso   1.00
O445   O     0.83333   0.83333   0.25000   0.00000  Uiso   1.00
O446   O     0.73738   0.85544   0.28213   0.00000  Uiso   1.00
O447   O     0.92158   0.81892   0.27014   0.00000  Uiso   1.00
O448   O     0.80426   0.73610   0.23413   0.00000  Uiso   1.00
O449   O     0.87012   0.92286   0.21361   0.00000  Uiso   1.00
O450   O     0.82118   0.79304   0.15459   0.00000  Uiso   1.00
O451   O     0.79607   0.87058   0.34968   0.00000  Uiso   1.00
O452   O     0.87491   0.84425   0.14606   0.00000  Uiso   1.00
O453   O     0.84118   0.82546   0.34968   0.00000  Uiso   1.00
O454   O     0.84597   0.74686   0.28214   0.00000  Uiso   1.00
O455   O     0.81298   0.92751   0.27014   0.00000  Uiso   1.00
O456   O     0.74078   0.79958   0.23413   0.00000  Uiso   1.00
O457   O     0.93360   0.85939   0.21361   0.00000  Uiso   1.00
C458   C     0.71946   0.82645   0.25999   0.00000  Uiso   1.00
C459   C     0.94753   0.84051   0.23993   0.00000  Uiso   1.00
C460   C     0.82299   0.72256   0.26015   0.00000  Uiso   1.00
C461   C     0.84333   0.94463   0.24009   0.00000  Uiso   1.00
C462   C     0.85230   0.81507   0.12936   0.00000  Uiso   1.00
C463   C     0.81564   0.85165   0.37086   0.00000  Uiso   1.00
C464   C     0.91664   0.80916   0.01128   0.00000  Uiso   1.00
H465   H     0.92667   0.79682   0.07362   0.00000  Uiso   1.00
H466   H     0.93702   0.82919   0.42755   0.00000  Uiso   1.00
H467   H     0.94950   0.80534   0.49330   0.00000  Uiso   1.00
C468   C     0.86176   0.80957   0.08095   0.00000  Uiso   1.00
C469   C     0.76289   0.86364   0.44306   0.00000  Uiso   1.00
C470   C     0.74769   0.86018   0.48918   0.00000  Uiso   1.00
C471   C     0.77460   0.84771   0.01253   0.00000  Uiso   1.00
C472   C     0.81736   0.84026   0.49079   0.00000  Uiso   1.00
C473   C     0.83305   0.84672   0.44441   0.00000  Uiso   1.00
C474   C     0.84525   0.82690   0.01357   0.00000  Uiso   1.00
C475   C     0.88837   0.82181   0.48979   0.00000  Uiso   1.00
C476   C     0.90372   0.83127   0.44530   0.00000  Uiso   1.00
C477   C     0.87686   0.84444   0.42326   0.00000  Uiso   1.00
C478   C     0.83239   0.81954   0.05949   0.00000  Uiso   1.00
C479   C     0.90358   0.80374   0.05678   0.00000  Uiso   1.00
C480   C     0.80468   0.85577   0.42021   0.00000  Uiso   1.00
H481   H     0.80090   0.82402   0.08033   0.00000  Uiso   1.00
H482   H     0.74135   0.87086   0.42449   0.00000  Uiso   1.00
H483   H     0.76127   0.84445   0.04774   0.00000  Uiso   1.00
H484   H     0.89136   0.85364   0.38960   0.00000  Uiso   1.00
C485   C     0.99346   0.84313   0.23563   0.00000  Uiso   1.00
H486   H     0.68264   0.86044   0.20920   0.00000  Uiso   1.00
C487   C     0.67413   0.82421   0.26409   0.00000  Uiso   1.00
H488   H     0.98559   0.80711   0.29103   0.00000  Uiso   1.00
C489   C     0.84725   0.98922   0.23619   0.00000  Uiso   1.00
H490   H     0.87339   0.67046   0.21052   0.00000  Uiso   1.00
C491   C     0.81891   0.67845   0.26401   0.00000  Uiso   1.00
H492   H     0.79251   0.99799   0.28992   0.00000  Uiso   1.00
N493   N     0.70443   0.86798   0.01206   0.00000  Uiso   1.00
O494   O     0.67961   0.87997   0.49044   0.00000  Uiso   1.00
O495   O     0.68953   0.86360   0.05481   0.00000  Uiso   1.00
Zn496  Zn    0.19338   0.13994   0.78734   0.00000  Uiso   1.00
Zn497  Zn    0.13379   0.12458   0.71876   0.00000  Uiso   1.00
Zn498  Zn    0.21056   0.19775   0.70657   0.00000  Uiso   1.00
Zn499  Zn    0.12893   0.20439   0.78734   0.00000  Uiso   1.00
O500   O     0.16667   0.16667   0.75000   0.00000  Uiso   1.00
O501   O     0.07071   0.18878   0.78213   0.00000  Uiso   1.00
O502   O     0.25491   0.15226   0.77014   0.00000  Uiso   1.00
O503   O     0.13760   0.06944   0.73413   0.00000  Uiso   1.00
O504   O     0.20345   0.25620   0.71361   0.00000  Uiso   1.00
O505   O     0.15451   0.12637   0.65459   0.00000  Uiso   1.00
O506   O     0.12940   0.20391   0.84968   0.00000  Uiso   1.00
O507   O     0.20824   0.17759   0.64606   0.00000  Uiso   1.00
O508   O     0.17451   0.15880   0.84968   0.00000  Uiso   1.00
O509   O     0.17930   0.08019   0.78214   0.00000  Uiso   1.00
O510   O     0.14632   0.26085   0.77014   0.00000  Uiso   1.00
O511   O     0.07412   0.13291   0.73413   0.00000  Uiso   1.00
O512   O     0.26693   0.19272   0.71361   0.00000  Uiso   1.00
C513   C     0.05279   0.15978   0.75999   0.00000  Uiso   1.00
C514   C     0.28086   0.17385   0.73993   0.00000  Uiso   1.00
C515   C     0.15633   0.05590   0.76015   0.00000  Uiso   1.00
C516   C     0.17666   0.27796   0.74009   0.00000  Uiso   1.00
C517   C     0.18563   0.14841   0.62936   0.00000  Uiso   1.00
C518   C     0.14898   0.18498   0.87086   0.00000  Uiso   1.00
C519   C     0.24997   0.14249   0.51128   0.00000  Uiso   1.00
H520   H     0.26000   0.13016   0.57362   0.00000  Uiso   1.00
H521   H     0.27035   0.16252   0.92755   0.00000  Uiso   1.00
H522   H     0.28284   0.13868   0.99330   0.00000  Uiso   1.00
C523   C     0.19510   0.14290   0.58095   0.00000  Uiso   1.00
C524   C     0.09622   0.19697   0.94306   0.00000  Uiso   1.00
C525   C     0.08103   0.19352   0.98918   0.00000  Uiso   1.00
C526   C     0.10794   0.18104   0.51253   0.00000  Uiso   1.00
C527   C     0.15069   0.17360   0.99079   0.00000  Uiso   1.00
C528   C     0.16638   0.18005   0.94441   0.00000  Uiso   1.00
C529   C     0.17858   0.16023   0.51357   0.00000  Uiso   1.00
C530   C     0.22171   0.15515   0.98979   0.00000  Uiso   1.00
C531   C     0.23705   0.16460   0.94530   0.00000  Uiso   1.00
C532   C     0.21019   0.17777   0.92326   0.00000  Uiso   1.00
C533   C     0.16573   0.15288   0.55949   0.00000  Uiso   1.00
C534   C     0.23691   0.13707   0.55678   0.00000  Uiso   1.00
C535   C     0.13801   0.18910   0.92021   0.00000  Uiso   1.00
H536   H     0.13423   0.15736   0.58033   0.00000  Uiso   1.00
H537   H     0.07468   0.20419   0.92449   0.00000  Uiso   1.00
H538   H     0.09460   0.17778   0.54774   0.00000  Uiso   1.00
H539   H     0.22469   0.18697   0.88960   0.00000  Uiso   1.00
C540   C     0.32679   0.17646   0.73563   0.00000  Uiso   1.00
H541   H     0.01597   0.19378   0.70920   0.00000  Uiso   1.00
C542   C     0.00746   0.15755   0.76409   0.00000  Uiso   1.00
H543   H     0.31892   0.14044   0.79103   0.00000  Uiso   1.00
C544   C     0.18058   0.32255   0.73619   0.00000  Uiso   1.00
H545   H     0.20673   0.00379   0.71052   0.00000  Uiso   1.00
C546   C     0.15224   0.01178   0.76401   0.00000  Uiso   1.00
H547   H     0.12585   0.33132   0.78992   0.00000  Uiso   1.00
N548   N     0.03776   0.20132   0.51206   0.00000  Uiso   1.00
O549   O     0.01294   0.21330   0.99044   0.00000  Uiso   1.00
O550   O     0.02286   0.19693   0.55481   0.00000  Uiso   1.00
Zn551  Zn    0.52672   0.13994   0.78734   0.00000  Uiso   1.00
Zn552  Zn    0.46713   0.12458   0.71876   0.00000  Uiso   1.00
Zn553  Zn    0.54389   0.19775   0.70657   0.00000  Uiso   1.00
Zn554  Zn    0.46226   0.20439   0.78734   0.00000  Uiso   1.00
O555   O     0.50000   0.16667   0.75000   0.00000  Uiso   1.00
O556   O     0.40405   0.18878   0.78213   0.00000  Uiso   1.00
O557   O     0.58824   0.15226   0.77014   0.00000  Uiso   1.00
O558   O     0.47093   0.06944   0.73413   0.00000  Uiso   1.00
O559   O     0.53678   0.25620   0.71361   0.00000  Uiso   1.00
O560   O     0.48784   0.12637   0.65459   0.00000  Uiso   1.00
O561   O     0.46274   0.20391   0.84968   0.00000  Uiso   1.00
O562   O     0.54157   0.17759   0.64606   0.00000  Uiso   1.00
O563   O     0.50785   0.15880   0.84968   0.00000  Uiso   1.00
O564   O     0.51264   0.08019   0.78214   0.00000  Uiso   1.00
O565   O     0.47965   0.26085   0.77014   0.00000  Uiso   1.00
O566   O     0.40745   0.13291   0.73413   0.00000  Uiso   1.00
O567   O     0.60026   0.19272   0.71361   0.00000  Uiso   1.00
C568   C     0.38612   0.15978   0.75999   0.00000  Uiso   1.00
C569   C     0.61419   0.17385   0.73993   0.00000  Uiso   1.00
C570   C     0.48966   0.05590   0.76015   0.00000  Uiso   1.00
C571   C     0.51000   0.27796   0.74009   0.00000  Uiso   1.00
C572   C     0.51896   0.14841   0.62936   0.00000  Uiso   1.00
C573   C     0.48231   0.18498   0.87086   0.00000  Uiso   1.00
C574   C     0.58331   0.14249   0.51128   0.00000  Uiso   1.00
H575   H     0.59333   0.13016   0.57362   0.00000  Uiso   1.00
H576   H     0.60369   0.16252   0.92755   0.00000  Uiso   1.00
H577   H     0.61617   0.13868   0.99330   0.00000  Uiso   1.00
C578   C     0.52843   0.14290   0.58095   0.00000  Uiso   1.00
C579   C     0.42955   0.19697   0.94306   0.00000  Uiso   1.00
C580   C     0.41436   0.19352   0.98918   0.00000  Uiso   1.00
C581   C     0.44127   0.18104   0.51253   0.00000  Uiso   1.00
C582   C     0.48403   0.17360   0.99079   0.00000  Uiso   1.00
C583   C     0.49972   0.18005   0.94441   0.00000  Uiso   1.00
C584   C     0.51191   0.16023   0.51357   0.00000  Uiso   1.00
C585   C     0.55504   0.15515   0.98979   0.00000  Uiso   1.00
C586   C     0.57039   0.16460   0.94530   0.00000  Uiso   1.00
C587   C     0.54353   0.17777   0.92326   0.00000  Uiso   1.00
C588   C     0.49906   0.15288   0.55949   0.00000  Uiso   1.00
C589   C     0.57024   0.13707   0.55678   0.00000  Uiso   1.00
C590   C     0.47135   0.18910   0.92021   0.00000  Uiso   1.00
H591   H     0.46757   0.15736   0.58033   0.00000  Uiso   1.00
H592   H     0.40802   0.20419   0.92449   0.00000  Uiso   1.00
H593   H     0.42794   0.17778   0.54774   0.00000  Uiso   1.00
H594   H     0.55803   0.18697   0.88960   0.00000  Uiso   1.00
C595   C     0.66013   0.17646   0.73563   0.00000  Uiso   1.00
H596   H     0.34930   0.19378   0.70920   0.00000  Uiso   1.00
C597   C     0.34079   0.15755   0.76409   0.00000  Uiso   1.00
H598   H     0.65225   0.14044   0.79103   0.00000  Uiso   1.00
C599   C     0.51391   0.32255   0.73619   0.00000  Uiso   1.00
H600   H     0.54006   0.00379   0.71052   0.00000  Uiso   1.00
C601   C     0.48557   0.01178   0.76401   0.00000  Uiso   1.00
H602   H     0.45918   0.33132   0.78992   0.00000  Uiso   1.00
N603   N     0.37110   0.20132   0.51206   0.00000  Uiso   1.00
O604   O     0.34627   0.21330   0.99044   0.00000  Uiso   1.00
O605   O     0.35619   0.19693   0.55481   0.00000  Uiso   1.00
Zn606  Zn    0.86005   0.13994   0.78734   0.00000  Uiso   1.00
Zn607  Zn    0.80046   0.12458   0.71876   0.00000  Uiso   1.00
Zn608  Zn    0.87723   0.19775   0.70657   0.00000  Uiso   1.00
Zn609  Zn    0.79560   0.20439   0.78734   0.00000  Uiso   1.00
O610   O     0.83333   0.16667   0.75000   0.00000  Uiso   1.00
O611   O     0.73738   0.18878   0.78213   0.00000  Uiso   1.00
O612   O     0.92158   0.15226   0.77014   0.00000  Uiso   1.00
O613   O     0.80426   0.06944   0.73413   0.00000  Uiso   1.00
O614   O     0.87012   0.25620   0.71361   0.00000  Uiso   1.00
O615   O     0.82118   0.12637   0.65459   0.00000  Uiso   1.00
O616   O     0.79607   0.20391   0.84968   0.00000  Uiso   1.00
O617   O     0.87491   0.17759   0.64606   0.00000  Uiso   1.00
O618   O     0.84118   0.15880   0.84968   0.00000  Uiso   1.00
O619   O     0.84597   0.08019   0.78214   0.00000  Uiso   1.00
O620   O     0.81298   0.26085   0.77014   0.00000  Uiso   1.00
O621   O     0.74078   0.13291   0.73413   0.00000  Uiso   1.00
O622   O     0.93360   0.19272   0.71361   0.00000  Uiso   1.00
C623   C     0.71946   0.15978   0.75999   0.00000  Uiso   1.00
C624   C     0.94753   0.17385   0.73993   0.00000  Uiso   1.00
C625   C     0.82299   0.05590   0.76015   0.00000  Uiso   1.00
C626   C     0.84333   0.27796   0.74009   0.00000  Uiso   1.00
C627   C     0.85230   0.14841   0.62936   0.00000  Uiso   1.00
C628   C     0.81564   0.18498   0.87086   0.00000  Uiso   1.00
C629   C     0.91664   0.14249   0.51128   0.00000  Uiso   1.00
H630   H     0.92667   0.13016   0.57362   0.00000  Uiso   1.00
H631   H     0.93702   0.16252   0.92755   0.00000  Uiso   1.00
H632   H     0.94950   0.13868   0.99330   0.00000  Uiso   1.00
C633   C     0.86176   0.14290   0.58095   0.00000  Uiso   1.00
C634   C     0.76289   0.19697   0.94306   0.00000  Uiso   1.00
C635   C     0.74769   0.19352   0.98918   0.00000  Uiso   1.00
C636   C     0.77460   0.18104   0.51253   0.00000  Uiso   1.00
C637   C     0.81736   0.17360   0.99079   0.00000  Uiso   1.00
C638   C     0.83305   0.18005   0.94441   0.00000  Uiso   1.00
C639   C     0.84525   0.16023   0.51357   0.00000  Uiso   1.00
C640   C     0.88837   0.15515   0.98979   0.00000  Uiso   1.00
C641   C     0.90372   0.16460   0.94530   0.00000  Uiso   1.00
C642   C     0.87686   0.17777   0.92326   0.00000  Uiso   1.00
C643   C     0.83239   0.15288   0.55949   0.00000  Uiso   1.00
C644   C     0.90358   0.13707   0.55678   0.00000  Uiso   1.00
C645   C     0.80468   0.18910   0.92021   0.00000  Uiso   1.00
H646   H     0.80090   0.15736   0.58033   0.00000  Uiso   1.00
H647   H     0.74135   0.20419   0.92449   0.00000  Uiso   1.00
H648   H     0.76127   0.17778   0.54774   0.00000  Uiso   1.00
H649   H     0.89136   0.18697   0.88960   0.00000  Uiso   1.00
C650   C     0.99346   0.17646   0.73563   0.00000  Uiso   1.00
H651   H     0.68264   0.19378   0.70920   0.00000  Uiso   1.00
C652   C     0.67413   0.15755   0.76409   0.00000  Uiso   1.00
H653   H     0.98559   0.14044   0.79103   0.00000  Uiso   1.00
C654   C     0.84725   0.32255   0.73619   0.00000  Uiso   1.00
H655   H     0.87339   0.00379   0.71052   0.00000  Uiso   1.00
C656   C     0.81891   0.01178   0.76401   0.00000  Uiso   1.00
H657   H     0.79251   0.33132   0.78992   0.00000  Uiso   1.00
N658   N     0.70443   0.20132   0.51206   0.00000  Uiso   1.00
O659   O     0.67961   0.21330   0.99044   0.00000  Uiso   1.00
O660   O     0.68953   0.19693   0.55481   0.00000  Uiso   1.00
Zn661  Zn    0.19338   0.47327   0.78734   0.00000  Uiso   1.00
Zn662  Zn    0.13379   0.45791   0.71876   0.00000  Uiso   1.00
Zn663  Zn    0.21056   0.53109   0.70657   0.00000  Uiso   1.00
Zn664  Zn    0.12893   0.53773   0.78734   0.00000  Uiso   1.00
O665   O     0.16667   0.50000   0.75000   0.00000  Uiso   1.00
O666   O     0.07071   0.52211   0.78213   0.00000  Uiso   1.00
O667   O     0.25491   0.48559   0.77014   0.00000  Uiso   1.00
O668   O     0.13760   0.40277   0.73413   0.00000  Uiso   1.00
O669   O     0.20345   0.58953   0.71361   0.00000  Uiso   1.00
O670   O     0.15451   0.45970   0.65459   0.00000  Uiso   1.00
O671   O     0.12940   0.53724   0.84968   0.00000  Uiso   1.00
O672   O     0.20824   0.51092   0.64606   0.00000  Uiso   1.00
O673   O     0.17451   0.49213   0.84968   0.00000  Uiso   1.00
O674   O     0.17930   0.41352   0.78214   0.00000  Uiso   1.00
O675   O     0.14632   0.59418   0.77014   0.00000  Uiso   1.00
O676   O     0.07412   0.46625   0.73413   0.00000  Uiso   1.00
O677   O     0.26693   0.52605   0.71361   0.00000  Uiso   1.00
C678   C     0.05279   0.49312   0.75999   0.00000  Uiso   1.00
C679   C     0.28086   0.50718   0.73993   0.00000  Uiso   1.00
C680   C     0.15633   0.38923   0.76015   0.00000  Uiso   1.00
C681   C     0.17666   0.61129   0.74009   0.00000  Uiso   1.00
C682   C     0.18563   0.48174   0.62936   0.00000  Uiso   1.00
C683   C     0.14898   0.51832   0.87086   0.00000  Uiso   1.00
C684   C     0.24997   0.47583   0.51128   0.00000  Uiso   1.00
H685   H     0.26000   0.46349   0.57362   0.00000  Uiso   1.00
H686   H     0.27035   0.49586   0.92755   0.00000  Uiso   1.00
H687   H     0.28284   0.47201   0.99330   0.00000  Uiso   1.00
C688   C     0.19510   0.47624   0.58095   0.00000  Uiso   1.00
C689   C     0.09622   0.53030   0.94306   0.00000  Uiso   1.00
C690   C     0.08103   0.52685   0.98918   0.00000  Uiso   1.00
C691   C     0.10794   0.51437   0.51253   0.00000  Uiso   1.00
C692   C     0.15069   0.50693   0.99079   0.00000  Uiso   1.00
C693   C     0.16638   0.51339   0.94441   0.00000  Uiso   1.00
C694   C     0.17858   0.49356   0.51357   0.00000  Uiso   1.00
C695   C     0.22171   0.48848   0.98979   0.00000  Uiso   1.00
C696   C     0.23705   0.49794   0.94530   0.00000  Uiso   1.00
C697   C     0.21019   0.51110   0.92326   0.00000  Uiso   1.00
C698   C     0.16573   0.48621   0.55949   0.00000  Uiso   1.00
C699   C     0.23691   0.47041   0.55678   0.00000  Uiso   1.00
C700   C     0.13801   0.52244   0.92021   0.00000  Uiso   1.00
H701   H     0.13423   0.49069   0.58033   0.00000  Uiso   1.00
H702   H     0.07468   0.53752   0.92449   0.00000  Uiso   1.00
H703   H     0.09460   0.51111   0.54774   0.00000  Uiso   1.00
H704   H     0.22469   0.52030   0.88960   0.00000  Uiso   1.00
C705   C     0.32679   0.50980   0.73563   0.00000  Uiso   1.00
H706   H     0.01597   0.52711   0.70920   0.00000  Uiso   1.00
C707   C     0.00746   0.49088   0.76409   0.00000  Uiso   1.00
H708   H     0.31892   0.47377   0.79103   0.00000  Uiso   1.00
C709   C     0.18058   0.65588   0.73619   0.00000  Uiso   1.00
H710   H     0.20673   0.33712   0.71052   0.00000  Uiso   1.00
C711   C     0.15224   0.34512   0.76401   0.00000  Uiso   1.00
H712   H     0.12585   0.66466   0.78992   0.00000  Uiso   1.00
N713   N     0.03776   0.53465   0.51206   0.00000  Uiso   1.00
O714   O     0.01294   0.54663   0.99044   0.00000  Uiso   1.00
O715   O     0.02286   0.53026   0.55481   0.00000  Uiso   1.00
Zn716  Zn    0.52672   0.47327   0.78734   0.00000  Uiso   1.00
Zn717  Zn    0.46713   0.45791   0.71876   0.00000  Uiso   1.00
Zn718  Zn    0.54389   0.53109   0.70657   0.00000  Uiso   1.00
Zn719  Zn    0.46226   0.53773   0.78734   0.00000  Uiso   1.00
O720   O     0.50000   0.50000   0.75000   0.00000  Uiso   1.00
O721   O     0.40405   0.52211   0.78213   0.00000  Uiso   1.00
O722   O     0.58824   0.48559   0.77014   0.00000  Uiso   1.00
O723   O     0.47093   0.40277   0.73413   0.00000  Uiso   1.00
O724   O     0.53678   0.58953   0.71361   0.00000  Uiso   1.00
O725   O     0.48784   0.45970   0.65459   0.00000  Uiso   1.00
O726   O     0.46274   0.53724   0.84968   0.00000  Uiso   1.00
O727   O     0.54157   0.51092   0.64606   0.00000  Uiso   1.00
O728   O     0.50785   0.49213   0.84968   0.00000  Uiso   1.00
O729   O     0.51264   0.41352   0.78214   0.00000  Uiso   1.00
O730   O     0.47965   0.59418   0.77014   0.00000  Uiso   1.00
O731   O     0.40745   0.46625   0.73413   0.00000  Uiso   1.00
O732   O     0.60026   0.52605   0.71361   0.00000  Uiso   1.00
C733   C     0.38612   0.49312   0.75999   0.00000  Uiso   1.00
C734   C     0.61419   0.50718   0.73993   0.00000  Uiso   1.00
C735   C     0.48966   0.38923   0.76015   0.00000  Uiso   1.00
C736   C     0.51000   0.61129   0.74009   0.00000  Uiso   1.00
C737   C     0.51896   0.48174   0.62936   0.00000  Uiso   1.00
C738   C     0.48231   0.51832   0.87086   0.00000  Uiso   1.00
C739   C     0.58331   0.47583   0.51128   0.00000  Uiso   1.00
H740   H     0.59333   0.46349   0.57362   0.00000  Uiso   1.00
H741   H     0.60369   0.49586   0.92755   0.00000  Uiso   1.00
H742   H     0.61617   0.47201   0.99330   0.00000  Uiso   1.00
C743   C     0.52843   0.47624   0.58095   0.00000  Uiso   1.00
C744   C     0.42955   0.53030   0.94306   0.00000  Uiso   1.00
C745   C     0.41436   0.52685   0.98918   0.00000  Uiso   1.00
C746   C     0.44127   0.51437   0.51253   0.00000  Uiso   1.00
C747   C     0.48403   0.50693   0.99079   0.00000  Uiso   1.00
C748   C     0.49972   0.51339   0.94441   0.00000  Uiso   1.00
C749   C     0.51191   0.49356   0.51357   0.00000  Uiso   1.00
C750   C     0.55504   0.48848   0.98979   0.00000  Uiso   1.00
C751   C     0.57039   0.49794   0.94530   0.00000  Uiso   1.00
C752   C     0.54353   0.51110   0.92326   0.00000  Uiso   1.00
C753   C     0.49906   0.48621   0.55949   0.00000  Uiso   1.00
C754   C     0.57024   0.47041   0.55678   0.00000  Uiso   1.00
C755   C     0.47135   0.52244   0.92021   0.00000  Uiso   1.00
H756   H     0.46757   0.49069   0.58033   0.00000  Uiso   1.00
H757   H     0.40802   0.53752   0.92449   0.00000  Uiso   1.00
H758   H     0.42794   0.51111   0.54774   0.00000  Uiso   1.00
H759   H     0.55803   0.52030   0.88960   0.00000  Uiso   1.00
C760   C     0.66013   0.50980   0.73563   0.00000  Uiso   1.00
H761   H     0.34930   0.52711   0.70920   0.00000  Uiso   1.00
C762   C     0.34079   0.49088   0.76409   0.00000  Uiso   1.00
H763   H     0.65225   0.47377   0.79103   0.00000  Uiso   1.00
C764   C     0.51391   0.65588   0.73619   0.00000  Uiso   1.00
H765   H     0.54006   0.33712   0.71052   0.00000  Uiso   1.00
C766   C     0.48557   0.34512   0.76401   0.00000  Uiso   1.00
H767   H     0.45918   0.66466   0.78992   0.00000  Uiso   1.00
N768   N     0.37110   0.53465   0.51206   0.00000  Uiso   1.00
O769   O     0.34627   0.54663   0.99044   0.00000  Uiso   1.00
O770   O     0.35619   0.53026   0.55481   0.00000  Uiso   1.00
Zn771  Zn    0.86005   0.47327   0.78734   0.00000  Uiso   1.00
Zn772  Zn    0.80046   0.45791   0.71876   0.00000  Uiso   1.00
Zn773  Zn    0.87723   0.53109   0.70657   0.00000  Uiso   1.00
Zn774  Zn    0.79560   0.53773   0.78734   0.00000  Uiso   1.00
O775   O     0.83333   0.50000   0.75000   0.00000  Uiso   1.00
O776   O     0.73738   0.52211   0.78213   0.00000  Uiso   1.00
O777   O     0.92158   0.48559   0.77014   0.00000  Uiso   1.00
O778   O     0.80426   0.40277   0.73413   0.00000  Uiso   1.00
O779   O     0.87012   0.58953   0.71361   0.00000  Uiso   1.00
O780   O     0.82118   0.45970   0.65459   0.00000  Uiso   1.00
O781   O     0.79607   0.53724   0.84968   0.00000  Uiso   1.00
O782   O     0.87491   0.51092   0.64606   0.00000  Uiso   1.00
O783   O     0.84118   0.49213   0.84968   0.00000  Uiso   1.00
O784   O     0.84597   0.41352   0.78214   0.00000  Uiso   1.00
O785   O     0.81298   0.59418   0.77014   0.00000  Uiso   1.00
O786   O     0.74078   0.46625   0.73413   0.00000  Uiso   1.00
O787   O     0.93360   0.52605   0.71361   0.00000  Uiso   1.00
C788   C     0.71946   0.49312   0.75999   0.00000  Uiso   1.00
C789   C     0.94753   0.50718   0.73993   0.00000  Uiso   1.00
C790   C     0.82299   0.38923   0.76015   0.00000  Uiso   1.00
C791   C     0.84333   0.61129   0.74009   0.00000  Uiso   1.00
C792   C     0.85230   0.48174   0.62936   0.00000  Uiso   1.00
C793   C     0.81564   0.51832   0.87086   0.00000  Uiso   1.00
C794   C     0.91664   0.47583   0.51128   0.00000  Uiso   1.00
H795   H     0.92667   0.46349   0.57362   0.00000  Uiso   1.00
H796   H     0.93702   0.49586   0.92755   0.00000  Uiso   1.00
H797   H     0.94950   0.47201   0.99330   0.00000  Uiso   1.00
C798   C     0.86176   0.47624   0.58095   0.00000  Uiso   1.00
C799   C     0.76289   0.53030   0.94306   0.00000  Uiso   1.00
C800   C     0.74769   0.52685   0.98918   0.00000  Uiso   1.00
C801   C     0.77460   0.51437   0.51253   0.00000  Uiso   1.00
C802   C     0.81736   0.50693   0.99079   0.00000  Uiso   1.00
C803   C     0.83305   0.51339   0.94441   0.00000  Uiso   1.00
C804   C     0.84525   0.49356   0.51357   0.00000  Uiso   1.00
C805   C     0.88837   0.48848   0.98979   0.00000  Uiso   1.00
C806   C     0.90372   0.49794   0.94530   0.00000  Uiso   1.00
C807   C     0.87686   0.51110   0.92326   0.00000  Uiso   1.00
C808   C     0.83239   0.48621   0.55949   0.00000  Uiso   1.00
C809   C     0.90358   0.47041   0.55678   0.00000  Uiso   1.00
C810   C     0.80468   0.52244   0.92021   0.00000  Uiso   1.00
H811   H     0.80090   0.49069   0.58033   0.00000  Uiso   1.00
H812   H     0.74135   0.53752   0.92449   0.00000  Uiso   1.00
H813   H     0.76127   0.51111   0.54774   0.00000  Uiso   1.00
H814   H     0.89136   0.52030   0.88960   0.00000  Uiso   1.00
C815   C     0.99346   0.50980   0.73563   0.00000  Uiso   1.00
H816   H     0.68264   0.52711   0.70920   0.00000  Uiso   1.00
C817   C     0.67413   0.49088   0.76409   0.00000  Uiso   1.00
H818   H     0.98559   0.47377   0.79103   0.00000  Uiso   1.00
C819   C     0.84725   0.65588   0.73619   0.00000  Uiso   1.00
H820   H     0.87339   0.33712   0.71052   0.00000  Uiso   1.00
C821   C     0.81891   0.34512   0.76401   0.00000  Uiso   1.00
H822   H     0.79251   0.66466   0.78992   0.00000  Uiso   1.00
N823   N     0.70443   0.53465   0.51206   0.00000  Uiso   1.00
O824   O     0.67961   0.54663   0.99044   0.00000  Uiso   1.00
O825   O     0.68953   0.53026   0.55481   0.00000  Uiso   1.00
Zn826  Zn    0.19338   0.80661   0.78734   0.00000  Uiso   1.00
Zn827  Zn    0.13379   0.79124   0.71876   0.00000  Uiso   1.00
Zn828  Zn    0.21056   0.86442   0.70657   0.00000  Uiso   1.00
Zn829  Zn    0.12893   0.87106   0.78734   0.00000  Uiso   1.00
O830   O     0.16667   0.83333   0.75000   0.00000  Uiso   1.00
O831   O     0.07071   0.85544   0.78213   0.00000  Uiso   1.00
O832   O     0.25491   0.81892   0.77014   0.00000  Uiso   1.00
O833   O     0.13760   0.73610   0.73413   0.00000  Uiso   1.00
O834   O     0.20345   0.92286   0.71361   0.00000  Uiso   1.00
O835   O     0.15451   0.79304   0.65459   0.00000  Uiso   1.00
O836   O     0.12940   0.87058   0.84968   0.00000  Uiso   1.00
O837   O     0.20824   0.84425   0.64606   0.00000  Uiso   1.00
O838   O     0.17451   0.82546   0.84968   0.00000  Uiso   1.00
O839   O     0.17930   0.74686   0.78214   0.00000  Uiso   1.00
O840   O     0.14632   0.92751   0.77014   0.00000  Uiso   1.00
O841   O     0.07412   0.79958   0.73413   0.00000  Uiso   1.00
O842   O     0.26693   0.85939   0.71361   0.00000  Uiso   1.00
C843   C     0.05279   0.82645   0.75999   0.00000  Uiso   1.00
C844   C     0.28086   0.84051   0.73993   0.00000  Uiso   1.00
C845   C     0.15633   0.72256   0.76015   0.00000  Uiso   1.00
C846   C     0.17666   0.94463   0.74009   0.00000  Uiso   1.00
C847   C     0.18563   0.81507   0.62936   0.00000  Uiso   1.00
C848   C     0.14898   0.85165   0.87086   0.00000  Uiso   1.00
C849   C     0.24997   0.80916   0.51128   0.00000  Uiso   1.00
H850   H     0.26000   0.79682   0.57362   0.00000  Uiso   1.00
H851   H     0.27035   0.82919   0.92755   0.00000  Uiso   1.00
H852   H     0.28284   0.80534   0.99330   0.00000  Uiso   1.00
C853   C     0.19510   0.80957   0.58095   0.00000  Uiso   1.00
C854   C     0.09622   0.86364   0.94306   0.00000  Uiso   1.00
C855   C     0.08103   0.86018   0.98918   0.00000  Uiso   1.00
C856   C     0.10794   0.84771   0.51253   0.00000  Uiso   1.00
C857   C     0.15069   0.84026   0.99079   0.00000  Uiso   1.00
C858   C     0.16638   0.84672   0.94441   0.00000  Uiso   1.00
C859   C     0.17858   0.82690   0.51357   0.00000  Uiso   1.00
C860   C     0.22171   0.82181   0.98979   0.00000  Uiso   1.00
C861   C     0.23705   0.83127   0.94530   0.00000  Uiso   1.00
C862   C     0.21019   0.84444   0.92326   0.00000  Uiso   1.00
C863   C     0.16573   0.81954   0.55949   0.00000  Uiso   1.00
C864   C     0.23691   0.80374   0.55678   0.00000  Uiso   1.00
C865   C     0.13801   0.85577   0.92021   0.00000  Uiso   1.00
H866   H     0.13423   0.82402   0.58033   0.00000  Uiso   1.00
H867   H     0.07468   0.87086   0.92449   0.00000  Uiso   1.00
H868   H     0.09460   0.84445   0.54774   0.00000  Uiso   1.00
H869   H     0.22469   0.85364   0.88960   0.00000  Uiso   1.00
C870   C     0.32679   0.84313   0.73563   0.00000  Uiso   1.00
H871   H     0.01597   0.86044   0.70920   0.00000  Uiso   1.00
C872   C     0.00746   0.82421   0.76409   0.00000  Uiso   1.00
H873   H     0.31892   0.80711   0.79103   0.00000  Uiso   1.00
C874   C     0.18058   0.98922   0.73619   0.00000  Uiso   1.00
H875   H     0.20673   0.67046   0.71052   0.00000  Uiso   1.00
C876   C     0.15224   0.67845   0.76401   0.00000  Uiso   1.00
H877   H     0.12585   0.99799   0.78992   0.00000  Uiso   1.00
N878   N     0.03776   0.86798   0.51206   0.00000  Uiso   1.00
O879   O     0.01294   0.87997   0.99044   0.00000  Uiso   1.00
O880   O     0.02286   0.86360   0.55481   0.00000  Uiso   1.00
Zn881  Zn    0.52672   0.80661   0.78734   0.00000  Uiso   1.00
Zn882  Zn    0.46713   0.79124   0.71876   0.00000  Uiso   1.00
Zn883  Zn    0.54389   0.86442   0.70657   0.00000  Uiso   1.00
Zn884  Zn    0.46226   0.87106   0.78734   0.00000  Uiso   1.00
O885   O     0.50000   0.83333   0.75000   0.00000  Uiso   1.00
O886   O     0.40405   0.85544   0.78213   0.00000  Uiso   1.00
O887   O     0.58824   0.81892   0.77014   0.00000  Uiso   1.00
O888   O     0.47093   0.73610   0.73413   0.00000  Uiso   1.00
O889   O     0.53678   0.92286   0.71361   0.00000  Uiso   1.00
O890   O     0.48784   0.79304   0.65459   0.00000  Uiso   1.00
O891   O     0.46274   0.87058   0.84968   0.00000  Uiso   1.00
O892   O     0.54157   0.84425   0.64606   0.00000  Uiso   1.00
O893   O     0.50785   0.82546   0.84968   0.00000  Uiso   1.00
O894   O     0.51264   0.74686   0.78214   0.00000  Uiso   1.00
O895   O     0.47965   0.92751   0.77014   0.00000  Uiso   1.00
O896   O     0.40745   0.79958   0.73413   0.00000  Uiso   1.00
O897   O     0.60026   0.85939   0.71361   0.00000  Uiso   1.00
C898   C     0.38612   0.82645   0.75999   0.00000  Uiso   1.00
C899   C     0.61419   0.84051   0.73993   0.00000  Uiso   1.00
C900   C     0.48966   0.72256   0.76015   0.00000  Uiso   1.00
C901   C     0.51000   0.94463   0.74009   0.00000  Uiso   1.00
C902   C     0.51896   0.81507   0.62936   0.00000  Uiso   1.00
C903   C     0.48231   0.85165   0.87086   0.00000  Uiso   1.00
C904   C     0.58331   0.80916   0.51128   0.00000  Uiso   1.00
H905   H     0.59333   0.79682   0.57362   0.00000  Uiso   1.00
H906   H     0.60369   0.82919   0.92755   0.00000  Uiso   1.00
H907   H     0.61617   0.80534   0.99330   0.00000  Uiso   1.00
C908   C     0.52843   0.80957   0.58095   0.00000  Uiso   1.00
C909   C     0.42955   0.86364   0.94306   0.00000  Uiso   1.00
C910   C     0.41436   0.86018   0.98918   0.00000  Uiso   1.00
C911   C     0.44127   0.84771   0.51253   0.00000  Uiso   1.00
C912   C     0.48403   0.84026   0.99079   0.00000  Uiso   1.00
C913   C     0.49972   0.84672   0.94441   0.00000  Uiso   1.00
C914   C     0.51191   0.82690   0.51357   0.00000  Uiso   1.00
C915   C     0.55504   0.82181   0.98979   0.00000  Uiso   1.00
C916   C     0.57039   0.83127   0.94530   0.00000  Uiso   1.00
C917   C     0.54353   0.84444   0.92326   0.00000  Uiso   1.00
C918   C     0.49906   0.81954   0.55949   0.00000  Uiso   1.00
C919   C     0.57024   0.80374   0.55678   0.00000  Uiso   1.00
C920   C     0.47135   0.85577   0.92021   0.00000  Uiso   1.00
H921   H     0.46757   0.82402   0.58033   0.00000  Uiso   1.00
H922   H     0.40802   0.87086   0.92449   0.00000  Uiso   1.00
H923   H     0.42794   0.84445   0.54774   0.00000  Uiso   1.00
H924   H     0.55803   0.85364   0.88960   0.00000  Uiso   1.00
C925   C     0.66013   0.84313   0.73563   0.00000  Uiso   1.00
H926   H     0.34930   0.86044   0.70920   0.00000  Uiso   1.00
C927   C     0.34079   0.82421   0.76409   0.00000  Uiso   1.00
H928   H     0.65225   0.80711   0.79103   0.00000  Uiso   1.00
C929   C     0.51391   0.98922   0.73619   0.00000  Uiso   1.00
H930   H     0.54006   0.67046   0.71052   0.00000  Uiso   1.00
C931   C     0.48557   0.67845   0.76401   0.00000  Uiso   1.00
H932   H     0.45918   0.99799   0.78992   0.00000  Uiso   1.00
N933   N     0.37110   0.86798   0.51206   0.00000  Uiso   1.00
O934   O     0.34627   0.87997   0.99044   0.00000  Uiso   1.00
O935   O     0.35619   0.86360   0.55481   0.00000  Uiso   1.00
Zn936  Zn    0.86005   0.80661   0.78734   0.00000  Uiso   1.00
Zn937  Zn    0.80046   0.79124   0.71876   0.00000  Uiso   1.00
Zn938  Zn    0.87723   0.86442   0.70657   0.00000  Uiso   1.00
Zn939  Zn    0.79560   0.87106   0.78734   0.00000  Uiso   1.00
O940   O     0.83333   0.83333   0.75000   0.00000  Uiso   1.00
O941   O     0.73738   0.85544   0.78213   0.00000  Uiso   1.00
O942   O     0.92158   0.81892   0.77014   0.00000  Uiso   1.00
O943   O     0.80426   0.73610   0.73413   0.00000  Uiso   1.00
O944   O     0.87012   0.92286   0.71361   0.00000  Uiso   1.00
O945   O     0.82118   0.79304   0.65459   0.00000  Uiso   1.00
O946   O     0.79607   0.87058   0.84968   0.00000  Uiso   1.00
O947   O     0.87491   0.84425   0.64606   0.00000  Uiso   1.00
O948   O     0.84118   0.82546   0.84968   0.00000  Uiso   1.00
O949   O     0.84597   0.74686   0.78214   0.00000  Uiso   1.00
O950   O     0.81298   0.92751   0.77014   0.00000  Uiso   1.00
O951   O     0.74078   0.79958   0.73413   0.00000  Uiso   1.00
O952   O     0.93360   0.85939   0.71361   0.00000  Uiso   1.00
C953   C     0.71946   0.82645   0.75999   0.00000  Uiso   1.00
C954   C     0.94753   0.84051   0.73993   0.00000  Uiso   1.00
C955   C     0.82299   0.72256   0.76015   0.00000  Uiso   1.00
C956   C     0.84333   0.94463   0.74009   0.00000  Uiso   1.00
C957   C     0.85230   0.81507   0.62936   0.00000  Uiso   1.00
C958   C     0.81564   0.85165   0.87086   0.00000  Uiso   1.00
C959   C     0.91664   0.80916   0.51128   0.00000  Uiso   1.00
H960   H     0.92667   0.79682   0.57362   0.00000  Uiso   1.00
H961   H     0.93702   0.82919   0.92755   0.00000  Uiso   1.00
H962   H     0.94950   0.80534   0.99330   0.00000  Uiso   1.00
C963   C     0.86176   0.80957   0.58095   0.00000  Uiso   1.00
C964   C     0.76289   0.86364   0.94306   0.00000  Uiso   1.00
C965   C     0.74769   0.86018   0.98918   0.00000  Uiso   1.00
C966   C     0.77460   0.84771   0.51253   0.00000  Uiso   1.00
C967   C     0.81736   0.84026   0.99079   0.00000  Uiso   1.00
C968   C     0.83305   0.84672   0.94441   0.00000  Uiso   1.00
C969   C     0.84525   0.82690   0.51357   0.00000  Uiso   1.00
C970   C     0.88837   0.82181   0.98979   0.00000  Uiso   1.00
C971   C     0.90372   0.83127   0.94530   0.00000  Uiso   1.00
C972   C     0.87686   0.84444   0.92326   0.00000  Uiso   1.00
C973   C     0.83239   0.81954   0.55949   0.00000  Uiso   1.00
C974   C     0.90358   0.80374   0.55678   0.00000  Uiso   1.00
C975   C     0.80468   0.85577   0.92021   0.00000  Uiso   1.00
H976   H     0.80090   0.82402   0.58033   0.00000  Uiso   1.00
H977   H     0.74135   0.87086   0.92449   0.00000  Uiso   1.00
H978   H     0.76127   0.84445   0.54774   0.00000  Uiso   1.00
H979   H     0.89136   0.85364   0.88960   0.00000  Uiso   1.00
C980   C     0.99346   0.84313   0.73563   0.00000  Uiso   1.00
H981   H     0.68264   0.86044   0.70920   0.00000  Uiso   1.00
C982   C     0.67413   0.82421   0.76409   0.00000  Uiso   1.00
H983   H     0.98559   0.80711   0.79103   0.00000  Uiso   1.00
C984   C     0.84725   0.98922   0.73619   0.00000  Uiso   1.00
H985   H     0.87339   0.67046   0.71052   0.00000  Uiso   1.00
C986   C     0.81891   0.67845   0.76401   0.00000  Uiso   1.00
H987   H     0.79251   0.99799   0.78992   0.00000  Uiso   1.00
N988   N     0.70443   0.86798   0.51206   0.00000  Uiso   1.00
O989   O     0.67961   0.87997   0.99044   0.00000  Uiso   1.00
O990   O     0.68953   0.86360   0.55481   0.00000  Uiso   1.00
loop_
_geom_bond_atom_site_label_1
_geom_bond_atom_site_label_2
_geom_bond_distance
_geom_bond_site_symmetry_2
_ccdc_geom_bond_type
Zn1    O5      1.958   .     S
Zn1    O13     1.932   .     S
Zn1    O14     1.929   .     S
Zn1    O7      1.921   .     S
Zn2    O16     1.924   .     S
Zn2    O5      1.952   .     S
Zn2    O8      1.933   .     S
Zn2    O10     1.932   .     S
Zn3    O9      1.930   .     S
Zn3    O12     1.944   .     S
Zn3    O17     1.936   .     S
Zn3    O5      1.928   .     S
Zn4    O15     1.927   .     S
Zn4    O11     1.944   .     S
Zn4    O6      1.933   .     S
Zn4    O5      1.933   .     S
O6     C18     1.273   .     A
O7     C19     1.276   .     A
O8     C20     1.280   .     A
O9     C21     1.270   .     A
O10    C22     1.278   .     A
O11    C23     1.282   .     A
O12    C22     1.268   .     A
O13    C23     1.283   .     A
O14    C20     1.280   .     A
O15    C21     1.269   .     A
O16    C18     1.274   .     A
O17    C19     1.280   .     A
C18    C47     1.438   .     S
C19    C45     1.455   .     S
C20    C51     1.436   .     S
C21    C49     1.452   .     S
C22    C28     1.451   .     S
C23    C40     1.475   .     S
C24    C39     1.386   .     A
C24    H522    1.084   1_554 S
C24    C530    1.400   1_554 S
H25    C39     1.084   .     S
H26    C36     1.085   .     S
H27    C519    1.084   .     S
C28    C38     1.393   .     A
C28    C39     1.396   .     A
C29    C30     1.397   .     A
C29    H42     1.083   .     S
C29    C40     1.402   .     A
C30    C526    1.402   .     S
C30    N548    1.443   .     S
C31    H43     1.075   .     S
C31    C525    1.402   1_554 S
C31    C527    1.418   1_554 S
C32    C33     1.422   .     A
C32    C526    1.418   .     S
C32    C529    1.428   .     S
C33    C40     1.416   .     A
C33    C37     1.410   .     A
C34    C38     1.412   .     A
C34    C527    1.428   1_554 S
C34    C530    1.425   1_554 S
C35    C36     1.390   .     A
C35    C519    1.400   .     S
C35    C529    1.425   .     S
C36    C37     1.382   .     A
C37    H44     1.080   .     S
C38    H41     1.077   .     S
C45    H101    1.088   .     S
C45    C102    1.335   .     S
H46    C155    1.088   1_455 S
C47    C155    1.335   1_455 S
C47    H158    1.086   1_455 S
H48    C102    1.086   .     S
C49    H215    1.088   .     S
C49    C216    1.332   .     S
H50    C379    1.088   1_545 S
C51    C379    1.332   1_545 S
C51    H382    1.086   1_545 S
H52    C216    1.086   .     S
N53    O55     1.302   .     A
N53    C525    1.443   1_554 S
N53    O549    1.302   1_554 S
O54    N548    1.302   .     S
Zn56   O60     1.958   .     S
Zn56   O68     1.932   .     S
Zn56   O69     1.929   .     S
Zn56   O62     1.921   .     S
Zn57   O71     1.924   .     S
Zn57   O60     1.952   .     S
Zn57   O63     1.933   .     S
Zn57   O65     1.932   .     S
Zn58   O64     1.930   .     S
Zn58   O67     1.944   .     S
Zn58   O72     1.936   .     S
Zn58   O60     1.928   .     S
Zn59   O70     1.927   .     S
Zn59   O66     1.944   .     S
Zn59   O61     1.933   .     S
Zn59   O60     1.933   .     S
O61    C73     1.273   .     A
O62    C74     1.276   .     A
O63    C75     1.280   .     A
O64    C76     1.270   .     A
O65    C77     1.278   .     A
O66    C78     1.282   .     A
O67    C77     1.268   .     A
O68    C78     1.283   .     A
O69    C75     1.280   .     A
O70    C76     1.269   .     A
O71    C73     1.274   .     A
O72    C74     1.280   .     A
C73    C102    1.438   .     S
C74    C100    1.455   .     S
C75    C106    1.436   .     S
C76    C104    1.452   .     S
C77    C83     1.451   .     S
C78    C95     1.475   .     S
C79    C94     1.386   .     A
C79    H577    1.084   1_554 S
C79    C585    1.400   1_554 S
H80    C94     1.084   .     S
H81    C91     1.085   .     S
H82    C574    1.084   .     S
C83    C93     1.393   .     A
C83    C94     1.396   .     A
C84    C85     1.397   .     A
C84    H97     1.083   .     S
C84    C95     1.402   .     A
C85    C581    1.402   .     S
C85    N603    1.443   .     S
C86    H98     1.075   .     S
C86    C580    1.402   1_554 S
C86    C582    1.418   1_554 S
C87    C88     1.422   .     A
C87    C581    1.418   .     S
C87    C584    1.428   .     S
C88    C95     1.416   .     A
C88    C92     1.410   .     A
C89    C93     1.412   .     A
C89    C582    1.428   1_554 S
C89    C585    1.425   1_554 S
C90    C91     1.390   .     A
C90    C574    1.400   .     S
C90    C584    1.425   .     S
C91    C92     1.382   .     A
C92    H99     1.080   .     S
C93    H96     1.077   .     S
C100   H156    1.088   .     S
C100   C157    1.335   .     S
H103   C157    1.086   .     S
C104   H270    1.088   .     S
C104   C271    1.332   .     S
H105   C434    1.088   1_545 S
C106   C434    1.332   1_545 S
C106   H437    1.086   1_545 S
H107   C271    1.086   .     S
N108   O110    1.302   .     A
N108   C580    1.443   1_554 S
N108   O604    1.302   1_554 S
O109   N603    1.302   .     S
Zn111  O115    1.958   .     S
Zn111  O123    1.932   .     S
Zn111  O124    1.929   .     S
Zn111  O117    1.921   .     S
Zn112  O126    1.924   .     S
Zn112  O115    1.952   .     S
Zn112  O118    1.933   .     S
Zn112  O120    1.932   .     S
Zn113  O119    1.930   .     S
Zn113  O122    1.944   .     S
Zn113  O127    1.936   .     S
Zn113  O115    1.928   .     S
Zn114  O125    1.927   .     S
Zn114  O121    1.944   .     S
Zn114  O116    1.933   .     S
Zn114  O115    1.933   .     S
O116   C128    1.273   .     A
O117   C129    1.276   .     A
O118   C130    1.280   .     A
O119   C131    1.270   .     A
O120   C132    1.278   .     A
O121   C133    1.282   .     A
O122   C132    1.268   .     A
O123   C133    1.283   .     A
O124   C130    1.280   .     A
O125   C131    1.269   .     A
O126   C128    1.274   .     A
O127   C129    1.280   .     A
C128   C157    1.438   .     S
C129   C155    1.455   .     S
C130   C161    1.436   .     S
C131   C159    1.452   .     S
C132   C138    1.451   .     S
C133   C150    1.475   .     S
C134   C149    1.386   .     A
C134   H632    1.084   1_554 S
C134   C640    1.400   1_554 S
H135   C149    1.084   .     S
H136   C146    1.085   .     S
H137   C629    1.084   .     S
C138   C148    1.393   .     A
C138   C149    1.396   .     A
C139   C140    1.397   .     A
C139   H152    1.083   .     S
C139   C150    1.402   .     A
C140   C636    1.402   .     S
C140   N658    1.443   .     S
C141   H153    1.075   .     S
C141   C635    1.402   1_554 S
C141   C637    1.418   1_554 S
C142   C143    1.422   .     A
C142   C636    1.418   .     S
C142   C639    1.428   .     S
C143   C150    1.416   .     A
C143   C147    1.410   .     A
C144   C148    1.412   .     A
C144   C637    1.428   1_554 S
C144   C640    1.425   1_554 S
C145   C146    1.390   .     A
C145   C629    1.400   .     S
C145   C639    1.425   .     S
C146   C147    1.382   .     A
C147   H154    1.080   .     S
C148   H151    1.077   .     S
C155   H46     1.088   1_655 S
C155   C47     1.335   1_655 S
H158   C47     1.086   1_655 S
C159   H325    1.088   .     S
C159   C326    1.332   .     S
H160   C489    1.088   1_545 S
C161   C489    1.332   1_545 S
C161   H492    1.086   1_545 S
H162   C326    1.086   .     S
N163   O165    1.302   .     A
N163   C635    1.443   1_554 S
N163   O659    1.302   1_554 S
O164   N658    1.302   .     S
Zn166  O170    1.958   .     S
Zn166  O178    1.932   .     S
Zn166  O179    1.929   .     S
Zn166  O172    1.921   .     S
Zn167  O181    1.924   .     S
Zn167  O170    1.952   .     S
Zn167  O173    1.933   .     S
Zn167  O175    1.932   .     S
Zn168  O174    1.930   .     S
Zn168  O177    1.944   .     S
Zn168  O182    1.936   .     S
Zn168  O170    1.928   .     S
Zn169  O180    1.927   .     S
Zn169  O176    1.944   .     S
Zn169  O171    1.933   .     S
Zn169  O170    1.933   .     S
O171   C183    1.273   .     A
O172   C184    1.276   .     A
O173   C185    1.280   .     A
O174   C186    1.270   .     A
O175   C187    1.278   .     A
O176   C188    1.282   .     A
O177   C187    1.268   .     A
O178   C188    1.283   .     A
O179   C185    1.280   .     A
O180   C186    1.269   .     A
O181   C183    1.274   .     A
O182   C184    1.280   .     A
C183   C212    1.438   .     S
C184   C210    1.455   .     S
C185   C216    1.436   .     S
C186   C214    1.452   .     S
C187   C193    1.451   .     S
C188   C205    1.475   .     S
C189   C204    1.386   .     A
C189   H687    1.084   1_554 S
C189   C695    1.400   1_554 S
H190   C204    1.084   .     S
H191   C201    1.085   .     S
H192   C684    1.084   .     S
C193   C203    1.393   .     A
C193   C204    1.396   .     A
C194   C195    1.397   .     A
C194   H207    1.083   .     S
C194   C205    1.402   .     A
C195   C691    1.402   .     S
C195   N713    1.443   .     S
C196   H208    1.075   .     S
C196   C690    1.402   1_554 S
C196   C692    1.418   1_554 S
C197   C198    1.422   .     A
C197   C691    1.418   .     S
C197   C694    1.428   .     S
C198   C205    1.416   .     A
C198   C202    1.410   .     A
C199   C203    1.412   .     A
C199   C692    1.428   1_554 S
C199   C695    1.425   1_554 S
C200   C201    1.390   .     A
C200   C684    1.400   .     S
C200   C694    1.425   .     S
C201   C202    1.382   .     A
C202   H209    1.080   .     S
C203   H206    1.077   .     S
C210   H266    1.088   .     S
C210   C267    1.335   .     S
H211   C320    1.088   1_455 S
C212   C320    1.335   1_455 S
C212   H323    1.086   1_455 S
H213   C267    1.086   .     S
C214   H380    1.088   .     S
C214   C381    1.332   .     S
H217   C381    1.086   .     S
N218   O220    1.302   .     A
N218   C690    1.443   1_554 S
N218   O714    1.302   1_554 S
O219   N713    1.302   .     S
Zn221  O225    1.958   .     S
Zn221  O233    1.932   .     S
Zn221  O234    1.929   .     S
Zn221  O227    1.921   .     S
Zn222  O236    1.924   .     S
Zn222  O225    1.952   .     S
Zn222  O228    1.933   .     S
Zn222  O230    1.932   .     S
Zn223  O229    1.930   .     S
Zn223  O232    1.944   .     S
Zn223  O237    1.936   .     S
Zn223  O225    1.928   .     S
Zn224  O235    1.927   .     S
Zn224  O231    1.944   .     S
Zn224  O226    1.933   .     S
Zn224  O225    1.933   .     S
O226   C238    1.273   .     A
O227   C239    1.276   .     A
O228   C240    1.280   .     A
O229   C241    1.270   .     A
O230   C242    1.278   .     A
O231   C243    1.282   .     A
O232   C242    1.268   .     A
O233   C243    1.283   .     A
O234   C240    1.280   .     A
O235   C241    1.269   .     A
O236   C238    1.274   .     A
O237   C239    1.280   .     A
C238   C267    1.438   .     S
C239   C265    1.455   .     S
C240   C271    1.436   .     S
C241   C269    1.452   .     S
C242   C248    1.451   .     S
C243   C260    1.475   .     S
C244   C259    1.386   .     A
C244   H742    1.084   1_554 S
C244   C750    1.400   1_554 S
H245   C259    1.084   .     S
H246   C256    1.085   .     S
H247   C739    1.084   .     S
C248   C258    1.393   .     A
C248   C259    1.396   .     A
C249   C250    1.397   .     A
C249   H262    1.083   .     S
C249   C260    1.402   .     A
C250   C746    1.402   .     S
C250   N768    1.443   .     S
C251   H263    1.075   .     S
C251   C745    1.402   1_554 S
C251   C747    1.418   1_554 S
C252   C253    1.422   .     A
C252   C746    1.418   .     S
C252   C749    1.428   .     S
C253   C260    1.416   .     A
C253   C257    1.410   .     A
C254   C258    1.412   .     A
C254   C747    1.428   1_554 S
C254   C750    1.425   1_554 S
C255   C256    1.390   .     A
C255   C739    1.400   .     S
C255   C749    1.425   .     S
C256   C257    1.382   .     A
C257   H264    1.080   .     S
C258   H261    1.077   .     S
C265   H321    1.088   .     S
C265   C322    1.335   .     S
H268   C322    1.086   .     S
C269   H435    1.088   .     S
C269   C436    1.332   .     S
H272   C436    1.086   .     S
N273   O275    1.302   .     A
N273   C745    1.443   1_554 S
N273   O769    1.302   1_554 S
O274   N768    1.302   .     S
Zn276  O280    1.958   .     S
Zn276  O288    1.932   .     S
Zn276  O289    1.929   .     S
Zn276  O282    1.921   .     S
Zn277  O291    1.924   .     S
Zn277  O280    1.952   .     S
Zn277  O283    1.933   .     S
Zn277  O285    1.932   .     S
Zn278  O284    1.930   .     S
Zn278  O287    1.944   .     S
Zn278  O292    1.936   .     S
Zn278  O280    1.928   .     S
Zn279  O290    1.927   .     S
Zn279  O286    1.944   .     S
Zn279  O281    1.933   .     S
Zn279  O280    1.933   .     S
O281   C293    1.273   .     A
O282   C294    1.276   .     A
O283   C295    1.280   .     A
O284   C296    1.270   .     A
O285   C297    1.278   .     A
O286   C298    1.282   .     A
O287   C297    1.268   .     A
O288   C298    1.283   .     A
O289   C295    1.280   .     A
O290   C296    1.269   .     A
O291   C293    1.274   .     A
O292   C294    1.280   .     A
C293   C322    1.438   .     S
C294   C320    1.455   .     S
C295   C326    1.436   .     S
C296   C324    1.452   .     S
C297   C303    1.451   .     S
C298   C315    1.475   .     S
C299   C314    1.386   .     A
C299   H797    1.084   1_554 S
C299   C805    1.400   1_554 S
H300   C314    1.084   .     S
H301   C311    1.085   .     S
H302   C794    1.084   .     S
C303   C313    1.393   .     A
C303   C314    1.396   .     A
C304   C305    1.397   .     A
C304   H317    1.083   .     S
C304   C315    1.402   .     A
C305   C801    1.402   .     S
C305   N823    1.443   .     S
C306   H318    1.075   .     S
C306   C800    1.402   1_554 S
C306   C802    1.418   1_554 S
C307   C308    1.422   .     A
C307   C801    1.418   .     S
C307   C804    1.428   .     S
C308   C315    1.416   .     A
C308   C312    1.410   .     A
C309   C313    1.412   .     A
C309   C802    1.428   1_554 S
C309   C805    1.425   1_554 S
C310   C311    1.390   .     A
C310   C794    1.400   .     S
C310   C804    1.425   .     S
C311   C312    1.382   .     A
C312   H319    1.080   .     S
C313   H316    1.077   .     S
C320   H211    1.088   1_655 S
C320   C212    1.335   1_655 S
H323   C212    1.086   1_655 S
C324   H490    1.088   .     S
C324   C491    1.332   .     S
H327   C491    1.086   .     S
N328   O330    1.302   .     A
N328   C800    1.443   1_554 S
N328   O824    1.302   1_554 S
O329   N823    1.302   .     S
Zn331  O335    1.958   .     S
Zn331  O343    1.932   .     S
Zn331  O344    1.929   .     S
Zn331  O337    1.921   .     S
Zn332  O346    1.924   .     S
Zn332  O335    1.952   .     S
Zn332  O338    1.933   .     S
Zn332  O340    1.932   .     S
Zn333  O339    1.930   .     S
Zn333  O342    1.944   .     S
Zn333  O347    1.936   .     S
Zn333  O335    1.928   .     S
Zn334  O345    1.927   .     S
Zn334  O341    1.944   .     S
Zn334  O336    1.933   .     S
Zn334  O335    1.933   .     S
O336   C348    1.273   .     A
O337   C349    1.276   .     A
O338   C350    1.280   .     A
O339   C351    1.270   .     A
O340   C352    1.278   .     A
O341   C353    1.282   .     A
O342   C352    1.268   .     A
O343   C353    1.283   .     A
O344   C350    1.280   .     A
O345   C351    1.269   .     A
O346   C348    1.274   .     A
O347   C349    1.280   .     A
C348   C377    1.438   .     S
C349   C375    1.455   .     S
C350   C381    1.436   .     S
C351   C379    1.452   .     S
C352   C358    1.451   .     S
C353   C370    1.475   .     S
C354   C369    1.386   .     A
C354   H852    1.084   1_554 S
C354   C860    1.400   1_554 S
H355   C369    1.084   .     S
H356   C366    1.085   .     S
H357   C849    1.084   .     S
C358   C368    1.393   .     A
C358   C369    1.396   .     A
C359   C360    1.397   .     A
C359   H372    1.083   .     S
C359   C370    1.402   .     A
C360   C856    1.402   .     S
C360   N878    1.443   .     S
C361   H373    1.075   .     S
C361   C855    1.402   1_554 S
C361   C857    1.418   1_554 S
C362   C363    1.422   .     A
C362   C856    1.418   .     S
C362   C859    1.428   .     S
C363   C370    1.416   .     A
C363   C367    1.410   .     A
C364   C368    1.412   .     A
C364   C857    1.428   1_554 S
C364   C860    1.425   1_554 S
C365   C366    1.390   .     A
C365   C849    1.400   .     S
C365   C859    1.425   .     S
C366   C367    1.382   .     A
C367   H374    1.080   .     S
C368   H371    1.077   .     S
C375   H431    1.088   .     S
C375   C432    1.335   .     S
H376   C485    1.088   1_455 S
C377   C485    1.335   1_455 S
C377   H488    1.086   1_455 S
H378   C432    1.086   .     S
C379   H50     1.088   1_565 S
C379   C51     1.332   1_565 S
H382   C51     1.086   1_565 S
N383   O385    1.302   .     A
N383   C855    1.443   1_554 S
N383   O879    1.302   1_554 S
O384   N878    1.302   .     S
Zn386  O390    1.958   .     S
Zn386  O398    1.932   .     S
Zn386  O399    1.929   .     S
Zn386  O392    1.921   .     S
Zn387  O401    1.924   .     S
Zn387  O390    1.952   .     S
Zn387  O393    1.933   .     S
Zn387  O395    1.932   .     S
Zn388  O394    1.930   .     S
Zn388  O397    1.944   .     S
Zn388  O402    1.936   .     S
Zn388  O390    1.928   .     S
Zn389  O400    1.927   .     S
Zn389  O396    1.944   .     S
Zn389  O391    1.933   .     S
Zn389  O390    1.933   .     S
O391   C403    1.273   .     A
O392   C404    1.276   .     A
O393   C405    1.280   .     A
O394   C406    1.270   .     A
O395   C407    1.278   .     A
O396   C408    1.282   .     A
O397   C407    1.268   .     A
O398   C408    1.283   .     A
O399   C405    1.280   .     A
O400   C406    1.269   .     A
O401   C403    1.274   .     A
O402   C404    1.280   .     A
C403   C432    1.438   .     S
C404   C430    1.455   .     S
C405   C436    1.436   .     S
C406   C434    1.452   .     S
C407   C413    1.451   .     S
C408   C425    1.475   .     S
C409   C424    1.386   .     A
C409   H907    1.084   1_554 S
C409   C915    1.400   1_554 S
H410   C424    1.084   .     S
H411   C421    1.085   .     S
H412   C904    1.084   .     S
C413   C423    1.393   .     A
C413   C424    1.396   .     A
C414   C415    1.397   .     A
C414   H427    1.083   .     S
C414   C425    1.402   .     A
C415   C911    1.402   .     S
C415   N933    1.443   .     S
C416   H428    1.075   .     S
C416   C910    1.402   1_554 S
C416   C912    1.418   1_554 S
C417   C418    1.422   .     A
C417   C911    1.418   .     S
C417   C914    1.428   .     S
C418   C425    1.416   .     A
C418   C422    1.410   .     A
C419   C423    1.412   .     A
C419   C912    1.428   1_554 S
C419   C915    1.425   1_554 S
C420   C421    1.390   .     A
C420   C904    1.400   .     S
C420   C914    1.425   .     S
C421   C422    1.382   .     A
C422   H429    1.080   .     S
C423   H426    1.077   .     S
C430   H486    1.088   .     S
C430   C487    1.335   .     S
H433   C487    1.086   .     S
C434   H105    1.088   1_565 S
C434   C106    1.332   1_565 S
H437   C106    1.086   1_565 S
N438   O440    1.302   .     A
N438   C910    1.443   1_554 S
N438   O934    1.302   1_554 S
O439   N933    1.302   .     S
Zn441  O445    1.958   .     S
Zn441  O453    1.932   .     S
Zn441  O454    1.929   .     S
Zn441  O447    1.921   .     S
Zn442  O456    1.924   .     S
Zn442  O445    1.952   .     S
Zn442  O448    1.933   .     S
Zn442  O450    1.932   .     S
Zn443  O449    1.930   .     S
Zn443  O452    1.944   .     S
Zn443  O457    1.936   .     S
Zn443  O445    1.928   .     S
Zn444  O455    1.927   .     S
Zn444  O451    1.944   .     S
Zn444  O446    1.933   .     S
Zn444  O445    1.933   .     S
O446   C458    1.273   .     A
O447   C459    1.276   .     A
O448   C460    1.280   .     A
O449   C461    1.270   .     A
O450   C462    1.278   .     A
O451   C463    1.282   .     A
O452   C462    1.268   .     A
O453   C463    1.283   .     A
O454   C460    1.280   .     A
O455   C461    1.269   .     A
O456   C458    1.274   .     A
O457   C459    1.280   .     A
C458   C487    1.438   .     S
C459   C485    1.455   .     S
C460   C491    1.436   .     S
C461   C489    1.452   .     S
C462   C468    1.451   .     S
C463   C480    1.475   .     S
C464   C479    1.386   .     A
C464   H962    1.084   1_554 S
C464   C970    1.400   1_554 S
H465   C479    1.084   .     S
H466   C476    1.085   .     S
H467   C959    1.084   .     S
C468   C478    1.393   .     A
C468   C479    1.396   .     A
C469   C470    1.397   .     A
C469   H482    1.083   .     S
C469   C480    1.402   .     A
C470   C966    1.402   .     S
C470   N988    1.443   .     S
C471   H483    1.075   .     S
C471   C965    1.402   1_554 S
C471   C967    1.418   1_554 S
C472   C473    1.422   .     A
C472   C966    1.418   .     S
C472   C969    1.428   .     S
C473   C480    1.416   .     A
C473   C477    1.410   .     A
C474   C478    1.412   .     A
C474   C967    1.428   1_554 S
C474   C970    1.425   1_554 S
C475   C476    1.390   .     A
C475   C959    1.400   .     S
C475   C969    1.425   .     S
C476   C477    1.382   .     A
C477   H484    1.080   .     S
C478   H481    1.077   .     S
C485   H376    1.088   1_655 S
C485   C377    1.335   1_655 S
H488   C377    1.086   1_655 S
C489   H160    1.088   1_565 S
C489   C161    1.332   1_565 S
H492   C161    1.086   1_565 S
N493   O495    1.302   .     A
N493   C965    1.443   1_554 S
N493   O989    1.302   1_554 S
O494   N988    1.302   .     S
Zn496  O500    1.958   .     S
Zn496  O508    1.932   .     S
Zn496  O509    1.929   .     S
Zn496  O502    1.921   .     S
Zn497  O511    1.924   .     S
Zn497  O500    1.952   .     S
Zn497  O503    1.933   .     S
Zn497  O505    1.932   .     S
Zn498  O504    1.930   .     S
Zn498  O507    1.944   .     S
Zn498  O512    1.936   .     S
Zn498  O500    1.928   .     S
Zn499  O510    1.927   .     S
Zn499  O506    1.944   .     S
Zn499  O501    1.933   .     S
Zn499  O500    1.933   .     S
O501   C513    1.273   .     A
O502   C514    1.276   .     A
O503   C515    1.280   .     A
O504   C516    1.270   .     A
O505   C517    1.278   .     A
O506   C518    1.282   .     A
O507   C517    1.268   .     A
O508   C518    1.283   .     A
O509   C515    1.280   .     A
O510   C516    1.269   .     A
O511   C513    1.274   .     A
O512   C514    1.280   .     A
C513   C542    1.438   .     S
C514   C540    1.455   .     S
C515   C546    1.436   .     S
C516   C544    1.452   .     S
C517   C523    1.451   .     S
C518   C535    1.475   .     S
C519   C534    1.386   .     A
H520   C534    1.084   .     S
H521   C531    1.085   .     S
H522   C24     1.084   1_556 S
C523   C533    1.393   .     A
C523   C534    1.396   .     A
C524   C525    1.397   .     A
C524   H537    1.083   .     S
C524   C535    1.402   .     A
C525   C31     1.402   1_556 S
C525   N53     1.443   1_556 S
C526   H538    1.075   .     S
C527   C528    1.422   .     A
C527   C31     1.418   1_556 S
C527   C34     1.428   1_556 S
C528   C535    1.416   .     A
C528   C532    1.410   .     A
C529   C533    1.412   .     A
C530   C531    1.390   .     A
C530   C24     1.400   1_556 S
C530   C34     1.425   1_556 S
C531   C532    1.382   .     A
C532   H539    1.080   .     S
C533   H536    1.077   .     S
C540   H596    1.088   .     S
C540   C597    1.335   .     S
H541   C650    1.088   1_455 S
C542   C650    1.335   1_455 S
C542   H653    1.086   1_455 S
H543   C597    1.086   .     S
C544   H710    1.088   .     S
C544   C711    1.332   .     S
H545   C874    1.088   1_545 S
C546   C874    1.332   1_545 S
C546   H877    1.086   1_545 S
H547   C711    1.086   .     S
N548   O550    1.302   .     A
O549   N53     1.302   1_556 S
Zn551  O555    1.958   .     S
Zn551  O563    1.932   .     S
Zn551  O564    1.929   .     S
Zn551  O557    1.921   .     S
Zn552  O566    1.924   .     S
Zn552  O555    1.952   .     S
Zn552  O558    1.933   .     S
Zn552  O560    1.932   .     S
Zn553  O559    1.930   .     S
Zn553  O562    1.944   .     S
Zn553  O567    1.936   .     S
Zn553  O555    1.928   .     S
Zn554  O565    1.927   .     S
Zn554  O561    1.944   .     S
Zn554  O556    1.933   .     S
Zn554  O555    1.933   .     S
O556   C568    1.273   .     A
O557   C569    1.276   .     A
O558   C570    1.280   .     A
O559   C571    1.270   .     A
O560   C572    1.278   .     A
O561   C573    1.282   .     A
O562   C572    1.268   .     A
O563   C573    1.283   .     A
O564   C570    1.280   .     A
O565   C571    1.269   .     A
O566   C568    1.274   .     A
O567   C569    1.280   .     A
C568   C597    1.438   .     S
C569   C595    1.455   .     S
C570   C601    1.436   .     S
C571   C599    1.452   .     S
C572   C578    1.451   .     S
C573   C590    1.475   .     S
C574   C589    1.386   .     A
H575   C589    1.084   .     S
H576   C586    1.085   .     S
H577   C79     1.084   1_556 S
C578   C588    1.393   .     A
C578   C589    1.396   .     A
C579   C580    1.397   .     A
C579   H592    1.083   .     S
C579   C590    1.402   .     A
C580   C86     1.402   1_556 S
C580   N108    1.443   1_556 S
C581   H593    1.075   .     S
C582   C583    1.422   .     A
C582   C86     1.418   1_556 S
C582   C89     1.428   1_556 S
C583   C590    1.416   .     A
C583   C587    1.410   .     A
C584   C588    1.412   .     A
C585   C586    1.390   .     A
C585   C79     1.400   1_556 S
C585   C89     1.425   1_556 S
C586   C587    1.382   .     A
C587   H594    1.080   .     S
C588   H591    1.077   .     S
C595   H651    1.088   .     S
C595   C652    1.335   .     S
H598   C652    1.086   .     S
C599   H765    1.088   .     S
C599   C766    1.332   .     S
H600   C929    1.088   1_545 S
C601   C929    1.332   1_545 S
C601   H932    1.086   1_545 S
H602   C766    1.086   .     S
N603   O605    1.302   .     A
O604   N108    1.302   1_556 S
Zn606  O610    1.958   .     S
Zn606  O618    1.932   .     S
Zn606  O619    1.929   .     S
Zn606  O612    1.921   .     S
Zn607  O621    1.924   .     S
Zn607  O610    1.952   .     S
Zn607  O613    1.933   .     S
Zn607  O615    1.932   .     S
Zn608  O614    1.930   .     S
Zn608  O617    1.944   .     S
Zn608  O622    1.936   .     S
Zn608  O610    1.928   .     S
Zn609  O620    1.927   .     S
Zn609  O616    1.944   .     S
Zn609  O611    1.933   .     S
Zn609  O610    1.933   .     S
O611   C623    1.273   .     A
O612   C624    1.276   .     A
O613   C625    1.280   .     A
O614   C626    1.270   .     A
O615   C627    1.278   .     A
O616   C628    1.282   .     A
O617   C627    1.268   .     A
O618   C628    1.283   .     A
O619   C625    1.280   .     A
O620   C626    1.269   .     A
O621   C623    1.274   .     A
O622   C624    1.280   .     A
C623   C652    1.438   .     S
C624   C650    1.455   .     S
C625   C656    1.436   .     S
C626   C654    1.452   .     S
C627   C633    1.451   .     S
C628   C645    1.475   .     S
C629   C644    1.386   .     A
H630   C644    1.084   .     S
H631   C641    1.085   .     S
H632   C134    1.084   1_556 S
C633   C643    1.393   .     A
C633   C644    1.396   .     A
C634   C635    1.397   .     A
C634   H647    1.083   .     S
C634   C645    1.402   .     A
C635   C141    1.402   1_556 S
C635   N163    1.443   1_556 S
C636   H648    1.075   .     S
C637   C638    1.422   .     A
C637   C141    1.418   1_556 S
C637   C144    1.428   1_556 S
C638   C645    1.416   .     A
C638   C642    1.410   .     A
C639   C643    1.412   .     A
C640   C641    1.390   .     A
C640   C134    1.400   1_556 S
C640   C144    1.425   1_556 S
C641   C642    1.382   .     A
C642   H649    1.080   .     S
C643   H646    1.077   .     S
C650   H541    1.088   1_655 S
C650   C542    1.335   1_655 S
H653   C542    1.086   1_655 S
C654   H820    1.088   .     S
C654   C821    1.332   .     S
H655   C984    1.088   1_545 S
C656   C984    1.332   1_545 S
C656   H987    1.086   1_545 S
H657   C821    1.086   .     S
N658   O660    1.302   .     A
O659   N163    1.302   1_556 S
Zn661  O665    1.958   .     S
Zn661  O673    1.932   .     S
Zn661  O674    1.929   .     S
Zn661  O667    1.921   .     S
Zn662  O676    1.924   .     S
Zn662  O665    1.952   .     S
Zn662  O668    1.933   .     S
Zn662  O670    1.932   .     S
Zn663  O669    1.930   .     S
Zn663  O672    1.944   .     S
Zn663  O677    1.936   .     S
Zn663  O665    1.928   .     S
Zn664  O675    1.927   .     S
Zn664  O671    1.944   .     S
Zn664  O666    1.933   .     S
Zn664  O665    1.933   .     S
O666   C678    1.273   .     A
O667   C679    1.276   .     A
O668   C680    1.280   .     A
O669   C681    1.270   .     A
O670   C682    1.278   .     A
O671   C683    1.282   .     A
O672   C682    1.268   .     A
O673   C683    1.283   .     A
O674   C680    1.280   .     A
O675   C681    1.269   .     A
O676   C678    1.274   .     A
O677   C679    1.280   .     A
C678   C707    1.438   .     S
C679   C705    1.455   .     S
C680   C711    1.436   .     S
C681   C709    1.452   .     S
C682   C688    1.451   .     S
C683   C700    1.475   .     S
C684   C699    1.386   .     A
H685   C699    1.084   .     S
H686   C696    1.085   .     S
H687   C189    1.084   1_556 S
C688   C698    1.393   .     A
C688   C699    1.396   .     A
C689   C690    1.397   .     A
C689   H702    1.083   .     S
C689   C700    1.402   .     A
C690   C196    1.402   1_556 S
C690   N218    1.443   1_556 S
C691   H703    1.075   .     S
C692   C693    1.422   .     A
C692   C196    1.418   1_556 S
C692   C199    1.428   1_556 S
C693   C700    1.416   .     A
C693   C697    1.410   .     A
C694   C698    1.412   .     A
C695   C696    1.390   .     A
C695   C189    1.400   1_556 S
C695   C199    1.425   1_556 S
C696   C697    1.382   .     A
C697   H704    1.080   .     S
C698   H701    1.077   .     S
C705   H761    1.088   .     S
C705   C762    1.335   .     S
H706   C815    1.088   1_455 S
C707   C815    1.335   1_455 S
C707   H818    1.086   1_455 S
H708   C762    1.086   .     S
C709   H875    1.088   .     S
C709   C876    1.332   .     S
H712   C876    1.086   .     S
N713   O715    1.302   .     A
O714   N218    1.302   1_556 S
Zn716  O720    1.958   .     S
Zn716  O728    1.932   .     S
Zn716  O729    1.929   .     S
Zn716  O722    1.921   .     S
Zn717  O731    1.924   .     S
Zn717  O720    1.952   .     S
Zn717  O723    1.933   .     S
Zn717  O725    1.932   .     S
Zn718  O724    1.930   .     S
Zn718  O727    1.944   .     S
Zn718  O732    1.936   .     S
Zn718  O720    1.928   .     S
Zn719  O730    1.927   .     S
Zn719  O726    1.944   .     S
Zn719  O721    1.933   .     S
Zn719  O720    1.933   .     S
O721   C733    1.273   .     A
O722   C734    1.276   .     A
O723   C735    1.280   .     A
O724   C736    1.270   .     A
O725   C737    1.278   .     A
O726   C738    1.282   .     A
O727   C737    1.268   .     A
O728   C738    1.283   .     A
O729   C735    1.280   .     A
O730   C736    1.269   .     A
O731   C733    1.274   .     A
O732   C734    1.280   .     A
C733   C762    1.438   .     S
C734   C760    1.455   .     S
C735   C766    1.436   .     S
C736   C764    1.452   .     S
C737   C743    1.451   .     S
C738   C755    1.475   .     S
C739   C754    1.386   .     A
H740   C754    1.084   .     S
H741   C751    1.085   .     S
H742   C244    1.084   1_556 S
C743   C753    1.393   .     A
C743   C754    1.396   .     A
C744   C745    1.397   .     A
C744   H757    1.083   .     S
C744   C755    1.402   .     A
C745   C251    1.402   1_556 S
C745   N273    1.443   1_556 S
C746   H758    1.075   .     S
C747   C748    1.422   .     A
C747   C251    1.418   1_556 S
C747   C254    1.428   1_556 S
C748   C755    1.416   .     A
C748   C752    1.410   .     A
C749   C753    1.412   .     A
C750   C751    1.390   .     A
C750   C244    1.400   1_556 S
C750   C254    1.425   1_556 S
C751   C752    1.382   .     A
C752   H759    1.080   .     S
C753   H756    1.077   .     S
C760   H816    1.088   .     S
C760   C817    1.335   .     S
H763   C817    1.086   .     S
C764   H930    1.088   .     S
C764   C931    1.332   .     S
H767   C931    1.086   .     S
N768   O770    1.302   .     A
O769   N273    1.302   1_556 S
Zn771  O775    1.958   .     S
Zn771  O783    1.932   .     S
Zn771  O784    1.929   .     S
Zn771  O777    1.921   .     S
Zn772  O786    1.924   .     S
Zn772  O775    1.952   .     S
Zn772  O778    1.933   .     S
Zn772  O780    1.932   .     S
Zn773  O779    1.930   .     S
Zn773  O782    1.944   .     S
Zn773  O787    1.936   .     S
Zn773  O775    1.928   .     S
Zn774  O785    1.927   .     S
Zn774  O781    1.944   .     S
Zn774  O776    1.933   .     S
Zn774  O775    1.933   .     S
O776   C788    1.273   .     A
O777   C789    1.276   .     A
O778   C790    1.280   .     A
O779   C791    1.270   .     A
O780   C792    1.278   .     A
O781   C793    1.282   .     A
O782   C792    1.268   .     A
O783   C793    1.283   .     A
O784   C790    1.280   .     A
O785   C791    1.269   .     A
O786   C788    1.274   .     A
O787   C789    1.280   .     A
C788   C817    1.438   .     S
C789   C815    1.455   .     S
C790   C821    1.436   .     S
C791   C819    1.452   .     S
C792   C798    1.451   .     S
C793   C810    1.475   .     S
C794   C809    1.386   .     A
H795   C809    1.084   .     S
H796   C806    1.085   .     S
H797   C299    1.084   1_556 S
C798   C808    1.393   .     A
C798   C809    1.396   .     A
C799   C800    1.397   .     A
C799   H812    1.083   .     S
C799   C810    1.402   .     A
C800   C306    1.402   1_556 S
C800   N328    1.443   1_556 S
C801   H813    1.075   .     S
C802   C803    1.422   .     A
C802   C306    1.418   1_556 S
C802   C309    1.428   1_556 S
C803   C810    1.416   .     A
C803   C807    1.410   .     A
C804   C808    1.412   .     A
C805   C806    1.390   .     A
C805   C299    1.400   1_556 S
C805   C309    1.425   1_556 S
C806   C807    1.382   .     A
C807   H814    1.080   .     S
C808   H811    1.077   .     S
C815   H706    1.088   1_655 S
C815   C707    1.335   1_655 S
H818   C707    1.086   1_655 S
C819   H985    1.088   .     S
C819   C986    1.332   .     S
H822   C986    1.086   .     S
N823   O825    1.302   .     A
O824   N328    1.302   1_556 S
Zn826  O830    1.958   .     S
Zn826  O838    1.932   .     S
Zn826  O839    1.929   .     S
Zn826  O832    1.921   .     S
Zn827  O841    1.924   .     S
Zn827  O830    1.952   .     S
Zn827  O833    1.933   .     S
Zn827  O835    1.932   .     S
Zn828  O834    1.930   .     S
Zn828  O837    1.944   .     S
Zn828  O842    1.936   .     S
Zn828  O830    1.928   .     S
Zn829  O840    1.927   .     S
Zn829  O836    1.944   .     S
Zn829  O831    1.933   .     S
Zn829  O830    1.933   .     S
O831   C843    1.273   .     A
O832   C844    1.276   .     A
O833   C845    1.280   .     A
O834   C846    1.270   .     A
O835   C847    1.278   .     A
O836   C848    1.282   .     A
O837   C847    1.268   .     A
O838   C848    1.283   .     A
O839   C845    1.280   .     A
O840   C846    1.269   .     A
O841   C843    1.274   .     A
O842   C844    1.280   .     A
C843   C872    1.438   .     S
C844   C870    1.455   .     S
C845   C876    1.436   .     S
C846   C874    1.452   .     S
C847   C853    1.451   .     S
C848   C865    1.475   .     S
C849   C864    1.386   .     A
H850   C864    1.084   .     S
H851   C861    1.085   .     S
H852   C354    1.084   1_556 S
C853   C863    1.393   .     A
C853   C864    1.396   .     A
C854   C855    1.397   .     A
C854   H867    1.083   .     S
C854   C865    1.402   .     A
C855   C361    1.402   1_556 S
C855   N383    1.443   1_556 S
C856   H868    1.075   .     S
C857   C858    1.422   .     A
C857   C361    1.418   1_556 S
C857   C364    1.428   1_556 S
C858   C865    1.416   .     A
C858   C862    1.410   .     A
C859   C863    1.412   .     A
C860   C861    1.390   .     A
C860   C354    1.400   1_556 S
C860   C364    1.425   1_556 S
C861   C862    1.382   .     A
C862   H869    1.080   .     S
C863   H866    1.077   .     S
C870   H926    1.088   .     S
C870   C927    1.335   .     S
H871   C980    1.088   1_455 S
C872   C980    1.335   1_455 S
C872   H983    1.086   1_455 S
H873   C927    1.086   .     S
C874   H545    1.088   1_565 S
C874   C546    1.332   1_565 S
H877   C546    1.086   1_565 S
N878   O880    1.302   .     A
O879   N383    1.302   1_556 S
Zn881  O885    1.958   .     S
Zn881  O893    1.932   .     S
Zn881  O894    1.929   .     S
Zn881  O887    1.921   .     S
Zn882  O896    1.924   .     S
Zn882  O885    1.952   .     S
Zn882  O888    1.933   .     S
Zn882  O890    1.932   .     S
Zn883  O889    1.930   .     S
Zn883  O892    1.944   .     S
Zn883  O897    1.936   .     S
Zn883  O885    1.928   .     S
Zn884  O895    1.927   .     S
Zn884  O891    1.944   .     S
Zn884  O886    1.933   .     S
Zn884  O885    1.933   .     S
O886   C898    1.273   .     A
O887   C899    1.276   .     A
O888   C900    1.280   .     A
O889   C901    1.270   .     A
O890   C902    1.278   .     A
O891   C903    1.282   .     A
O892   C902    1.268   .     A
O893   C903    1.283   .     A
O894   C900    1.280   .     A
O895   C901    1.269   .     A
O896   C898    1.274   .     A
O897   C899    1.280   .     A
C898   C927    1.438   .     S
C899   C925    1.455   .     S
C900   C931    1.436   .     S
C901   C929    1.452   .     S
C902   C908    1.451   .     S
C903   C920    1.475   .     S
C904   C919    1.386   .     A
H905   C919    1.084   .     S
H906   C916    1.085   .     S
H907   C409    1.084   1_556 S
C908   C918    1.393   .     A
C908   C919    1.396   .     A
C909   C910    1.397   .     A
C909   H922    1.083   .     S
C909   C920    1.402   .     A
C910   C416    1.402   1_556 S
C910   N438    1.443   1_556 S
C911   H923    1.075   .     S
C912   C913    1.422   .     A
C912   C416    1.418   1_556 S
C912   C419    1.428   1_556 S
C913   C920    1.416   .     A
C913   C917    1.410   .     A
C914   C918    1.412   .     A
C915   C916    1.390   .     A
C915   C409    1.400   1_556 S
C915   C419    1.425   1_556 S
C916   C917    1.382   .     A
C917   H924    1.080   .     S
C918   H921    1.077   .     S
C925   H981    1.088   .     S
C925   C982    1.335   .     S
H928   C982    1.086   .     S
C929   H600    1.088   1_565 S
C929   C601    1.332   1_565 S
H932   C601    1.086   1_565 S
N933   O935    1.302   .     A
O934   N438    1.302   1_556 S
Zn936  O940    1.958   .     S
Zn936  O948    1.932   .     S
Zn936  O949    1.929   .     S
Zn936  O942    1.921   .     S
Zn937  O951    1.924   .     S
Zn937  O940    1.952   .     S
Zn937  O943    1.933   .     S
Zn937  O945    1.932   .     S
Zn938  O944    1.930   .     S
Zn938  O947    1.944   .     S
Zn938  O952    1.936   .     S
Zn938  O940    1.928   .     S
Zn939  O950    1.927   .     S
Zn939  O946    1.944   .     S
Zn939  O941    1.933   .     S
Zn939  O940    1.933   .     S
O941   C953    1.273   .     A
O942   C954    1.276   .     A
O943   C955    1.280   .     A
O944   C956    1.270   .     A
O945   C957    1.278   .     A
O946   C958    1.282   .     A
O947   C957    1.268   .     A
O948   C958    1.283   .     A
O949   C955    1.280   .     A
O950   C956    1.269   .     A
O951   C953    1.274   .     A
O952   C954    1.280   .     A
C953   C982    1.438   .     S
C954   C980    1.455   .     S
C955   C986    1.436   .     S
C956   C984    1.452   .     S
C957   C963    1.451   .     S
C958   C975    1.475   .     S
C959   C974    1.386   .     A
H960   C974    1.084   .     S
H961   C971    1.085   .     S
H962   C464    1.084   1_556 S
C963   C973    1.393   .     A
C963   C974    1.396   .     A
C964   C965    1.397   .     A
C964   H977    1.083   .     S
C964   C975    1.402   .     A
C965   C471    1.402   1_556 S
C965   N493    1.443   1_556 S
C966   H978    1.075   .     S
C967   C968    1.422   .     A
C967   C471    1.418   1_556 S
C967   C474    1.428   1_556 S
C968   C975    1.416   .     A
C968   C972    1.410   .     A
C969   C973    1.412   .     A
C970   C971    1.390   .     A
C970   C464    1.400   1_556 S
C970   C474    1.425   1_556 S
C971   C972    1.382   .     A
C972   H979    1.080   .     S
C973   H976    1.077   .     S
C980   H871    1.088   1_655 S
C980   C872    1.335   1_655 S
H983   C872    1.086   1_655 S
C984   H655    1.088   1_565 S
C984   C656    1.332   1_565 S
H987   C656    1.086   1_565 S
N988   O990    1.302   .     A
O989   N493    1.302   1_556 S
