data_str_m3_o1_o1_pcu_sym.64
_audit_creation_date              2020-01-03
_audit_creation_method            'Materials Studio'
_symmetry_space_group_name_H-M    'P1'
_symmetry_Int_Tables_number       1
_symmetry_cell_setting            triclinic
loop_
_symmetry_equiv_pos_as_xyz
  x,y,z
_cell_length_a                    30.2969
_cell_length_b                    30.1238
_cell_length_c                    29.4924
_cell_angle_alpha                 89.9208
_cell_angle_beta                  89.3385
_cell_angle_gamma                 89.8552
loop_
_atom_site_label
_atom_site_type_symbol
_atom_site_fract_x
_atom_site_fract_y
_atom_site_fract_z
_atom_site_U_iso_or_equiv
_atom_site_adp_type
_atom_site_occupancy
C1     C     0.05569   0.18591   0.16676   0.00000  Uiso   1.00
C2     C     0.48872   0.21278   0.30953   0.00000  Uiso   1.00
C3     C     0.48864   0.21277   0.02415   0.00000  Uiso   1.00
C4     C     0.01098   0.28731   0.30922   0.00000  Uiso   1.00
C5     C     0.23973   0.03758   0.02404   0.00000  Uiso   1.00
C6     C     0.26065   0.46249   0.30930   0.00000  Uiso   1.00
C7     C     0.26058   0.46251   0.02392   0.00000  Uiso   1.00
C8     C     0.24028   0.03768   0.30942   0.00000  Uiso   1.00
C9     C     0.37043   0.16465   0.12821   0.00000  Uiso   1.00
C10    C     0.12958   0.33572   0.20469   0.00000  Uiso   1.00
C11    C     0.12320   0.34465   0.12268   0.00000  Uiso   1.00
C12    C     0.44280   0.31322   0.16653   0.00000  Uiso   1.00
C13    C     0.37537   0.15814   0.21008   0.00000  Uiso   1.00
C14    C     0.09293   0.12635   0.20990   0.00000  Uiso   1.00
C15    C     0.40430   0.37293   0.12312   0.00000  Uiso   1.00
C16    C     0.40981   0.37911   0.20581   0.00000  Uiso   1.00
C17    C     0.08834   0.11946   0.12790   0.00000  Uiso   1.00
C18    C     0.15543   0.37723   0.12344   0.00000  Uiso   1.00
C19    C     0.34649   0.12234   0.20982   0.00000  Uiso   1.00
C20    C     0.34216   0.12808   0.12684   0.00000  Uiso   1.00
C21    C     0.15899   0.37138   0.20604   0.00000  Uiso   1.00
C22    C     0.38009   0.41467   0.20495   0.00000  Uiso   1.00
C23    C     0.43533   0.19577   0.16709   0.00000  Uiso   1.00
C24    C     0.11937   0.08496   0.12914   0.00000  Uiso   1.00
C25    C     0.12716   0.09582   0.21081   0.00000  Uiso   1.00
C26    C     0.37475   0.40832   0.12307   0.00000  Uiso   1.00
C27    C     0.10619   0.32846   0.16438   0.00000  Uiso   1.00
C28    C     0.39292   0.17316   0.16854   0.00000  Uiso   1.00
C29    C     0.41756   0.35460   0.16540   0.00000  Uiso   1.00
C30    C     0.07971   0.14390   0.16785   0.00000  Uiso   1.00
C31    C     0.33369   0.10385   0.16747   0.00000  Uiso   1.00
C32    C     0.16819   0.39527   0.16565   0.00000  Uiso   1.00
C33    C     0.14413   0.07941   0.16906   0.00000  Uiso   1.00
C34    C     0.06410   0.30531   0.16615   0.00000  Uiso   1.00
C35    C     0.35701   0.42281   0.16478   0.00000  Uiso   1.00
C36    C     0.37350   0.19656   0.08967   0.00000  Uiso   1.00
C37    C     0.12644   0.30349   0.24306   0.00000  Uiso   1.00
C38    C     0.10818   0.32883   0.07764   0.00000  Uiso   1.00
C39    C     0.38528   0.18132   0.25330   0.00000  Uiso   1.00
C40    C     0.06822   0.13529   0.25261   0.00000  Uiso   1.00
C41    C     0.42327   0.35895   0.07871   0.00000  Uiso   1.00
C42    C     0.43657   0.37203   0.24686   0.00000  Uiso   1.00
C43    C     0.06177   0.12669   0.08693   0.00000  Uiso   1.00
C44    C     0.17715   0.38915   0.07969   0.00000  Uiso   1.00
C45    C     0.31455   0.44548   0.16627   0.00000  Uiso   1.00
C46    C     0.32902   0.10656   0.25420   0.00000  Uiso   1.00
C47    C     0.31968   0.11819   0.08376   0.00000  Uiso   1.00
C48    C     0.18164   0.38162   0.24882   0.00000  Uiso   1.00
C49    C     0.37708   0.44664   0.24331   0.00000  Uiso   1.00
C50    C     0.12212   0.05167   0.09180   0.00000  Uiso   1.00
C51    C     0.14352   0.08188   0.25596   0.00000  Uiso   1.00
C52    C     0.36444   0.43160   0.07989   0.00000  Uiso   1.00
C53    C     0.18626   0.05605   0.16718   0.00000  Uiso   1.00
C54    C     0.19317   0.43663   0.16662   0.00000  Uiso   1.00
C55    C     0.30780   0.06284   0.16667   0.00000  Uiso   1.00
C56    C     0.01042   0.28741   0.02384   0.00000  Uiso   1.00
H57    H     0.01802   0.31731   0.04209   0.00000  Uiso   1.00
H58    H     0.12397   0.23937   0.26243   0.00000  Uiso   1.00
H59    H     0.08472   0.34597   0.01622   0.00000  Uiso   1.00
H60    H     0.39117   0.24014   0.28557   0.00000  Uiso   1.00
H61    H     0.01917   0.11587   0.29499   0.00000  Uiso   1.00
H62    H     0.46510   0.37381   0.02735   0.00000  Uiso   1.00
H63    H     0.49171   0.38826   0.28066   0.00000  Uiso   1.00
H64    H     0.05873   0.15163   0.02418   0.00000  Uiso   1.00
H65    H     0.22120   0.37125   0.03121   0.00000  Uiso   1.00
H66    H     0.33484   0.06326   0.30599   0.00000  Uiso   1.00
H67    H     0.27146   0.13503   0.04044   0.00000  Uiso   1.00
H68    H     0.47987   0.18308   0.29146   0.00000  Uiso   1.00
H69    H     0.17987   0.41458   0.30790   0.00000  Uiso   1.00
H70    H     0.37398   0.45706   0.31033   0.00000  Uiso   1.00
H71    H     0.12397   0.03906   0.02481   0.00000  Uiso   1.00
H72    H     0.16784   0.10158   0.31619   0.00000  Uiso   1.00
H73    H     0.35825   0.49040   0.04747   0.00000  Uiso   1.00
H74    H     0.47950   0.18297   0.04237   0.00000  Uiso   1.00
H75    H     0.02020   0.31700   0.29097   0.00000  Uiso   1.00
H76    H     0.23113   0.06751   0.04225   0.00000  Uiso   1.00
H77    H     0.26925   0.43250   0.29116   0.00000  Uiso   1.00
H78    H     0.26891   0.43260   0.04210   0.00000  Uiso   1.00
H79    H     0.23331   0.06787   0.29119   0.00000  Uiso   1.00
H80    H     0.37811   0.20687   0.02273   0.00000  Uiso   1.00
N81    N     0.00000   0.25000   0.28573   0.00000  Uiso   1.00
N82    N     0.00000   0.25000   0.04760   0.00000  Uiso   1.00
N83    N     0.25000  -0.00000   0.28573   0.00000  Uiso   1.00
N84    N     0.25000  -0.00000   0.04760   0.00000  Uiso   1.00
O85    O     0.04580   0.20419   0.20487   0.00000  Uiso   1.00
O86    O     0.20419   0.04581   0.12846   0.00000  Uiso   1.00
O87    O     0.20419   0.04581   0.20487   0.00000  Uiso   1.00
O88    O     0.29580   0.45419   0.12846   0.00000  Uiso   1.00
O89    O     0.20419   0.45419   0.12846   0.00000  Uiso   1.00
O90    O     0.29580   0.04581   0.20487   0.00000  Uiso   1.00
O91    O     0.29580   0.04581   0.12846   0.00000  Uiso   1.00
O92    O     0.20419   0.45419   0.20487   0.00000  Uiso   1.00
O93    O     0.37277   0.23648   0.09727   0.00000  Uiso   1.00
O94    O     0.37711   0.18141   0.04514   0.00000  Uiso   1.00
O95    O     0.12532   0.31635   0.28230   0.00000  Uiso   1.00
O96    O     0.45419   0.29581   0.12846   0.00000  Uiso   1.00
O97    O     0.12540   0.25801   0.23382   0.00000  Uiso   1.00
O98    O     0.11170   0.28963   0.06742   0.00000  Uiso   1.00
O99    O     0.09182   0.35965   0.04653   0.00000  Uiso   1.00
O100   O     0.39763   0.16020   0.28622   0.00000  Uiso   1.00
O101   O     0.38144   0.22757   0.25547   0.00000  Uiso   1.00
O102   O     0.08074   0.16433   0.27828   0.00000  Uiso   1.00
O103   O     0.03171   0.10907   0.26378   0.00000  Uiso   1.00
O104   O     0.40717   0.32779   0.05819   0.00000  Uiso   1.00
O105   O     0.45745   0.38380   0.05926   0.00000  Uiso   1.00
O106   O     0.42228   0.34917   0.27799   0.00000  Uiso   1.00
O107   O     0.45419   0.29581   0.20487   0.00000  Uiso   1.00
O108   O     0.47757   0.39283   0.25006   0.00000  Uiso   1.00
O109   O     0.02304   0.11539   0.08668   0.00000  Uiso   1.00
O110   O     0.08077   0.14756   0.04929   0.00000  Uiso   1.00
O111   O     0.16356   0.42068   0.05770   0.00000  Uiso   1.00
O112   O     0.21117   0.36226   0.06278   0.00000  Uiso   1.00
O113   O     0.29690   0.12483   0.27138   0.00000  Uiso   1.00
O114   O     0.35013   0.07162   0.27648   0.00000  Uiso   1.00
O115   O     0.33526   0.09051   0.05784   0.00000  Uiso   1.00
O116   O     0.28207   0.14234   0.07201   0.00000  Uiso   1.00
O117   O     0.21890   0.36750   0.25526   0.00000  Uiso   1.00
O118   O     0.04580   0.20419   0.12846   0.00000  Uiso   1.00
O119   O     0.16032   0.40801   0.28122   0.00000  Uiso   1.00
O120   O     0.37698   0.48652   0.23546   0.00000  Uiso   1.00
O121   O     0.37478   0.43158   0.28800   0.00000  Uiso   1.00
O122   O     0.12366   0.01209   0.10104   0.00000  Uiso   1.00
O123   O     0.12238   0.06511   0.04650   0.00000  Uiso   1.00
O124   O     0.14073   0.04307   0.26785   0.00000  Uiso   1.00
O125   O     0.15996   0.11401   0.28544   0.00000  Uiso   1.00
O126   O     0.35199   0.41052   0.04707   0.00000  Uiso   1.00
O127   O     0.36811   0.47784   0.07759   0.00000  Uiso   1.00
O128   O     0.45419   0.20419   0.12846   0.00000  Uiso   1.00
O129   O     0.04580   0.29581   0.20487   0.00000  Uiso   1.00
O130   O     0.04580   0.29581   0.12846   0.00000  Uiso   1.00
O131   O     0.45419   0.20419   0.20487   0.00000  Uiso   1.00
O132   O     0.29580   0.45419   0.20487   0.00000  Uiso   1.00
Zn133  Zn    0.00000   0.25000   0.21771   0.00000  Uiso   1.00
Zn134  Zn   -0.00000   0.25000   0.11563   0.00000  Uiso   1.00
Zn135  Zn    0.25000  -0.00000   0.21771   0.00000  Uiso   1.00
Zn136  Zn    0.25000  -0.00000   0.11563   0.00000  Uiso   1.00
C137   C     0.55569   0.18591   0.16676   0.00000  Uiso   1.00
C138   C     0.98872   0.21278   0.30953   0.00000  Uiso   1.00
C139   C     0.98864   0.21277   0.02415   0.00000  Uiso   1.00
C140   C     0.51098   0.28731   0.30922   0.00000  Uiso   1.00
C141   C     0.73973   0.03758   0.02404   0.00000  Uiso   1.00
C142   C     0.76065   0.46249   0.30930   0.00000  Uiso   1.00
C143   C     0.76058   0.46251   0.02392   0.00000  Uiso   1.00
C144   C     0.74028   0.03768   0.30942   0.00000  Uiso   1.00
C145   C     0.87043   0.16465   0.12821   0.00000  Uiso   1.00
C146   C     0.62958   0.33572   0.20469   0.00000  Uiso   1.00
C147   C     0.62320   0.34465   0.12268   0.00000  Uiso   1.00
C148   C     0.94280   0.31322   0.16653   0.00000  Uiso   1.00
C149   C     0.87537   0.15814   0.21008   0.00000  Uiso   1.00
C150   C     0.59293   0.12635   0.20990   0.00000  Uiso   1.00
C151   C     0.90430   0.37293   0.12312   0.00000  Uiso   1.00
C152   C     0.90981   0.37911   0.20581   0.00000  Uiso   1.00
C153   C     0.58834   0.11946   0.12790   0.00000  Uiso   1.00
C154   C     0.65543   0.37723   0.12344   0.00000  Uiso   1.00
C155   C     0.84649   0.12234   0.20982   0.00000  Uiso   1.00
C156   C     0.84216   0.12808   0.12684   0.00000  Uiso   1.00
C157   C     0.65899   0.37138   0.20604   0.00000  Uiso   1.00
C158   C     0.88009   0.41467   0.20495   0.00000  Uiso   1.00
C159   C     0.93533   0.19577   0.16709   0.00000  Uiso   1.00
C160   C     0.61937   0.08496   0.12914   0.00000  Uiso   1.00
C161   C     0.62716   0.09582   0.21081   0.00000  Uiso   1.00
C162   C     0.87475   0.40832   0.12307   0.00000  Uiso   1.00
C163   C     0.60619   0.32846   0.16438   0.00000  Uiso   1.00
C164   C     0.89292   0.17316   0.16854   0.00000  Uiso   1.00
C165   C     0.91756   0.35460   0.16540   0.00000  Uiso   1.00
C166   C     0.57971   0.14390   0.16785   0.00000  Uiso   1.00
C167   C     0.83369   0.10385   0.16747   0.00000  Uiso   1.00
C168   C     0.66819   0.39527   0.16565   0.00000  Uiso   1.00
C169   C     0.64413   0.07941   0.16906   0.00000  Uiso   1.00
C170   C     0.56410   0.30531   0.16615   0.00000  Uiso   1.00
C171   C     0.85701   0.42281   0.16478   0.00000  Uiso   1.00
C172   C     0.87350   0.19656   0.08967   0.00000  Uiso   1.00
C173   C     0.62644   0.30349   0.24306   0.00000  Uiso   1.00
C174   C     0.60818   0.32883   0.07764   0.00000  Uiso   1.00
C175   C     0.88528   0.18132   0.25330   0.00000  Uiso   1.00
C176   C     0.56822   0.13529   0.25261   0.00000  Uiso   1.00
C177   C     0.92327   0.35895   0.07871   0.00000  Uiso   1.00
C178   C     0.93657   0.37203   0.24686   0.00000  Uiso   1.00
C179   C     0.56177   0.12669   0.08693   0.00000  Uiso   1.00
C180   C     0.67715   0.38915   0.07969   0.00000  Uiso   1.00
C181   C     0.81455   0.44548   0.16627   0.00000  Uiso   1.00
C182   C     0.82902   0.10656   0.25420   0.00000  Uiso   1.00
C183   C     0.81968   0.11819   0.08376   0.00000  Uiso   1.00
C184   C     0.68164   0.38162   0.24882   0.00000  Uiso   1.00
C185   C     0.87708   0.44664   0.24331   0.00000  Uiso   1.00
C186   C     0.62212   0.05167   0.09180   0.00000  Uiso   1.00
C187   C     0.64352   0.08188   0.25596   0.00000  Uiso   1.00
C188   C     0.86444   0.43160   0.07989   0.00000  Uiso   1.00
C189   C     0.68626   0.05605   0.16718   0.00000  Uiso   1.00
C190   C     0.69317   0.43663   0.16662   0.00000  Uiso   1.00
C191   C     0.80780   0.06284   0.16667   0.00000  Uiso   1.00
C192   C     0.51042   0.28741   0.02384   0.00000  Uiso   1.00
H193   H     0.51802   0.31731   0.04209   0.00000  Uiso   1.00
H194   H     0.62397   0.23937   0.26243   0.00000  Uiso   1.00
H195   H     0.58472   0.34597   0.01622   0.00000  Uiso   1.00
H196   H     0.89117   0.24014   0.28557   0.00000  Uiso   1.00
H197   H     0.51917   0.11587   0.29499   0.00000  Uiso   1.00
H198   H     0.96510   0.37381   0.02735   0.00000  Uiso   1.00
H199   H     0.99171   0.38826   0.28066   0.00000  Uiso   1.00
H200   H     0.55873   0.15163   0.02418   0.00000  Uiso   1.00
H201   H     0.72120   0.37125   0.03121   0.00000  Uiso   1.00
H202   H     0.83484   0.06326   0.30599   0.00000  Uiso   1.00
H203   H     0.77146   0.13503   0.04044   0.00000  Uiso   1.00
H204   H     0.97987   0.18308   0.29146   0.00000  Uiso   1.00
H205   H     0.67987   0.41458   0.30790   0.00000  Uiso   1.00
H206   H     0.87398   0.45706   0.31033   0.00000  Uiso   1.00
H207   H     0.62397   0.03906   0.02481   0.00000  Uiso   1.00
H208   H     0.66784   0.10158   0.31619   0.00000  Uiso   1.00
H209   H     0.85825   0.49040   0.04747   0.00000  Uiso   1.00
H210   H     0.97950   0.18297   0.04237   0.00000  Uiso   1.00
H211   H     0.52020   0.31700   0.29097   0.00000  Uiso   1.00
H212   H     0.73113   0.06751   0.04225   0.00000  Uiso   1.00
H213   H     0.76925   0.43250   0.29116   0.00000  Uiso   1.00
H214   H     0.76891   0.43260   0.04210   0.00000  Uiso   1.00
H215   H     0.73331   0.06787   0.29119   0.00000  Uiso   1.00
H216   H     0.87811   0.20687   0.02273   0.00000  Uiso   1.00
N217   N     0.50000   0.25000   0.28573   0.00000  Uiso   1.00
N218   N     0.50000   0.25000   0.04760   0.00000  Uiso   1.00
N219   N     0.75000  -0.00000   0.28573   0.00000  Uiso   1.00
N220   N     0.75000  -0.00000   0.04760   0.00000  Uiso   1.00
O221   O     0.54580   0.20419   0.20487   0.00000  Uiso   1.00
O222   O     0.70419   0.04581   0.12846   0.00000  Uiso   1.00
O223   O     0.70419   0.04581   0.20487   0.00000  Uiso   1.00
O224   O     0.79580   0.45419   0.12846   0.00000  Uiso   1.00
O225   O     0.70419   0.45419   0.12846   0.00000  Uiso   1.00
O226   O     0.79580   0.04581   0.20487   0.00000  Uiso   1.00
O227   O     0.79580   0.04581   0.12846   0.00000  Uiso   1.00
O228   O     0.70419   0.45419   0.20487   0.00000  Uiso   1.00
O229   O     0.87277   0.23648   0.09727   0.00000  Uiso   1.00
O230   O     0.87711   0.18141   0.04514   0.00000  Uiso   1.00
O231   O     0.62532   0.31635   0.28230   0.00000  Uiso   1.00
O232   O     0.95419   0.29581   0.12846   0.00000  Uiso   1.00
O233   O     0.62540   0.25801   0.23382   0.00000  Uiso   1.00
O234   O     0.61170   0.28963   0.06742   0.00000  Uiso   1.00
O235   O     0.59182   0.35965   0.04653   0.00000  Uiso   1.00
O236   O     0.89763   0.16020   0.28622   0.00000  Uiso   1.00
O237   O     0.88144   0.22757   0.25547   0.00000  Uiso   1.00
O238   O     0.58074   0.16433   0.27828   0.00000  Uiso   1.00
O239   O     0.53171   0.10907   0.26378   0.00000  Uiso   1.00
O240   O     0.90717   0.32779   0.05819   0.00000  Uiso   1.00
O241   O     0.95745   0.38380   0.05926   0.00000  Uiso   1.00
O242   O     0.92228   0.34917   0.27799   0.00000  Uiso   1.00
O243   O     0.95419   0.29581   0.20487   0.00000  Uiso   1.00
O244   O     0.97757   0.39283   0.25006   0.00000  Uiso   1.00
O245   O     0.52304   0.11539   0.08668   0.00000  Uiso   1.00
O246   O     0.58077   0.14756   0.04929   0.00000  Uiso   1.00
O247   O     0.66356   0.42068   0.05770   0.00000  Uiso   1.00
O248   O     0.71117   0.36226   0.06278   0.00000  Uiso   1.00
O249   O     0.79690   0.12483   0.27138   0.00000  Uiso   1.00
O250   O     0.85013   0.07162   0.27648   0.00000  Uiso   1.00
O251   O     0.83526   0.09051   0.05784   0.00000  Uiso   1.00
O252   O     0.78207   0.14234   0.07201   0.00000  Uiso   1.00
O253   O     0.71890   0.36750   0.25526   0.00000  Uiso   1.00
O254   O     0.54580   0.20419   0.12846   0.00000  Uiso   1.00
O255   O     0.66032   0.40801   0.28122   0.00000  Uiso   1.00
O256   O     0.87698   0.48652   0.23546   0.00000  Uiso   1.00
O257   O     0.87478   0.43158   0.28800   0.00000  Uiso   1.00
O258   O     0.62366   0.01209   0.10104   0.00000  Uiso   1.00
O259   O     0.62238   0.06511   0.04650   0.00000  Uiso   1.00
O260   O     0.64073   0.04307   0.26785   0.00000  Uiso   1.00
O261   O     0.65996   0.11401   0.28544   0.00000  Uiso   1.00
O262   O     0.85199   0.41052   0.04707   0.00000  Uiso   1.00
O263   O     0.86811   0.47784   0.07759   0.00000  Uiso   1.00
O264   O     0.95419   0.20419   0.12846   0.00000  Uiso   1.00
O265   O     0.54580   0.29581   0.20487   0.00000  Uiso   1.00
O266   O     0.54580   0.29581   0.12846   0.00000  Uiso   1.00
O267   O     0.95419   0.20419   0.20487   0.00000  Uiso   1.00
O268   O     0.79580   0.45419   0.20487   0.00000  Uiso   1.00
Zn269  Zn    0.50000   0.25000   0.21771   0.00000  Uiso   1.00
Zn270  Zn    0.50000   0.25000   0.11563   0.00000  Uiso   1.00
Zn271  Zn    0.75000  -0.00000   0.21771   0.00000  Uiso   1.00
Zn272  Zn    0.75000  -0.00000   0.11563   0.00000  Uiso   1.00
C273   C     0.05569   0.68591   0.16676   0.00000  Uiso   1.00
C274   C     0.48872   0.71278   0.30953   0.00000  Uiso   1.00
C275   C     0.48864   0.71277   0.02415   0.00000  Uiso   1.00
C276   C     0.01098   0.78731   0.30922   0.00000  Uiso   1.00
C277   C     0.23973   0.53758   0.02404   0.00000  Uiso   1.00
C278   C     0.26065   0.96249   0.30930   0.00000  Uiso   1.00
C279   C     0.26058   0.96251   0.02392   0.00000  Uiso   1.00
C280   C     0.24028   0.53768   0.30942   0.00000  Uiso   1.00
C281   C     0.37043   0.66465   0.12821   0.00000  Uiso   1.00
C282   C     0.12958   0.83572   0.20469   0.00000  Uiso   1.00
C283   C     0.12320   0.84465   0.12268   0.00000  Uiso   1.00
C284   C     0.44280   0.81322   0.16653   0.00000  Uiso   1.00
C285   C     0.37537   0.65814   0.21008   0.00000  Uiso   1.00
C286   C     0.09293   0.62635   0.20990   0.00000  Uiso   1.00
C287   C     0.40430   0.87293   0.12312   0.00000  Uiso   1.00
C288   C     0.40981   0.87911   0.20581   0.00000  Uiso   1.00
C289   C     0.08834   0.61946   0.12790   0.00000  Uiso   1.00
C290   C     0.15543   0.87723   0.12344   0.00000  Uiso   1.00
C291   C     0.34649   0.62234   0.20982   0.00000  Uiso   1.00
C292   C     0.34216   0.62808   0.12684   0.00000  Uiso   1.00
C293   C     0.15899   0.87138   0.20604   0.00000  Uiso   1.00
C294   C     0.38009   0.91467   0.20495   0.00000  Uiso   1.00
C295   C     0.43533   0.69577   0.16709   0.00000  Uiso   1.00
C296   C     0.11937   0.58496   0.12914   0.00000  Uiso   1.00
C297   C     0.12716   0.59582   0.21081   0.00000  Uiso   1.00
C298   C     0.37475   0.90832   0.12307   0.00000  Uiso   1.00
C299   C     0.10619   0.82846   0.16438   0.00000  Uiso   1.00
C300   C     0.39292   0.67316   0.16854   0.00000  Uiso   1.00
C301   C     0.41756   0.85460   0.16540   0.00000  Uiso   1.00
C302   C     0.07971   0.64390   0.16785   0.00000  Uiso   1.00
C303   C     0.33369   0.60385   0.16747   0.00000  Uiso   1.00
C304   C     0.16819   0.89527   0.16565   0.00000  Uiso   1.00
C305   C     0.14413   0.57941   0.16906   0.00000  Uiso   1.00
C306   C     0.06410   0.80531   0.16615   0.00000  Uiso   1.00
C307   C     0.35701   0.92281   0.16478   0.00000  Uiso   1.00
C308   C     0.37350   0.69656   0.08967   0.00000  Uiso   1.00
C309   C     0.12644   0.80349   0.24306   0.00000  Uiso   1.00
C310   C     0.10818   0.82883   0.07764   0.00000  Uiso   1.00
C311   C     0.38528   0.68132   0.25330   0.00000  Uiso   1.00
C312   C     0.06822   0.63529   0.25261   0.00000  Uiso   1.00
C313   C     0.42327   0.85895   0.07871   0.00000  Uiso   1.00
C314   C     0.43657   0.87203   0.24686   0.00000  Uiso   1.00
C315   C     0.06177   0.62669   0.08693   0.00000  Uiso   1.00
C316   C     0.17715   0.88915   0.07969   0.00000  Uiso   1.00
C317   C     0.31455   0.94548   0.16627   0.00000  Uiso   1.00
C318   C     0.32902   0.60656   0.25420   0.00000  Uiso   1.00
C319   C     0.31968   0.61819   0.08376   0.00000  Uiso   1.00
C320   C     0.18164   0.88162   0.24882   0.00000  Uiso   1.00
C321   C     0.37708   0.94664   0.24331   0.00000  Uiso   1.00
C322   C     0.12212   0.55167   0.09180   0.00000  Uiso   1.00
C323   C     0.14352   0.58188   0.25596   0.00000  Uiso   1.00
C324   C     0.36444   0.93160   0.07989   0.00000  Uiso   1.00
C325   C     0.18626   0.55605   0.16718   0.00000  Uiso   1.00
C326   C     0.19317   0.93663   0.16662   0.00000  Uiso   1.00
C327   C     0.30780   0.56284   0.16667   0.00000  Uiso   1.00
C328   C     0.01042   0.78741   0.02384   0.00000  Uiso   1.00
H329   H     0.01802   0.81731   0.04209   0.00000  Uiso   1.00
H330   H     0.12397   0.73937   0.26243   0.00000  Uiso   1.00
H331   H     0.08472   0.84597   0.01622   0.00000  Uiso   1.00
H332   H     0.39117   0.74014   0.28557   0.00000  Uiso   1.00
H333   H     0.01917   0.61587   0.29499   0.00000  Uiso   1.00
H334   H     0.46510   0.87381   0.02735   0.00000  Uiso   1.00
H335   H     0.49171   0.88826   0.28066   0.00000  Uiso   1.00
H336   H     0.05873   0.65163   0.02418   0.00000  Uiso   1.00
H337   H     0.22120   0.87125   0.03121   0.00000  Uiso   1.00
H338   H     0.33484   0.56326   0.30599   0.00000  Uiso   1.00
H339   H     0.27146   0.63503   0.04044   0.00000  Uiso   1.00
H340   H     0.47987   0.68308   0.29146   0.00000  Uiso   1.00
H341   H     0.17987   0.91458   0.30790   0.00000  Uiso   1.00
H342   H     0.37398   0.95706   0.31033   0.00000  Uiso   1.00
H343   H     0.12397   0.53906   0.02481   0.00000  Uiso   1.00
H344   H     0.16784   0.60158   0.31619   0.00000  Uiso   1.00
H345   H     0.35825   0.99040   0.04747   0.00000  Uiso   1.00
H346   H     0.47950   0.68297   0.04237   0.00000  Uiso   1.00
H347   H     0.02020   0.81700   0.29097   0.00000  Uiso   1.00
H348   H     0.23113   0.56751   0.04225   0.00000  Uiso   1.00
H349   H     0.26925   0.93250   0.29116   0.00000  Uiso   1.00
H350   H     0.26891   0.93260   0.04210   0.00000  Uiso   1.00
H351   H     0.23331   0.56787   0.29119   0.00000  Uiso   1.00
H352   H     0.37811   0.70687   0.02273   0.00000  Uiso   1.00
N353   N     0.00000   0.75000   0.28573   0.00000  Uiso   1.00
N354   N     0.00000   0.75000   0.04760   0.00000  Uiso   1.00
N355   N     0.25000   0.50000   0.28573   0.00000  Uiso   1.00
N356   N     0.25000   0.50000   0.04760   0.00000  Uiso   1.00
O357   O     0.04580   0.70419   0.20487   0.00000  Uiso   1.00
O358   O     0.20419   0.54581   0.12846   0.00000  Uiso   1.00
O359   O     0.20419   0.54581   0.20487   0.00000  Uiso   1.00
O360   O     0.29580   0.95419   0.12846   0.00000  Uiso   1.00
O361   O     0.20419   0.95419   0.12846   0.00000  Uiso   1.00
O362   O     0.29580   0.54581   0.20487   0.00000  Uiso   1.00
O363   O     0.29580   0.54581   0.12846   0.00000  Uiso   1.00
O364   O     0.20419   0.95419   0.20487   0.00000  Uiso   1.00
O365   O     0.37277   0.73648   0.09727   0.00000  Uiso   1.00
O366   O     0.37711   0.68141   0.04514   0.00000  Uiso   1.00
O367   O     0.12532   0.81635   0.28230   0.00000  Uiso   1.00
O368   O     0.45419   0.79581   0.12846   0.00000  Uiso   1.00
O369   O     0.12540   0.75801   0.23382   0.00000  Uiso   1.00
O370   O     0.11170   0.78963   0.06742   0.00000  Uiso   1.00
O371   O     0.09182   0.85965   0.04653   0.00000  Uiso   1.00
O372   O     0.39763   0.66020   0.28622   0.00000  Uiso   1.00
O373   O     0.38144   0.72757   0.25547   0.00000  Uiso   1.00
O374   O     0.08074   0.66433   0.27828   0.00000  Uiso   1.00
O375   O     0.03171   0.60907   0.26378   0.00000  Uiso   1.00
O376   O     0.40717   0.82779   0.05819   0.00000  Uiso   1.00
O377   O     0.45745   0.88380   0.05926   0.00000  Uiso   1.00
O378   O     0.42228   0.84917   0.27799   0.00000  Uiso   1.00
O379   O     0.45419   0.79581   0.20487   0.00000  Uiso   1.00
O380   O     0.47757   0.89283   0.25006   0.00000  Uiso   1.00
O381   O     0.02304   0.61539   0.08668   0.00000  Uiso   1.00
O382   O     0.08077   0.64756   0.04929   0.00000  Uiso   1.00
O383   O     0.16356   0.92068   0.05770   0.00000  Uiso   1.00
O384   O     0.21117   0.86226   0.06278   0.00000  Uiso   1.00
O385   O     0.29690   0.62483   0.27138   0.00000  Uiso   1.00
O386   O     0.35013   0.57162   0.27648   0.00000  Uiso   1.00
O387   O     0.33526   0.59051   0.05784   0.00000  Uiso   1.00
O388   O     0.28207   0.64234   0.07201   0.00000  Uiso   1.00
O389   O     0.21890   0.86750   0.25526   0.00000  Uiso   1.00
O390   O     0.04580   0.70419   0.12846   0.00000  Uiso   1.00
O391   O     0.16032   0.90801   0.28122   0.00000  Uiso   1.00
O392   O     0.37698   0.98652   0.23546   0.00000  Uiso   1.00
O393   O     0.37478   0.93158   0.28800   0.00000  Uiso   1.00
O394   O     0.12366   0.51209   0.10104   0.00000  Uiso   1.00
O395   O     0.12238   0.56511   0.04650   0.00000  Uiso   1.00
O396   O     0.14073   0.54307   0.26785   0.00000  Uiso   1.00
O397   O     0.15996   0.61401   0.28544   0.00000  Uiso   1.00
O398   O     0.35199   0.91052   0.04707   0.00000  Uiso   1.00
O399   O     0.36811   0.97784   0.07759   0.00000  Uiso   1.00
O400   O     0.45419   0.70419   0.12846   0.00000  Uiso   1.00
O401   O     0.04580   0.79581   0.20487   0.00000  Uiso   1.00
O402   O     0.04580   0.79581   0.12846   0.00000  Uiso   1.00
O403   O     0.45419   0.70419   0.20487   0.00000  Uiso   1.00
O404   O     0.29580   0.95419   0.20487   0.00000  Uiso   1.00
Zn405  Zn    0.00000   0.75000   0.21771   0.00000  Uiso   1.00
Zn406  Zn   -0.00000   0.75000   0.11563   0.00000  Uiso   1.00
Zn407  Zn    0.25000   0.50000   0.21771   0.00000  Uiso   1.00
Zn408  Zn    0.25000   0.50000   0.11563   0.00000  Uiso   1.00
C409   C     0.55569   0.68591   0.16676   0.00000  Uiso   1.00
C410   C     0.98872   0.71278   0.30953   0.00000  Uiso   1.00
C411   C     0.98864   0.71277   0.02415   0.00000  Uiso   1.00
C412   C     0.51098   0.78731   0.30922   0.00000  Uiso   1.00
C413   C     0.73973   0.53758   0.02404   0.00000  Uiso   1.00
C414   C     0.76065   0.96249   0.30930   0.00000  Uiso   1.00
C415   C     0.76058   0.96251   0.02392   0.00000  Uiso   1.00
C416   C     0.74028   0.53768   0.30942   0.00000  Uiso   1.00
C417   C     0.87043   0.66465   0.12821   0.00000  Uiso   1.00
C418   C     0.62958   0.83572   0.20469   0.00000  Uiso   1.00
C419   C     0.62320   0.84465   0.12268   0.00000  Uiso   1.00
C420   C     0.94280   0.81322   0.16653   0.00000  Uiso   1.00
C421   C     0.87537   0.65814   0.21008   0.00000  Uiso   1.00
C422   C     0.59293   0.62635   0.20990   0.00000  Uiso   1.00
C423   C     0.90430   0.87293   0.12312   0.00000  Uiso   1.00
C424   C     0.90981   0.87911   0.20581   0.00000  Uiso   1.00
C425   C     0.58834   0.61946   0.12790   0.00000  Uiso   1.00
C426   C     0.65543   0.87723   0.12344   0.00000  Uiso   1.00
C427   C     0.84649   0.62234   0.20982   0.00000  Uiso   1.00
C428   C     0.84216   0.62808   0.12684   0.00000  Uiso   1.00
C429   C     0.65899   0.87138   0.20604   0.00000  Uiso   1.00
C430   C     0.88009   0.91467   0.20495   0.00000  Uiso   1.00
C431   C     0.93533   0.69577   0.16709   0.00000  Uiso   1.00
C432   C     0.61937   0.58496   0.12914   0.00000  Uiso   1.00
C433   C     0.62716   0.59582   0.21081   0.00000  Uiso   1.00
C434   C     0.87475   0.90832   0.12307   0.00000  Uiso   1.00
C435   C     0.60619   0.82846   0.16438   0.00000  Uiso   1.00
C436   C     0.89292   0.67316   0.16854   0.00000  Uiso   1.00
C437   C     0.91756   0.85460   0.16540   0.00000  Uiso   1.00
C438   C     0.57971   0.64390   0.16785   0.00000  Uiso   1.00
C439   C     0.83369   0.60385   0.16747   0.00000  Uiso   1.00
C440   C     0.66819   0.89527   0.16565   0.00000  Uiso   1.00
C441   C     0.64413   0.57941   0.16906   0.00000  Uiso   1.00
C442   C     0.56410   0.80531   0.16615   0.00000  Uiso   1.00
C443   C     0.85701   0.92281   0.16478   0.00000  Uiso   1.00
C444   C     0.87350   0.69656   0.08967   0.00000  Uiso   1.00
C445   C     0.62644   0.80349   0.24306   0.00000  Uiso   1.00
C446   C     0.60818   0.82883   0.07764   0.00000  Uiso   1.00
C447   C     0.88528   0.68132   0.25330   0.00000  Uiso   1.00
C448   C     0.56822   0.63529   0.25261   0.00000  Uiso   1.00
C449   C     0.92327   0.85895   0.07871   0.00000  Uiso   1.00
C450   C     0.93657   0.87203   0.24686   0.00000  Uiso   1.00
C451   C     0.56177   0.62669   0.08693   0.00000  Uiso   1.00
C452   C     0.67715   0.88915   0.07969   0.00000  Uiso   1.00
C453   C     0.81455   0.94548   0.16627   0.00000  Uiso   1.00
C454   C     0.82902   0.60656   0.25420   0.00000  Uiso   1.00
C455   C     0.81968   0.61819   0.08376   0.00000  Uiso   1.00
C456   C     0.68164   0.88162   0.24882   0.00000  Uiso   1.00
C457   C     0.87708   0.94664   0.24331   0.00000  Uiso   1.00
C458   C     0.62212   0.55167   0.09180   0.00000  Uiso   1.00
C459   C     0.64352   0.58188   0.25596   0.00000  Uiso   1.00
C460   C     0.86444   0.93160   0.07989   0.00000  Uiso   1.00
C461   C     0.68626   0.55605   0.16718   0.00000  Uiso   1.00
C462   C     0.69317   0.93663   0.16662   0.00000  Uiso   1.00
C463   C     0.80780   0.56284   0.16667   0.00000  Uiso   1.00
C464   C     0.51042   0.78741   0.02384   0.00000  Uiso   1.00
H465   H     0.51802   0.81731   0.04209   0.00000  Uiso   1.00
H466   H     0.62397   0.73937   0.26243   0.00000  Uiso   1.00
H467   H     0.58472   0.84597   0.01622   0.00000  Uiso   1.00
H468   H     0.89117   0.74014   0.28557   0.00000  Uiso   1.00
H469   H     0.51917   0.61587   0.29499   0.00000  Uiso   1.00
H470   H     0.96510   0.87381   0.02735   0.00000  Uiso   1.00
H471   H     0.99171   0.88826   0.28066   0.00000  Uiso   1.00
H472   H     0.55873   0.65163   0.02418   0.00000  Uiso   1.00
H473   H     0.72120   0.87125   0.03121   0.00000  Uiso   1.00
H474   H     0.83484   0.56326   0.30599   0.00000  Uiso   1.00
H475   H     0.77146   0.63503   0.04044   0.00000  Uiso   1.00
H476   H     0.97987   0.68308   0.29146   0.00000  Uiso   1.00
H477   H     0.67987   0.91458   0.30790   0.00000  Uiso   1.00
H478   H     0.87398   0.95706   0.31033   0.00000  Uiso   1.00
H479   H     0.62397   0.53906   0.02481   0.00000  Uiso   1.00
H480   H     0.66784   0.60158   0.31619   0.00000  Uiso   1.00
H481   H     0.85825   0.99040   0.04747   0.00000  Uiso   1.00
H482   H     0.97950   0.68297   0.04237   0.00000  Uiso   1.00
H483   H     0.52020   0.81700   0.29097   0.00000  Uiso   1.00
H484   H     0.73113   0.56751   0.04225   0.00000  Uiso   1.00
H485   H     0.76925   0.93250   0.29116   0.00000  Uiso   1.00
H486   H     0.76891   0.93260   0.04210   0.00000  Uiso   1.00
H487   H     0.73331   0.56787   0.29119   0.00000  Uiso   1.00
H488   H     0.87811   0.70687   0.02273   0.00000  Uiso   1.00
N489   N     0.50000   0.75000   0.28573   0.00000  Uiso   1.00
N490   N     0.50000   0.75000   0.04760   0.00000  Uiso   1.00
N491   N     0.75000   0.50000   0.28573   0.00000  Uiso   1.00
N492   N     0.75000   0.50000   0.04760   0.00000  Uiso   1.00
O493   O     0.54580   0.70419   0.20487   0.00000  Uiso   1.00
O494   O     0.70419   0.54581   0.12846   0.00000  Uiso   1.00
O495   O     0.70419   0.54581   0.20487   0.00000  Uiso   1.00
O496   O     0.79580   0.95419   0.12846   0.00000  Uiso   1.00
O497   O     0.70419   0.95419   0.12846   0.00000  Uiso   1.00
O498   O     0.79580   0.54581   0.20487   0.00000  Uiso   1.00
O499   O     0.79580   0.54581   0.12846   0.00000  Uiso   1.00
O500   O     0.70419   0.95419   0.20487   0.00000  Uiso   1.00
O501   O     0.87277   0.73648   0.09727   0.00000  Uiso   1.00
O502   O     0.87711   0.68141   0.04514   0.00000  Uiso   1.00
O503   O     0.62532   0.81635   0.28230   0.00000  Uiso   1.00
O504   O     0.95419   0.79581   0.12846   0.00000  Uiso   1.00
O505   O     0.62540   0.75801   0.23382   0.00000  Uiso   1.00
O506   O     0.61170   0.78963   0.06742   0.00000  Uiso   1.00
O507   O     0.59182   0.85965   0.04653   0.00000  Uiso   1.00
O508   O     0.89763   0.66020   0.28622   0.00000  Uiso   1.00
O509   O     0.88144   0.72757   0.25547   0.00000  Uiso   1.00
O510   O     0.58074   0.66433   0.27828   0.00000  Uiso   1.00
O511   O     0.53171   0.60907   0.26378   0.00000  Uiso   1.00
O512   O     0.90717   0.82779   0.05819   0.00000  Uiso   1.00
O513   O     0.95745   0.88380   0.05926   0.00000  Uiso   1.00
O514   O     0.92228   0.84917   0.27799   0.00000  Uiso   1.00
O515   O     0.95419   0.79581   0.20487   0.00000  Uiso   1.00
O516   O     0.97757   0.89283   0.25006   0.00000  Uiso   1.00
O517   O     0.52304   0.61539   0.08668   0.00000  Uiso   1.00
O518   O     0.58077   0.64756   0.04929   0.00000  Uiso   1.00
O519   O     0.66356   0.92068   0.05770   0.00000  Uiso   1.00
O520   O     0.71117   0.86226   0.06278   0.00000  Uiso   1.00
O521   O     0.79690   0.62483   0.27138   0.00000  Uiso   1.00
O522   O     0.85013   0.57162   0.27648   0.00000  Uiso   1.00
O523   O     0.83526   0.59051   0.05784   0.00000  Uiso   1.00
O524   O     0.78207   0.64234   0.07201   0.00000  Uiso   1.00
O525   O     0.71890   0.86750   0.25526   0.00000  Uiso   1.00
O526   O     0.54580   0.70419   0.12846   0.00000  Uiso   1.00
O527   O     0.66032   0.90801   0.28122   0.00000  Uiso   1.00
O528   O     0.87698   0.98652   0.23546   0.00000  Uiso   1.00
O529   O     0.87478   0.93158   0.28800   0.00000  Uiso   1.00
O530   O     0.62366   0.51209   0.10104   0.00000  Uiso   1.00
O531   O     0.62238   0.56511   0.04650   0.00000  Uiso   1.00
O532   O     0.64073   0.54307   0.26785   0.00000  Uiso   1.00
O533   O     0.65996   0.61401   0.28544   0.00000  Uiso   1.00
O534   O     0.85199   0.91052   0.04707   0.00000  Uiso   1.00
O535   O     0.86811   0.97784   0.07759   0.00000  Uiso   1.00
O536   O     0.95419   0.70419   0.12846   0.00000  Uiso   1.00
O537   O     0.54580   0.79581   0.20487   0.00000  Uiso   1.00
O538   O     0.54580   0.79581   0.12846   0.00000  Uiso   1.00
O539   O     0.95419   0.70419   0.20487   0.00000  Uiso   1.00
O540   O     0.79580   0.95419   0.20487   0.00000  Uiso   1.00
Zn541  Zn    0.50000   0.75000   0.21771   0.00000  Uiso   1.00
Zn542  Zn    0.50000   0.75000   0.11563   0.00000  Uiso   1.00
Zn543  Zn    0.75000   0.50000   0.21771   0.00000  Uiso   1.00
Zn544  Zn    0.75000   0.50000   0.11563   0.00000  Uiso   1.00
C545   C     0.05569   0.18591   0.50009   0.00000  Uiso   1.00
C546   C     0.48872   0.21278   0.64286   0.00000  Uiso   1.00
C547   C     0.48864   0.21277   0.35748   0.00000  Uiso   1.00
C548   C     0.01098   0.28731   0.64255   0.00000  Uiso   1.00
C549   C     0.23973   0.03758   0.35737   0.00000  Uiso   1.00
C550   C     0.26065   0.46249   0.64264   0.00000  Uiso   1.00
C551   C     0.26058   0.46251   0.35725   0.00000  Uiso   1.00
C552   C     0.24028   0.03768   0.64275   0.00000  Uiso   1.00
C553   C     0.37043   0.16465   0.46154   0.00000  Uiso   1.00
C554   C     0.12958   0.33572   0.53803   0.00000  Uiso   1.00
C555   C     0.12320   0.34465   0.45601   0.00000  Uiso   1.00
C556   C     0.44280   0.31322   0.49986   0.00000  Uiso   1.00
C557   C     0.37537   0.15814   0.54342   0.00000  Uiso   1.00
C558   C     0.09293   0.12635   0.54324   0.00000  Uiso   1.00
C559   C     0.40430   0.37293   0.45645   0.00000  Uiso   1.00
C560   C     0.40981   0.37911   0.53914   0.00000  Uiso   1.00
C561   C     0.08834   0.11946   0.46123   0.00000  Uiso   1.00
C562   C     0.15543   0.37723   0.45677   0.00000  Uiso   1.00
C563   C     0.34649   0.12234   0.54315   0.00000  Uiso   1.00
C564   C     0.34216   0.12808   0.46018   0.00000  Uiso   1.00
C565   C     0.15899   0.37138   0.53937   0.00000  Uiso   1.00
C566   C     0.38009   0.41467   0.53829   0.00000  Uiso   1.00
C567   C     0.43533   0.19577   0.50042   0.00000  Uiso   1.00
C568   C     0.11937   0.08496   0.46248   0.00000  Uiso   1.00
C569   C     0.12716   0.09582   0.54414   0.00000  Uiso   1.00
C570   C     0.37475   0.40832   0.45641   0.00000  Uiso   1.00
C571   C     0.10619   0.32846   0.49772   0.00000  Uiso   1.00
C572   C     0.39292   0.17316   0.50187   0.00000  Uiso   1.00
C573   C     0.41756   0.35460   0.49874   0.00000  Uiso   1.00
C574   C     0.07971   0.14390   0.50119   0.00000  Uiso   1.00
C575   C     0.33369   0.10385   0.50080   0.00000  Uiso   1.00
C576   C     0.16819   0.39527   0.49898   0.00000  Uiso   1.00
C577   C     0.14413   0.07941   0.50240   0.00000  Uiso   1.00
C578   C     0.06410   0.30531   0.49949   0.00000  Uiso   1.00
C579   C     0.35701   0.42281   0.49811   0.00000  Uiso   1.00
C580   C     0.37350   0.19656   0.42300   0.00000  Uiso   1.00
C581   C     0.12644   0.30349   0.57639   0.00000  Uiso   1.00
C582   C     0.10818   0.32883   0.41097   0.00000  Uiso   1.00
C583   C     0.38528   0.18132   0.58663   0.00000  Uiso   1.00
C584   C     0.06822   0.13529   0.58594   0.00000  Uiso   1.00
C585   C     0.42327   0.35895   0.41205   0.00000  Uiso   1.00
C586   C     0.43657   0.37203   0.58019   0.00000  Uiso   1.00
C587   C     0.06177   0.12669   0.42026   0.00000  Uiso   1.00
C588   C     0.17715   0.38915   0.41302   0.00000  Uiso   1.00
C589   C     0.31455   0.44548   0.49960   0.00000  Uiso   1.00
C590   C     0.32902   0.10656   0.58753   0.00000  Uiso   1.00
C591   C     0.31968   0.11819   0.41709   0.00000  Uiso   1.00
C592   C     0.18164   0.38162   0.58215   0.00000  Uiso   1.00
C593   C     0.37708   0.44664   0.57664   0.00000  Uiso   1.00
C594   C     0.12212   0.05167   0.42513   0.00000  Uiso   1.00
C595   C     0.14352   0.08188   0.58930   0.00000  Uiso   1.00
C596   C     0.36444   0.43160   0.41322   0.00000  Uiso   1.00
C597   C     0.18626   0.05605   0.50052   0.00000  Uiso   1.00
C598   C     0.19317   0.43663   0.49995   0.00000  Uiso   1.00
C599   C     0.30780   0.06284   0.50001   0.00000  Uiso   1.00
C600   C     0.01042   0.28741   0.35717   0.00000  Uiso   1.00
H601   H     0.01802   0.31731   0.37543   0.00000  Uiso   1.00
H602   H     0.12397   0.23937   0.59576   0.00000  Uiso   1.00
H603   H     0.08472   0.34597   0.34955   0.00000  Uiso   1.00
H604   H     0.39117   0.24014   0.61891   0.00000  Uiso   1.00
H605   H     0.01917   0.11587   0.62832   0.00000  Uiso   1.00
H606   H     0.46510   0.37381   0.36068   0.00000  Uiso   1.00
H607   H     0.49171   0.38826   0.61400   0.00000  Uiso   1.00
H608   H     0.05873   0.15163   0.35751   0.00000  Uiso   1.00
H609   H     0.22120   0.37125   0.36454   0.00000  Uiso   1.00
H610   H     0.33484   0.06326   0.63932   0.00000  Uiso   1.00
H611   H     0.27146   0.13503   0.37377   0.00000  Uiso   1.00
H612   H     0.47987   0.18308   0.62479   0.00000  Uiso   1.00
H613   H     0.17987   0.41458   0.64123   0.00000  Uiso   1.00
H614   H     0.37398   0.45706   0.64366   0.00000  Uiso   1.00
H615   H     0.12397   0.03906   0.35815   0.00000  Uiso   1.00
H616   H     0.16784   0.10158   0.64952   0.00000  Uiso   1.00
H617   H     0.35825   0.49040   0.38080   0.00000  Uiso   1.00
H618   H     0.47950   0.18297   0.37571   0.00000  Uiso   1.00
H619   H     0.02020   0.31700   0.62430   0.00000  Uiso   1.00
H620   H     0.23113   0.06751   0.37558   0.00000  Uiso   1.00
H621   H     0.26925   0.43250   0.62449   0.00000  Uiso   1.00
H622   H     0.26891   0.43260   0.37543   0.00000  Uiso   1.00
H623   H     0.23331   0.06787   0.62452   0.00000  Uiso   1.00
H624   H     0.37811   0.20687   0.35607   0.00000  Uiso   1.00
N625   N     0.00000   0.25000   0.61907   0.00000  Uiso   1.00
N626   N     0.00000   0.25000   0.38093   0.00000  Uiso   1.00
N627   N     0.25000  -0.00000   0.61907   0.00000  Uiso   1.00
N628   N     0.25000  -0.00000   0.38093   0.00000  Uiso   1.00
O629   O     0.04580   0.20419   0.53821   0.00000  Uiso   1.00
O630   O     0.20419   0.04581   0.46179   0.00000  Uiso   1.00
O631   O     0.20419   0.04581   0.53821   0.00000  Uiso   1.00
O632   O     0.29580   0.45419   0.46179   0.00000  Uiso   1.00
O633   O     0.20419   0.45419   0.46179   0.00000  Uiso   1.00
O634   O     0.29580   0.04581   0.53821   0.00000  Uiso   1.00
O635   O     0.29580   0.04581   0.46179   0.00000  Uiso   1.00
O636   O     0.20419   0.45419   0.53821   0.00000  Uiso   1.00
O637   O     0.37277   0.23648   0.43060   0.00000  Uiso   1.00
O638   O     0.37711   0.18141   0.37847   0.00000  Uiso   1.00
O639   O     0.12532   0.31635   0.61564   0.00000  Uiso   1.00
O640   O     0.45419   0.29581   0.46179   0.00000  Uiso   1.00
O641   O     0.12540   0.25801   0.56716   0.00000  Uiso   1.00
O642   O     0.11170   0.28963   0.40075   0.00000  Uiso   1.00
O643   O     0.09182   0.35965   0.37987   0.00000  Uiso   1.00
O644   O     0.39763   0.16020   0.61955   0.00000  Uiso   1.00
O645   O     0.38144   0.22757   0.58881   0.00000  Uiso   1.00
O646   O     0.08074   0.16433   0.61161   0.00000  Uiso   1.00
O647   O     0.03171   0.10907   0.59711   0.00000  Uiso   1.00
O648   O     0.40717   0.32779   0.39153   0.00000  Uiso   1.00
O649   O     0.45745   0.38380   0.39259   0.00000  Uiso   1.00
O650   O     0.42228   0.34917   0.61133   0.00000  Uiso   1.00
O651   O     0.45419   0.29581   0.53821   0.00000  Uiso   1.00
O652   O     0.47757   0.39283   0.58339   0.00000  Uiso   1.00
O653   O     0.02304   0.11539   0.42002   0.00000  Uiso   1.00
O654   O     0.08077   0.14756   0.38262   0.00000  Uiso   1.00
O655   O     0.16356   0.42068   0.39103   0.00000  Uiso   1.00
O656   O     0.21117   0.36226   0.39612   0.00000  Uiso   1.00
O657   O     0.29690   0.12483   0.60471   0.00000  Uiso   1.00
O658   O     0.35013   0.07162   0.60982   0.00000  Uiso   1.00
O659   O     0.33526   0.09051   0.39117   0.00000  Uiso   1.00
O660   O     0.28207   0.14234   0.40535   0.00000  Uiso   1.00
O661   O     0.21890   0.36750   0.58859   0.00000  Uiso   1.00
O662   O     0.04580   0.20419   0.46179   0.00000  Uiso   1.00
O663   O     0.16032   0.40801   0.61455   0.00000  Uiso   1.00
O664   O     0.37698   0.48652   0.56879   0.00000  Uiso   1.00
O665   O     0.37478   0.43158   0.62133   0.00000  Uiso   1.00
O666   O     0.12366   0.01209   0.43437   0.00000  Uiso   1.00
O667   O     0.12238   0.06511   0.37983   0.00000  Uiso   1.00
O668   O     0.14073   0.04307   0.60119   0.00000  Uiso   1.00
O669   O     0.15996   0.11401   0.61877   0.00000  Uiso   1.00
O670   O     0.35199   0.41052   0.38041   0.00000  Uiso   1.00
O671   O     0.36811   0.47784   0.41092   0.00000  Uiso   1.00
O672   O     0.45419   0.20419   0.46179   0.00000  Uiso   1.00
O673   O     0.04580   0.29581   0.53821   0.00000  Uiso   1.00
O674   O     0.04580   0.29581   0.46179   0.00000  Uiso   1.00
O675   O     0.45419   0.20419   0.53821   0.00000  Uiso   1.00
O676   O     0.29580   0.45419   0.53821   0.00000  Uiso   1.00
Zn677  Zn    0.00000   0.25000   0.55104   0.00000  Uiso   1.00
Zn678  Zn   -0.00000   0.25000   0.44896   0.00000  Uiso   1.00
Zn679  Zn    0.25000  -0.00000   0.55104   0.00000  Uiso   1.00
Zn680  Zn    0.25000  -0.00000   0.44896   0.00000  Uiso   1.00
C681   C     0.55569   0.18591   0.50009   0.00000  Uiso   1.00
C682   C     0.98872   0.21278   0.64286   0.00000  Uiso   1.00
C683   C     0.98864   0.21277   0.35748   0.00000  Uiso   1.00
C684   C     0.51098   0.28731   0.64255   0.00000  Uiso   1.00
C685   C     0.73973   0.03758   0.35737   0.00000  Uiso   1.00
C686   C     0.76065   0.46249   0.64264   0.00000  Uiso   1.00
C687   C     0.76058   0.46251   0.35725   0.00000  Uiso   1.00
C688   C     0.74028   0.03768   0.64275   0.00000  Uiso   1.00
C689   C     0.87043   0.16465   0.46154   0.00000  Uiso   1.00
C690   C     0.62958   0.33572   0.53803   0.00000  Uiso   1.00
C691   C     0.62320   0.34465   0.45601   0.00000  Uiso   1.00
C692   C     0.94280   0.31322   0.49986   0.00000  Uiso   1.00
C693   C     0.87537   0.15814   0.54342   0.00000  Uiso   1.00
C694   C     0.59293   0.12635   0.54324   0.00000  Uiso   1.00
C695   C     0.90430   0.37293   0.45645   0.00000  Uiso   1.00
C696   C     0.90981   0.37911   0.53914   0.00000  Uiso   1.00
C697   C     0.58834   0.11946   0.46123   0.00000  Uiso   1.00
C698   C     0.65543   0.37723   0.45677   0.00000  Uiso   1.00
C699   C     0.84649   0.12234   0.54315   0.00000  Uiso   1.00
C700   C     0.84216   0.12808   0.46018   0.00000  Uiso   1.00
C701   C     0.65899   0.37138   0.53937   0.00000  Uiso   1.00
C702   C     0.88009   0.41467   0.53829   0.00000  Uiso   1.00
C703   C     0.93533   0.19577   0.50042   0.00000  Uiso   1.00
C704   C     0.61937   0.08496   0.46248   0.00000  Uiso   1.00
C705   C     0.62716   0.09582   0.54414   0.00000  Uiso   1.00
C706   C     0.87475   0.40832   0.45641   0.00000  Uiso   1.00
C707   C     0.60619   0.32846   0.49772   0.00000  Uiso   1.00
C708   C     0.89292   0.17316   0.50187   0.00000  Uiso   1.00
C709   C     0.91756   0.35460   0.49874   0.00000  Uiso   1.00
C710   C     0.57971   0.14390   0.50119   0.00000  Uiso   1.00
C711   C     0.83369   0.10385   0.50080   0.00000  Uiso   1.00
C712   C     0.66819   0.39527   0.49898   0.00000  Uiso   1.00
C713   C     0.64413   0.07941   0.50240   0.00000  Uiso   1.00
C714   C     0.56410   0.30531   0.49949   0.00000  Uiso   1.00
C715   C     0.85701   0.42281   0.49811   0.00000  Uiso   1.00
C716   C     0.87350   0.19656   0.42300   0.00000  Uiso   1.00
C717   C     0.62644   0.30349   0.57639   0.00000  Uiso   1.00
C718   C     0.60818   0.32883   0.41097   0.00000  Uiso   1.00
C719   C     0.88528   0.18132   0.58663   0.00000  Uiso   1.00
C720   C     0.56822   0.13529   0.58594   0.00000  Uiso   1.00
C721   C     0.92327   0.35895   0.41205   0.00000  Uiso   1.00
C722   C     0.93657   0.37203   0.58019   0.00000  Uiso   1.00
C723   C     0.56177   0.12669   0.42026   0.00000  Uiso   1.00
C724   C     0.67715   0.38915   0.41302   0.00000  Uiso   1.00
C725   C     0.81455   0.44548   0.49960   0.00000  Uiso   1.00
C726   C     0.82902   0.10656   0.58753   0.00000  Uiso   1.00
C727   C     0.81968   0.11819   0.41709   0.00000  Uiso   1.00
C728   C     0.68164   0.38162   0.58215   0.00000  Uiso   1.00
C729   C     0.87708   0.44664   0.57664   0.00000  Uiso   1.00
C730   C     0.62212   0.05167   0.42513   0.00000  Uiso   1.00
C731   C     0.64352   0.08188   0.58930   0.00000  Uiso   1.00
C732   C     0.86444   0.43160   0.41322   0.00000  Uiso   1.00
C733   C     0.68626   0.05605   0.50052   0.00000  Uiso   1.00
C734   C     0.69317   0.43663   0.49995   0.00000  Uiso   1.00
C735   C     0.80780   0.06284   0.50001   0.00000  Uiso   1.00
C736   C     0.51042   0.28741   0.35717   0.00000  Uiso   1.00
H737   H     0.51802   0.31731   0.37543   0.00000  Uiso   1.00
H738   H     0.62397   0.23937   0.59576   0.00000  Uiso   1.00
H739   H     0.58472   0.34597   0.34955   0.00000  Uiso   1.00
H740   H     0.89117   0.24014   0.61891   0.00000  Uiso   1.00
H741   H     0.51917   0.11587   0.62832   0.00000  Uiso   1.00
H742   H     0.96510   0.37381   0.36068   0.00000  Uiso   1.00
H743   H     0.99171   0.38826   0.61400   0.00000  Uiso   1.00
H744   H     0.55873   0.15163   0.35751   0.00000  Uiso   1.00
H745   H     0.72120   0.37125   0.36454   0.00000  Uiso   1.00
H746   H     0.83484   0.06326   0.63932   0.00000  Uiso   1.00
H747   H     0.77146   0.13503   0.37377   0.00000  Uiso   1.00
H748   H     0.97987   0.18308   0.62479   0.00000  Uiso   1.00
H749   H     0.67987   0.41458   0.64123   0.00000  Uiso   1.00
H750   H     0.87398   0.45706   0.64366   0.00000  Uiso   1.00
H751   H     0.62397   0.03906   0.35815   0.00000  Uiso   1.00
H752   H     0.66784   0.10158   0.64952   0.00000  Uiso   1.00
H753   H     0.85825   0.49040   0.38080   0.00000  Uiso   1.00
H754   H     0.97950   0.18297   0.37571   0.00000  Uiso   1.00
H755   H     0.52020   0.31700   0.62430   0.00000  Uiso   1.00
H756   H     0.73113   0.06751   0.37558   0.00000  Uiso   1.00
H757   H     0.76925   0.43250   0.62449   0.00000  Uiso   1.00
H758   H     0.76891   0.43260   0.37543   0.00000  Uiso   1.00
H759   H     0.73331   0.06787   0.62452   0.00000  Uiso   1.00
H760   H     0.87811   0.20687   0.35607   0.00000  Uiso   1.00
N761   N     0.50000   0.25000   0.61907   0.00000  Uiso   1.00
N762   N     0.50000   0.25000   0.38093   0.00000  Uiso   1.00
N763   N     0.75000  -0.00000   0.61907   0.00000  Uiso   1.00
N764   N     0.75000  -0.00000   0.38093   0.00000  Uiso   1.00
O765   O     0.54580   0.20419   0.53821   0.00000  Uiso   1.00
O766   O     0.70419   0.04581   0.46179   0.00000  Uiso   1.00
O767   O     0.70419   0.04581   0.53821   0.00000  Uiso   1.00
O768   O     0.79580   0.45419   0.46179   0.00000  Uiso   1.00
O769   O     0.70419   0.45419   0.46179   0.00000  Uiso   1.00
O770   O     0.79580   0.04581   0.53821   0.00000  Uiso   1.00
O771   O     0.79580   0.04581   0.46179   0.00000  Uiso   1.00
O772   O     0.70419   0.45419   0.53821   0.00000  Uiso   1.00
O773   O     0.87277   0.23648   0.43060   0.00000  Uiso   1.00
O774   O     0.87711   0.18141   0.37847   0.00000  Uiso   1.00
O775   O     0.62532   0.31635   0.61564   0.00000  Uiso   1.00
O776   O     0.95419   0.29581   0.46179   0.00000  Uiso   1.00
O777   O     0.62540   0.25801   0.56716   0.00000  Uiso   1.00
O778   O     0.61170   0.28963   0.40075   0.00000  Uiso   1.00
O779   O     0.59182   0.35965   0.37987   0.00000  Uiso   1.00
O780   O     0.89763   0.16020   0.61955   0.00000  Uiso   1.00
O781   O     0.88144   0.22757   0.58881   0.00000  Uiso   1.00
O782   O     0.58074   0.16433   0.61161   0.00000  Uiso   1.00
O783   O     0.53171   0.10907   0.59711   0.00000  Uiso   1.00
O784   O     0.90717   0.32779   0.39153   0.00000  Uiso   1.00
O785   O     0.95745   0.38380   0.39259   0.00000  Uiso   1.00
O786   O     0.92228   0.34917   0.61133   0.00000  Uiso   1.00
O787   O     0.95419   0.29581   0.53821   0.00000  Uiso   1.00
O788   O     0.97757   0.39283   0.58339   0.00000  Uiso   1.00
O789   O     0.52304   0.11539   0.42002   0.00000  Uiso   1.00
O790   O     0.58077   0.14756   0.38262   0.00000  Uiso   1.00
O791   O     0.66356   0.42068   0.39103   0.00000  Uiso   1.00
O792   O     0.71117   0.36226   0.39612   0.00000  Uiso   1.00
O793   O     0.79690   0.12483   0.60471   0.00000  Uiso   1.00
O794   O     0.85013   0.07162   0.60982   0.00000  Uiso   1.00
O795   O     0.83526   0.09051   0.39117   0.00000  Uiso   1.00
O796   O     0.78207   0.14234   0.40535   0.00000  Uiso   1.00
O797   O     0.71890   0.36750   0.58859   0.00000  Uiso   1.00
O798   O     0.54580   0.20419   0.46179   0.00000  Uiso   1.00
O799   O     0.66032   0.40801   0.61455   0.00000  Uiso   1.00
O800   O     0.87698   0.48652   0.56879   0.00000  Uiso   1.00
O801   O     0.87478   0.43158   0.62133   0.00000  Uiso   1.00
O802   O     0.62366   0.01209   0.43437   0.00000  Uiso   1.00
O803   O     0.62238   0.06511   0.37983   0.00000  Uiso   1.00
O804   O     0.64073   0.04307   0.60119   0.00000  Uiso   1.00
O805   O     0.65996   0.11401   0.61877   0.00000  Uiso   1.00
O806   O     0.85199   0.41052   0.38041   0.00000  Uiso   1.00
O807   O     0.86811   0.47784   0.41092   0.00000  Uiso   1.00
O808   O     0.95419   0.20419   0.46179   0.00000  Uiso   1.00
O809   O     0.54580   0.29581   0.53821   0.00000  Uiso   1.00
O810   O     0.54580   0.29581   0.46179   0.00000  Uiso   1.00
O811   O     0.95419   0.20419   0.53821   0.00000  Uiso   1.00
O812   O     0.79580   0.45419   0.53821   0.00000  Uiso   1.00
Zn813  Zn    0.50000   0.25000   0.55104   0.00000  Uiso   1.00
Zn814  Zn    0.50000   0.25000   0.44896   0.00000  Uiso   1.00
Zn815  Zn    0.75000  -0.00000   0.55104   0.00000  Uiso   1.00
Zn816  Zn    0.75000  -0.00000   0.44896   0.00000  Uiso   1.00
C817   C     0.05569   0.68591   0.50009   0.00000  Uiso   1.00
C818   C     0.48872   0.71278   0.64286   0.00000  Uiso   1.00
C819   C     0.48864   0.71277   0.35748   0.00000  Uiso   1.00
C820   C     0.01098   0.78731   0.64255   0.00000  Uiso   1.00
C821   C     0.23973   0.53758   0.35737   0.00000  Uiso   1.00
C822   C     0.26065   0.96249   0.64264   0.00000  Uiso   1.00
C823   C     0.26058   0.96251   0.35725   0.00000  Uiso   1.00
C824   C     0.24028   0.53768   0.64275   0.00000  Uiso   1.00
C825   C     0.37043   0.66465   0.46154   0.00000  Uiso   1.00
C826   C     0.12958   0.83572   0.53803   0.00000  Uiso   1.00
C827   C     0.12320   0.84465   0.45601   0.00000  Uiso   1.00
C828   C     0.44280   0.81322   0.49986   0.00000  Uiso   1.00
C829   C     0.37537   0.65814   0.54342   0.00000  Uiso   1.00
C830   C     0.09293   0.62635   0.54324   0.00000  Uiso   1.00
C831   C     0.40430   0.87293   0.45645   0.00000  Uiso   1.00
C832   C     0.40981   0.87911   0.53914   0.00000  Uiso   1.00
C833   C     0.08834   0.61946   0.46123   0.00000  Uiso   1.00
C834   C     0.15543   0.87723   0.45677   0.00000  Uiso   1.00
C835   C     0.34649   0.62234   0.54315   0.00000  Uiso   1.00
C836   C     0.34216   0.62808   0.46018   0.00000  Uiso   1.00
C837   C     0.15899   0.87138   0.53937   0.00000  Uiso   1.00
C838   C     0.38009   0.91467   0.53829   0.00000  Uiso   1.00
C839   C     0.43533   0.69577   0.50042   0.00000  Uiso   1.00
C840   C     0.11937   0.58496   0.46248   0.00000  Uiso   1.00
C841   C     0.12716   0.59582   0.54414   0.00000  Uiso   1.00
C842   C     0.37475   0.90832   0.45641   0.00000  Uiso   1.00
C843   C     0.10619   0.82846   0.49772   0.00000  Uiso   1.00
C844   C     0.39292   0.67316   0.50187   0.00000  Uiso   1.00
C845   C     0.41756   0.85460   0.49874   0.00000  Uiso   1.00
C846   C     0.07971   0.64390   0.50119   0.00000  Uiso   1.00
C847   C     0.33369   0.60385   0.50080   0.00000  Uiso   1.00
C848   C     0.16819   0.89527   0.49898   0.00000  Uiso   1.00
C849   C     0.14413   0.57941   0.50240   0.00000  Uiso   1.00
C850   C     0.06410   0.80531   0.49949   0.00000  Uiso   1.00
C851   C     0.35701   0.92281   0.49811   0.00000  Uiso   1.00
C852   C     0.37350   0.69656   0.42300   0.00000  Uiso   1.00
C853   C     0.12644   0.80349   0.57639   0.00000  Uiso   1.00
C854   C     0.10818   0.82883   0.41097   0.00000  Uiso   1.00
C855   C     0.38528   0.68132   0.58663   0.00000  Uiso   1.00
C856   C     0.06822   0.63529   0.58594   0.00000  Uiso   1.00
C857   C     0.42327   0.85895   0.41205   0.00000  Uiso   1.00
C858   C     0.43657   0.87203   0.58019   0.00000  Uiso   1.00
C859   C     0.06177   0.62669   0.42026   0.00000  Uiso   1.00
C860   C     0.17715   0.88915   0.41302   0.00000  Uiso   1.00
C861   C     0.31455   0.94548   0.49960   0.00000  Uiso   1.00
C862   C     0.32902   0.60656   0.58753   0.00000  Uiso   1.00
C863   C     0.31968   0.61819   0.41709   0.00000  Uiso   1.00
C864   C     0.18164   0.88162   0.58215   0.00000  Uiso   1.00
C865   C     0.37708   0.94664   0.57664   0.00000  Uiso   1.00
C866   C     0.12212   0.55167   0.42513   0.00000  Uiso   1.00
C867   C     0.14352   0.58188   0.58930   0.00000  Uiso   1.00
C868   C     0.36444   0.93160   0.41322   0.00000  Uiso   1.00
C869   C     0.18626   0.55605   0.50052   0.00000  Uiso   1.00
C870   C     0.19317   0.93663   0.49995   0.00000  Uiso   1.00
C871   C     0.30780   0.56284   0.50001   0.00000  Uiso   1.00
C872   C     0.01042   0.78741   0.35717   0.00000  Uiso   1.00
H873   H     0.01802   0.81731   0.37543   0.00000  Uiso   1.00
H874   H     0.12397   0.73937   0.59576   0.00000  Uiso   1.00
H875   H     0.08472   0.84597   0.34955   0.00000  Uiso   1.00
H876   H     0.39117   0.74014   0.61891   0.00000  Uiso   1.00
H877   H     0.01917   0.61587   0.62832   0.00000  Uiso   1.00
H878   H     0.46510   0.87381   0.36068   0.00000  Uiso   1.00
H879   H     0.49171   0.88826   0.61400   0.00000  Uiso   1.00
H880   H     0.05873   0.65163   0.35751   0.00000  Uiso   1.00
H881   H     0.22120   0.87125   0.36454   0.00000  Uiso   1.00
H882   H     0.33484   0.56326   0.63932   0.00000  Uiso   1.00
H883   H     0.27146   0.63503   0.37377   0.00000  Uiso   1.00
H884   H     0.47987   0.68308   0.62479   0.00000  Uiso   1.00
H885   H     0.17987   0.91458   0.64123   0.00000  Uiso   1.00
H886   H     0.37398   0.95706   0.64366   0.00000  Uiso   1.00
H887   H     0.12397   0.53906   0.35815   0.00000  Uiso   1.00
H888   H     0.16784   0.60158   0.64952   0.00000  Uiso   1.00
H889   H     0.35825   0.99040   0.38080   0.00000  Uiso   1.00
H890   H     0.47950   0.68297   0.37571   0.00000  Uiso   1.00
H891   H     0.02020   0.81700   0.62430   0.00000  Uiso   1.00
H892   H     0.23113   0.56751   0.37558   0.00000  Uiso   1.00
H893   H     0.26925   0.93250   0.62449   0.00000  Uiso   1.00
H894   H     0.26891   0.93260   0.37543   0.00000  Uiso   1.00
H895   H     0.23331   0.56787   0.62452   0.00000  Uiso   1.00
H896   H     0.37811   0.70687   0.35607   0.00000  Uiso   1.00
N897   N     0.00000   0.75000   0.61907   0.00000  Uiso   1.00
N898   N     0.00000   0.75000   0.38093   0.00000  Uiso   1.00
N899   N     0.25000   0.50000   0.61907   0.00000  Uiso   1.00
N900   N     0.25000   0.50000   0.38093   0.00000  Uiso   1.00
O901   O     0.04580   0.70419   0.53821   0.00000  Uiso   1.00
O902   O     0.20419   0.54581   0.46179   0.00000  Uiso   1.00
O903   O     0.20419   0.54581   0.53821   0.00000  Uiso   1.00
O904   O     0.29580   0.95419   0.46179   0.00000  Uiso   1.00
O905   O     0.20419   0.95419   0.46179   0.00000  Uiso   1.00
O906   O     0.29580   0.54581   0.53821   0.00000  Uiso   1.00
O907   O     0.29580   0.54581   0.46179   0.00000  Uiso   1.00
O908   O     0.20419   0.95419   0.53821   0.00000  Uiso   1.00
O909   O     0.37277   0.73648   0.43060   0.00000  Uiso   1.00
O910   O     0.37711   0.68141   0.37847   0.00000  Uiso   1.00
O911   O     0.12532   0.81635   0.61564   0.00000  Uiso   1.00
O912   O     0.45419   0.79581   0.46179   0.00000  Uiso   1.00
O913   O     0.12540   0.75801   0.56716   0.00000  Uiso   1.00
O914   O     0.11170   0.78963   0.40075   0.00000  Uiso   1.00
O915   O     0.09182   0.85965   0.37987   0.00000  Uiso   1.00
O916   O     0.39763   0.66020   0.61955   0.00000  Uiso   1.00
O917   O     0.38144   0.72757   0.58881   0.00000  Uiso   1.00
O918   O     0.08074   0.66433   0.61161   0.00000  Uiso   1.00
O919   O     0.03171   0.60907   0.59711   0.00000  Uiso   1.00
O920   O     0.40717   0.82779   0.39153   0.00000  Uiso   1.00
O921   O     0.45745   0.88380   0.39259   0.00000  Uiso   1.00
O922   O     0.42228   0.84917   0.61133   0.00000  Uiso   1.00
O923   O     0.45419   0.79581   0.53821   0.00000  Uiso   1.00
O924   O     0.47757   0.89283   0.58339   0.00000  Uiso   1.00
O925   O     0.02304   0.61539   0.42002   0.00000  Uiso   1.00
O926   O     0.08077   0.64756   0.38262   0.00000  Uiso   1.00
O927   O     0.16356   0.92068   0.39103   0.00000  Uiso   1.00
O928   O     0.21117   0.86226   0.39612   0.00000  Uiso   1.00
O929   O     0.29690   0.62483   0.60471   0.00000  Uiso   1.00
O930   O     0.35013   0.57162   0.60982   0.00000  Uiso   1.00
O931   O     0.33526   0.59051   0.39117   0.00000  Uiso   1.00
O932   O     0.28207   0.64234   0.40535   0.00000  Uiso   1.00
O933   O     0.21890   0.86750   0.58859   0.00000  Uiso   1.00
O934   O     0.04580   0.70419   0.46179   0.00000  Uiso   1.00
O935   O     0.16032   0.90801   0.61455   0.00000  Uiso   1.00
O936   O     0.37698   0.98652   0.56879   0.00000  Uiso   1.00
O937   O     0.37478   0.93158   0.62133   0.00000  Uiso   1.00
O938   O     0.12366   0.51209   0.43437   0.00000  Uiso   1.00
O939   O     0.12238   0.56511   0.37983   0.00000  Uiso   1.00
O940   O     0.14073   0.54307   0.60119   0.00000  Uiso   1.00
O941   O     0.15996   0.61401   0.61877   0.00000  Uiso   1.00
O942   O     0.35199   0.91052   0.38041   0.00000  Uiso   1.00
O943   O     0.36811   0.97784   0.41092   0.00000  Uiso   1.00
O944   O     0.45419   0.70419   0.46179   0.00000  Uiso   1.00
O945   O     0.04580   0.79581   0.53821   0.00000  Uiso   1.00
O946   O     0.04580   0.79581   0.46179   0.00000  Uiso   1.00
O947   O     0.45419   0.70419   0.53821   0.00000  Uiso   1.00
O948   O     0.29580   0.95419   0.53821   0.00000  Uiso   1.00
Zn949  Zn    0.00000   0.75000   0.55104   0.00000  Uiso   1.00
Zn950  Zn   -0.00000   0.75000   0.44896   0.00000  Uiso   1.00
Zn951  Zn    0.25000   0.50000   0.55104   0.00000  Uiso   1.00
Zn952  Zn    0.25000   0.50000   0.44896   0.00000  Uiso   1.00
C953   C     0.55569   0.68591   0.50009   0.00000  Uiso   1.00
C954   C     0.98872   0.71278   0.64286   0.00000  Uiso   1.00
C955   C     0.98864   0.71277   0.35748   0.00000  Uiso   1.00
C956   C     0.51098   0.78731   0.64255   0.00000  Uiso   1.00
C957   C     0.73973   0.53758   0.35737   0.00000  Uiso   1.00
C958   C     0.76065   0.96249   0.64264   0.00000  Uiso   1.00
C959   C     0.76058   0.96251   0.35725   0.00000  Uiso   1.00
C960   C     0.74028   0.53768   0.64275   0.00000  Uiso   1.00
C961   C     0.87043   0.66465   0.46154   0.00000  Uiso   1.00
C962   C     0.62958   0.83572   0.53803   0.00000  Uiso   1.00
C963   C     0.62320   0.84465   0.45601   0.00000  Uiso   1.00
C964   C     0.94280   0.81322   0.49986   0.00000  Uiso   1.00
C965   C     0.87537   0.65814   0.54342   0.00000  Uiso   1.00
C966   C     0.59293   0.62635   0.54324   0.00000  Uiso   1.00
C967   C     0.90430   0.87293   0.45645   0.00000  Uiso   1.00
C968   C     0.90981   0.87911   0.53914   0.00000  Uiso   1.00
C969   C     0.58834   0.61946   0.46123   0.00000  Uiso   1.00
C970   C     0.65543   0.87723   0.45677   0.00000  Uiso   1.00
C971   C     0.84649   0.62234   0.54315   0.00000  Uiso   1.00
C972   C     0.84216   0.62808   0.46018   0.00000  Uiso   1.00
C973   C     0.65899   0.87138   0.53937   0.00000  Uiso   1.00
C974   C     0.88009   0.91467   0.53829   0.00000  Uiso   1.00
C975   C     0.93533   0.69577   0.50042   0.00000  Uiso   1.00
C976   C     0.61937   0.58496   0.46248   0.00000  Uiso   1.00
C977   C     0.62716   0.59582   0.54414   0.00000  Uiso   1.00
C978   C     0.87475   0.90832   0.45641   0.00000  Uiso   1.00
C979   C     0.60619   0.82846   0.49772   0.00000  Uiso   1.00
C980   C     0.89292   0.67316   0.50187   0.00000  Uiso   1.00
C981   C     0.91756   0.85460   0.49874   0.00000  Uiso   1.00
C982   C     0.57971   0.64390   0.50119   0.00000  Uiso   1.00
C983   C     0.83369   0.60385   0.50080   0.00000  Uiso   1.00
C984   C     0.66819   0.89527   0.49898   0.00000  Uiso   1.00
C985   C     0.64413   0.57941   0.50240   0.00000  Uiso   1.00
C986   C     0.56410   0.80531   0.49949   0.00000  Uiso   1.00
C987   C     0.85701   0.92281   0.49811   0.00000  Uiso   1.00
C988   C     0.87350   0.69656   0.42300   0.00000  Uiso   1.00
C989   C     0.62644   0.80349   0.57639   0.00000  Uiso   1.00
C990   C     0.60818   0.82883   0.41097   0.00000  Uiso   1.00
C991   C     0.88528   0.68132   0.58663   0.00000  Uiso   1.00
C992   C     0.56822   0.63529   0.58594   0.00000  Uiso   1.00
C993   C     0.92327   0.85895   0.41205   0.00000  Uiso   1.00
C994   C     0.93657   0.87203   0.58019   0.00000  Uiso   1.00
C995   C     0.56177   0.62669   0.42026   0.00000  Uiso   1.00
C996   C     0.67715   0.88915   0.41302   0.00000  Uiso   1.00
C997   C     0.81455   0.94548   0.49960   0.00000  Uiso   1.00
C998   C     0.82902   0.60656   0.58753   0.00000  Uiso   1.00
C999   C     0.81968   0.61819   0.41709   0.00000  Uiso   1.00
C1000  C     0.68164   0.88162   0.58215   0.00000  Uiso   1.00
C1001  C     0.87708   0.94664   0.57664   0.00000  Uiso   1.00
C1002  C     0.62212   0.55167   0.42513   0.00000  Uiso   1.00
C1003  C     0.64352   0.58188   0.58930   0.00000  Uiso   1.00
C1004  C     0.86444   0.93160   0.41322   0.00000  Uiso   1.00
C1005  C     0.68626   0.55605   0.50052   0.00000  Uiso   1.00
C1006  C     0.69317   0.93663   0.49995   0.00000  Uiso   1.00
C1007  C     0.80780   0.56284   0.50001   0.00000  Uiso   1.00
C1008  C     0.51042   0.78741   0.35717   0.00000  Uiso   1.00
H1009  H     0.51802   0.81731   0.37543   0.00000  Uiso   1.00
H1010  H     0.62397   0.73937   0.59576   0.00000  Uiso   1.00
H1011  H     0.58472   0.84597   0.34955   0.00000  Uiso   1.00
H1012  H     0.89117   0.74014   0.61891   0.00000  Uiso   1.00
H1013  H     0.51917   0.61587   0.62832   0.00000  Uiso   1.00
H1014  H     0.96510   0.87381   0.36068   0.00000  Uiso   1.00
H1015  H     0.99171   0.88826   0.61400   0.00000  Uiso   1.00
H1016  H     0.55873   0.65163   0.35751   0.00000  Uiso   1.00
H1017  H     0.72120   0.87125   0.36454   0.00000  Uiso   1.00
H1018  H     0.83484   0.56326   0.63932   0.00000  Uiso   1.00
H1019  H     0.77146   0.63503   0.37377   0.00000  Uiso   1.00
H1020  H     0.97987   0.68308   0.62479   0.00000  Uiso   1.00
H1021  H     0.67987   0.91458   0.64123   0.00000  Uiso   1.00
H1022  H     0.87398   0.95706   0.64366   0.00000  Uiso   1.00
H1023  H     0.62397   0.53906   0.35815   0.00000  Uiso   1.00
H1024  H     0.66784   0.60158   0.64952   0.00000  Uiso   1.00
H1025  H     0.85825   0.99040   0.38080   0.00000  Uiso   1.00
H1026  H     0.97950   0.68297   0.37571   0.00000  Uiso   1.00
H1027  H     0.52020   0.81700   0.62430   0.00000  Uiso   1.00
H1028  H     0.73113   0.56751   0.37558   0.00000  Uiso   1.00
H1029  H     0.76925   0.93250   0.62449   0.00000  Uiso   1.00
H1030  H     0.76891   0.93260   0.37543   0.00000  Uiso   1.00
H1031  H     0.73331   0.56787   0.62452   0.00000  Uiso   1.00
H1032  H     0.87811   0.70687   0.35607   0.00000  Uiso   1.00
N1033  N     0.50000   0.75000   0.61907   0.00000  Uiso   1.00
N1034  N     0.50000   0.75000   0.38093   0.00000  Uiso   1.00
N1035  N     0.75000   0.50000   0.61907   0.00000  Uiso   1.00
N1036  N     0.75000   0.50000   0.38093   0.00000  Uiso   1.00
O1037  O     0.54580   0.70419   0.53821   0.00000  Uiso   1.00
O1038  O     0.70419   0.54581   0.46179   0.00000  Uiso   1.00
O1039  O     0.70419   0.54581   0.53821   0.00000  Uiso   1.00
O1040  O     0.79580   0.95419   0.46179   0.00000  Uiso   1.00
O1041  O     0.70419   0.95419   0.46179   0.00000  Uiso   1.00
O1042  O     0.79580   0.54581   0.53821   0.00000  Uiso   1.00
O1043  O     0.79580   0.54581   0.46179   0.00000  Uiso   1.00
O1044  O     0.70419   0.95419   0.53821   0.00000  Uiso   1.00
O1045  O     0.87277   0.73648   0.43060   0.00000  Uiso   1.00
O1046  O     0.87711   0.68141   0.37847   0.00000  Uiso   1.00
O1047  O     0.62532   0.81635   0.61564   0.00000  Uiso   1.00
O1048  O     0.95419   0.79581   0.46179   0.00000  Uiso   1.00
O1049  O     0.62540   0.75801   0.56716   0.00000  Uiso   1.00
O1050  O     0.61170   0.78963   0.40075   0.00000  Uiso   1.00
O1051  O     0.59182   0.85965   0.37987   0.00000  Uiso   1.00
O1052  O     0.89763   0.66020   0.61955   0.00000  Uiso   1.00
O1053  O     0.88144   0.72757   0.58881   0.00000  Uiso   1.00
O1054  O     0.58074   0.66433   0.61161   0.00000  Uiso   1.00
O1055  O     0.53171   0.60907   0.59711   0.00000  Uiso   1.00
O1056  O     0.90717   0.82779   0.39153   0.00000  Uiso   1.00
O1057  O     0.95745   0.88380   0.39259   0.00000  Uiso   1.00
O1058  O     0.92228   0.84917   0.61133   0.00000  Uiso   1.00
O1059  O     0.95419   0.79581   0.53821   0.00000  Uiso   1.00
O1060  O     0.97757   0.89283   0.58339   0.00000  Uiso   1.00
O1061  O     0.52304   0.61539   0.42002   0.00000  Uiso   1.00
O1062  O     0.58077   0.64756   0.38262   0.00000  Uiso   1.00
O1063  O     0.66356   0.92068   0.39103   0.00000  Uiso   1.00
O1064  O     0.71117   0.86226   0.39612   0.00000  Uiso   1.00
O1065  O     0.79690   0.62483   0.60471   0.00000  Uiso   1.00
O1066  O     0.85013   0.57162   0.60982   0.00000  Uiso   1.00
O1067  O     0.83526   0.59051   0.39117   0.00000  Uiso   1.00
O1068  O     0.78207   0.64234   0.40535   0.00000  Uiso   1.00
O1069  O     0.71890   0.86750   0.58859   0.00000  Uiso   1.00
O1070  O     0.54580   0.70419   0.46179   0.00000  Uiso   1.00
O1071  O     0.66032   0.90801   0.61455   0.00000  Uiso   1.00
O1072  O     0.87698   0.98652   0.56879   0.00000  Uiso   1.00
O1073  O     0.87478   0.93158   0.62133   0.00000  Uiso   1.00
O1074  O     0.62366   0.51209   0.43437   0.00000  Uiso   1.00
O1075  O     0.62238   0.56511   0.37983   0.00000  Uiso   1.00
O1076  O     0.64073   0.54307   0.60119   0.00000  Uiso   1.00
O1077  O     0.65996   0.61401   0.61877   0.00000  Uiso   1.00
O1078  O     0.85199   0.91052   0.38041   0.00000  Uiso   1.00
O1079  O     0.86811   0.97784   0.41092   0.00000  Uiso   1.00
O1080  O     0.95419   0.70419   0.46179   0.00000  Uiso   1.00
O1081  O     0.54580   0.79581   0.53821   0.00000  Uiso   1.00
O1082  O     0.54580   0.79581   0.46179   0.00000  Uiso   1.00
O1083  O     0.95419   0.70419   0.53821   0.00000  Uiso   1.00
O1084  O     0.79580   0.95419   0.53821   0.00000  Uiso   1.00
Zn1085 Zn    0.50000   0.75000   0.55104   0.00000  Uiso   1.00
Zn1086 Zn    0.50000   0.75000   0.44896   0.00000  Uiso   1.00
Zn1087 Zn    0.75000   0.50000   0.55104   0.00000  Uiso   1.00
Zn1088 Zn    0.75000   0.50000   0.44896   0.00000  Uiso   1.00
C1089  C     0.05569   0.18591   0.83342   0.00000  Uiso   1.00
C1090  C     0.48872   0.21278   0.97620   0.00000  Uiso   1.00
C1091  C     0.48864   0.21277   0.69081   0.00000  Uiso   1.00
C1092  C     0.01098   0.28731   0.97588   0.00000  Uiso   1.00
C1093  C     0.23973   0.03758   0.69071   0.00000  Uiso   1.00
C1094  C     0.26065   0.46249   0.97597   0.00000  Uiso   1.00
C1095  C     0.26058   0.46251   0.69059   0.00000  Uiso   1.00
C1096  C     0.24028   0.03768   0.97608   0.00000  Uiso   1.00
C1097  C     0.37043   0.16465   0.79487   0.00000  Uiso   1.00
C1098  C     0.12958   0.33572   0.87136   0.00000  Uiso   1.00
C1099  C     0.12320   0.34465   0.78934   0.00000  Uiso   1.00
C1100  C     0.44280   0.31322   0.83320   0.00000  Uiso   1.00
C1101  C     0.37537   0.15814   0.87675   0.00000  Uiso   1.00
C1102  C     0.09293   0.12635   0.87657   0.00000  Uiso   1.00
C1103  C     0.40430   0.37293   0.78978   0.00000  Uiso   1.00
C1104  C     0.40981   0.37911   0.87247   0.00000  Uiso   1.00
C1105  C     0.08834   0.11946   0.79456   0.00000  Uiso   1.00
C1106  C     0.15543   0.37723   0.79010   0.00000  Uiso   1.00
C1107  C     0.34649   0.12234   0.87649   0.00000  Uiso   1.00
C1108  C     0.34216   0.12808   0.79351   0.00000  Uiso   1.00
C1109  C     0.15899   0.37138   0.87270   0.00000  Uiso   1.00
C1110  C     0.38009   0.41467   0.87162   0.00000  Uiso   1.00
C1111  C     0.43533   0.19577   0.83376   0.00000  Uiso   1.00
C1112  C     0.11937   0.08496   0.79581   0.00000  Uiso   1.00
C1113  C     0.12716   0.09582   0.87747   0.00000  Uiso   1.00
C1114  C     0.37475   0.40832   0.78974   0.00000  Uiso   1.00
C1115  C     0.10619   0.32846   0.83105   0.00000  Uiso   1.00
C1116  C     0.39292   0.17316   0.83520   0.00000  Uiso   1.00
C1117  C     0.41756   0.35460   0.83207   0.00000  Uiso   1.00
C1118  C     0.07971   0.14390   0.83452   0.00000  Uiso   1.00
C1119  C     0.33369   0.10385   0.83414   0.00000  Uiso   1.00
C1120  C     0.16819   0.39527   0.83231   0.00000  Uiso   1.00
C1121  C     0.14413   0.07941   0.83573   0.00000  Uiso   1.00
C1122  C     0.06410   0.30531   0.83282   0.00000  Uiso   1.00
C1123  C     0.35701   0.42281   0.83144   0.00000  Uiso   1.00
C1124  C     0.37350   0.19656   0.75634   0.00000  Uiso   1.00
C1125  C     0.12644   0.30349   0.90972   0.00000  Uiso   1.00
C1126  C     0.10818   0.32883   0.74431   0.00000  Uiso   1.00
C1127  C     0.38528   0.18132   0.91996   0.00000  Uiso   1.00
C1128  C     0.06822   0.13529   0.91928   0.00000  Uiso   1.00
C1129  C     0.42327   0.35895   0.74538   0.00000  Uiso   1.00
C1130  C     0.43657   0.37203   0.91352   0.00000  Uiso   1.00
C1131  C     0.06177   0.12669   0.75359   0.00000  Uiso   1.00
C1132  C     0.17715   0.38915   0.74636   0.00000  Uiso   1.00
C1133  C     0.31455   0.44548   0.83293   0.00000  Uiso   1.00
C1134  C     0.32902   0.10656   0.92086   0.00000  Uiso   1.00
C1135  C     0.31968   0.11819   0.75043   0.00000  Uiso   1.00
C1136  C     0.18164   0.38162   0.91548   0.00000  Uiso   1.00
C1137  C     0.37708   0.44664   0.90998   0.00000  Uiso   1.00
C1138  C     0.12212   0.05167   0.75846   0.00000  Uiso   1.00
C1139  C     0.14352   0.08188   0.92263   0.00000  Uiso   1.00
C1140  C     0.36444   0.43160   0.74656   0.00000  Uiso   1.00
C1141  C     0.18626   0.05605   0.83385   0.00000  Uiso   1.00
C1142  C     0.19317   0.43663   0.83329   0.00000  Uiso   1.00
C1143  C     0.30780   0.06284   0.83334   0.00000  Uiso   1.00
C1144  C     0.01042   0.28741   0.69051   0.00000  Uiso   1.00
H1145  H     0.01802   0.31731   0.70876   0.00000  Uiso   1.00
H1146  H     0.12397   0.23937   0.92910   0.00000  Uiso   1.00
H1147  H     0.08472   0.34597   0.68288   0.00000  Uiso   1.00
H1148  H     0.39117   0.24014   0.95224   0.00000  Uiso   1.00
H1149  H     0.01917   0.11587   0.96165   0.00000  Uiso   1.00
H1150  H     0.46510   0.37381   0.69402   0.00000  Uiso   1.00
H1151  H     0.49171   0.38826   0.94733   0.00000  Uiso   1.00
H1152  H     0.05873   0.15163   0.69084   0.00000  Uiso   1.00
H1153  H     0.22120   0.37125   0.69788   0.00000  Uiso   1.00
H1154  H     0.33484   0.06326   0.97265   0.00000  Uiso   1.00
H1155  H     0.27146   0.13503   0.70711   0.00000  Uiso   1.00
H1156  H     0.47987   0.18308   0.95812   0.00000  Uiso   1.00
H1157  H     0.17987   0.41458   0.97456   0.00000  Uiso   1.00
H1158  H     0.37398   0.45706   0.97700   0.00000  Uiso   1.00
H1159  H     0.12397   0.03906   0.69148   0.00000  Uiso   1.00
H1160  H     0.16784   0.10158   0.98285   0.00000  Uiso   1.00
H1161  H     0.35825   0.49040   0.71413   0.00000  Uiso   1.00
H1162  H     0.47950   0.18297   0.70904   0.00000  Uiso   1.00
H1163  H     0.02020   0.31700   0.95763   0.00000  Uiso   1.00
H1164  H     0.23113   0.06751   0.70892   0.00000  Uiso   1.00
H1165  H     0.26925   0.43250   0.95782   0.00000  Uiso   1.00
H1166  H     0.26891   0.43260   0.70876   0.00000  Uiso   1.00
H1167  H     0.23331   0.06787   0.95785   0.00000  Uiso   1.00
H1168  H     0.37811   0.20687   0.68940   0.00000  Uiso   1.00
N1169  N     0.00000   0.25000   0.95240   0.00000  Uiso   1.00
N1170  N     0.00000   0.25000   0.71427   0.00000  Uiso   1.00
N1171  N     0.25000  -0.00000   0.95240   0.00000  Uiso   1.00
N1172  N     0.25000  -0.00000   0.71427   0.00000  Uiso   1.00
O1173  O     0.04580   0.20419   0.87154   0.00000  Uiso   1.00
O1174  O     0.20419   0.04581   0.79513   0.00000  Uiso   1.00
O1175  O     0.20419   0.04581   0.87154   0.00000  Uiso   1.00
O1176  O     0.29580   0.45419   0.79513   0.00000  Uiso   1.00
O1177  O     0.20419   0.45419   0.79513   0.00000  Uiso   1.00
O1178  O     0.29580   0.04581   0.87154   0.00000  Uiso   1.00
O1179  O     0.29580   0.04581   0.79513   0.00000  Uiso   1.00
O1180  O     0.20419   0.45419   0.87154   0.00000  Uiso   1.00
O1181  O     0.37277   0.23648   0.76393   0.00000  Uiso   1.00
O1182  O     0.37711   0.18141   0.71180   0.00000  Uiso   1.00
O1183  O     0.12532   0.31635   0.94897   0.00000  Uiso   1.00
O1184  O     0.45419   0.29581   0.79513   0.00000  Uiso   1.00
O1185  O     0.12540   0.25801   0.90049   0.00000  Uiso   1.00
O1186  O     0.11170   0.28963   0.73408   0.00000  Uiso   1.00
O1187  O     0.09182   0.35965   0.71320   0.00000  Uiso   1.00
O1188  O     0.39763   0.16020   0.95289   0.00000  Uiso   1.00
O1189  O     0.38144   0.22757   0.92214   0.00000  Uiso   1.00
O1190  O     0.08074   0.16433   0.94495   0.00000  Uiso   1.00
O1191  O     0.03171   0.10907   0.93044   0.00000  Uiso   1.00
O1192  O     0.40717   0.32779   0.72486   0.00000  Uiso   1.00
O1193  O     0.45745   0.38380   0.72593   0.00000  Uiso   1.00
O1194  O     0.42228   0.34917   0.94466   0.00000  Uiso   1.00
O1195  O     0.45419   0.29581   0.87154   0.00000  Uiso   1.00
O1196  O     0.47757   0.39283   0.91673   0.00000  Uiso   1.00
O1197  O     0.02304   0.11539   0.75335   0.00000  Uiso   1.00
O1198  O     0.08077   0.14756   0.71596   0.00000  Uiso   1.00
O1199  O     0.16356   0.42068   0.72436   0.00000  Uiso   1.00
O1200  O     0.21117   0.36226   0.72945   0.00000  Uiso   1.00
O1201  O     0.29690   0.12483   0.93804   0.00000  Uiso   1.00
O1202  O     0.35013   0.07162   0.94315   0.00000  Uiso   1.00
O1203  O     0.33526   0.09051   0.72450   0.00000  Uiso   1.00
O1204  O     0.28207   0.14234   0.73868   0.00000  Uiso   1.00
O1205  O     0.21890   0.36750   0.92192   0.00000  Uiso   1.00
O1206  O     0.04580   0.20419   0.79513   0.00000  Uiso   1.00
O1207  O     0.16032   0.40801   0.94788   0.00000  Uiso   1.00
O1208  O     0.37698   0.48652   0.90213   0.00000  Uiso   1.00
O1209  O     0.37478   0.43158   0.95466   0.00000  Uiso   1.00
O1210  O     0.12366   0.01209   0.76770   0.00000  Uiso   1.00
O1211  O     0.12238   0.06511   0.71316   0.00000  Uiso   1.00
O1212  O     0.14073   0.04307   0.93452   0.00000  Uiso   1.00
O1213  O     0.15996   0.11401   0.95211   0.00000  Uiso   1.00
O1214  O     0.35199   0.41052   0.71374   0.00000  Uiso   1.00
O1215  O     0.36811   0.47784   0.74425   0.00000  Uiso   1.00
O1216  O     0.45419   0.20419   0.79513   0.00000  Uiso   1.00
O1217  O     0.04580   0.29581   0.87154   0.00000  Uiso   1.00
O1218  O     0.04580   0.29581   0.79513   0.00000  Uiso   1.00
O1219  O     0.45419   0.20419   0.87154   0.00000  Uiso   1.00
O1220  O     0.29580   0.45419   0.87154   0.00000  Uiso   1.00
Zn1221 Zn    0.00000   0.25000   0.88437   0.00000  Uiso   1.00
Zn1222 Zn   -0.00000   0.25000   0.78229   0.00000  Uiso   1.00
Zn1223 Zn    0.25000  -0.00000   0.88437   0.00000  Uiso   1.00
Zn1224 Zn    0.25000  -0.00000   0.78229   0.00000  Uiso   1.00
C1225  C     0.55569   0.18591   0.83342   0.00000  Uiso   1.00
C1226  C     0.98872   0.21278   0.97620   0.00000  Uiso   1.00
C1227  C     0.98864   0.21277   0.69081   0.00000  Uiso   1.00
C1228  C     0.51098   0.28731   0.97588   0.00000  Uiso   1.00
C1229  C     0.73973   0.03758   0.69071   0.00000  Uiso   1.00
C1230  C     0.76065   0.46249   0.97597   0.00000  Uiso   1.00
C1231  C     0.76058   0.46251   0.69059   0.00000  Uiso   1.00
C1232  C     0.74028   0.03768   0.97608   0.00000  Uiso   1.00
C1233  C     0.87043   0.16465   0.79487   0.00000  Uiso   1.00
C1234  C     0.62958   0.33572   0.87136   0.00000  Uiso   1.00
C1235  C     0.62320   0.34465   0.78934   0.00000  Uiso   1.00
C1236  C     0.94280   0.31322   0.83320   0.00000  Uiso   1.00
C1237  C     0.87537   0.15814   0.87675   0.00000  Uiso   1.00
C1238  C     0.59293   0.12635   0.87657   0.00000  Uiso   1.00
C1239  C     0.90430   0.37293   0.78978   0.00000  Uiso   1.00
C1240  C     0.90981   0.37911   0.87247   0.00000  Uiso   1.00
C1241  C     0.58834   0.11946   0.79456   0.00000  Uiso   1.00
C1242  C     0.65543   0.37723   0.79010   0.00000  Uiso   1.00
C1243  C     0.84649   0.12234   0.87649   0.00000  Uiso   1.00
C1244  C     0.84216   0.12808   0.79351   0.00000  Uiso   1.00
C1245  C     0.65899   0.37138   0.87270   0.00000  Uiso   1.00
C1246  C     0.88009   0.41467   0.87162   0.00000  Uiso   1.00
C1247  C     0.93533   0.19577   0.83376   0.00000  Uiso   1.00
C1248  C     0.61937   0.08496   0.79581   0.00000  Uiso   1.00
C1249  C     0.62716   0.09582   0.87747   0.00000  Uiso   1.00
C1250  C     0.87475   0.40832   0.78974   0.00000  Uiso   1.00
C1251  C     0.60619   0.32846   0.83105   0.00000  Uiso   1.00
C1252  C     0.89292   0.17316   0.83520   0.00000  Uiso   1.00
C1253  C     0.91756   0.35460   0.83207   0.00000  Uiso   1.00
C1254  C     0.57971   0.14390   0.83452   0.00000  Uiso   1.00
C1255  C     0.83369   0.10385   0.83414   0.00000  Uiso   1.00
C1256  C     0.66819   0.39527   0.83231   0.00000  Uiso   1.00
C1257  C     0.64413   0.07941   0.83573   0.00000  Uiso   1.00
C1258  C     0.56410   0.30531   0.83282   0.00000  Uiso   1.00
C1259  C     0.85701   0.42281   0.83144   0.00000  Uiso   1.00
C1260  C     0.87350   0.19656   0.75634   0.00000  Uiso   1.00
C1261  C     0.62644   0.30349   0.90972   0.00000  Uiso   1.00
C1262  C     0.60818   0.32883   0.74431   0.00000  Uiso   1.00
C1263  C     0.88528   0.18132   0.91996   0.00000  Uiso   1.00
C1264  C     0.56822   0.13529   0.91928   0.00000  Uiso   1.00
C1265  C     0.92327   0.35895   0.74538   0.00000  Uiso   1.00
C1266  C     0.93657   0.37203   0.91352   0.00000  Uiso   1.00
C1267  C     0.56177   0.12669   0.75359   0.00000  Uiso   1.00
C1268  C     0.67715   0.38915   0.74636   0.00000  Uiso   1.00
C1269  C     0.81455   0.44548   0.83293   0.00000  Uiso   1.00
C1270  C     0.82902   0.10656   0.92086   0.00000  Uiso   1.00
C1271  C     0.81968   0.11819   0.75043   0.00000  Uiso   1.00
C1272  C     0.68164   0.38162   0.91548   0.00000  Uiso   1.00
C1273  C     0.87708   0.44664   0.90998   0.00000  Uiso   1.00
C1274  C     0.62212   0.05167   0.75846   0.00000  Uiso   1.00
C1275  C     0.64352   0.08188   0.92263   0.00000  Uiso   1.00
C1276  C     0.86444   0.43160   0.74656   0.00000  Uiso   1.00
C1277  C     0.68626   0.05605   0.83385   0.00000  Uiso   1.00
C1278  C     0.69317   0.43663   0.83329   0.00000  Uiso   1.00
C1279  C     0.80780   0.06284   0.83334   0.00000  Uiso   1.00
C1280  C     0.51042   0.28741   0.69051   0.00000  Uiso   1.00
H1281  H     0.51802   0.31731   0.70876   0.00000  Uiso   1.00
H1282  H     0.62397   0.23937   0.92910   0.00000  Uiso   1.00
H1283  H     0.58472   0.34597   0.68288   0.00000  Uiso   1.00
H1284  H     0.89117   0.24014   0.95224   0.00000  Uiso   1.00
H1285  H     0.51917   0.11587   0.96165   0.00000  Uiso   1.00
H1286  H     0.96510   0.37381   0.69402   0.00000  Uiso   1.00
H1287  H     0.99171   0.38826   0.94733   0.00000  Uiso   1.00
H1288  H     0.55873   0.15163   0.69084   0.00000  Uiso   1.00
H1289  H     0.72120   0.37125   0.69788   0.00000  Uiso   1.00
H1290  H     0.83484   0.06326   0.97265   0.00000  Uiso   1.00
H1291  H     0.77146   0.13503   0.70711   0.00000  Uiso   1.00
H1292  H     0.97987   0.18308   0.95812   0.00000  Uiso   1.00
H1293  H     0.67987   0.41458   0.97456   0.00000  Uiso   1.00
H1294  H     0.87398   0.45706   0.97700   0.00000  Uiso   1.00
H1295  H     0.62397   0.03906   0.69148   0.00000  Uiso   1.00
H1296  H     0.66784   0.10158   0.98285   0.00000  Uiso   1.00
H1297  H     0.85825   0.49040   0.71413   0.00000  Uiso   1.00
H1298  H     0.97950   0.18297   0.70904   0.00000  Uiso   1.00
H1299  H     0.52020   0.31700   0.95763   0.00000  Uiso   1.00
H1300  H     0.73113   0.06751   0.70892   0.00000  Uiso   1.00
H1301  H     0.76925   0.43250   0.95782   0.00000  Uiso   1.00
H1302  H     0.76891   0.43260   0.70876   0.00000  Uiso   1.00
H1303  H     0.73331   0.06787   0.95785   0.00000  Uiso   1.00
H1304  H     0.87811   0.20687   0.68940   0.00000  Uiso   1.00
N1305  N     0.50000   0.25000   0.95240   0.00000  Uiso   1.00
N1306  N     0.50000   0.25000   0.71427   0.00000  Uiso   1.00
N1307  N     0.75000  -0.00000   0.95240   0.00000  Uiso   1.00
N1308  N     0.75000  -0.00000   0.71427   0.00000  Uiso   1.00
O1309  O     0.54580   0.20419   0.87154   0.00000  Uiso   1.00
O1310  O     0.70419   0.04581   0.79513   0.00000  Uiso   1.00
O1311  O     0.70419   0.04581   0.87154   0.00000  Uiso   1.00
O1312  O     0.79580   0.45419   0.79513   0.00000  Uiso   1.00
O1313  O     0.70419   0.45419   0.79513   0.00000  Uiso   1.00
O1314  O     0.79580   0.04581   0.87154   0.00000  Uiso   1.00
O1315  O     0.79580   0.04581   0.79513   0.00000  Uiso   1.00
O1316  O     0.70419   0.45419   0.87154   0.00000  Uiso   1.00
O1317  O     0.87277   0.23648   0.76393   0.00000  Uiso   1.00
O1318  O     0.87711   0.18141   0.71180   0.00000  Uiso   1.00
O1319  O     0.62532   0.31635   0.94897   0.00000  Uiso   1.00
O1320  O     0.95419   0.29581   0.79513   0.00000  Uiso   1.00
O1321  O     0.62540   0.25801   0.90049   0.00000  Uiso   1.00
O1322  O     0.61170   0.28963   0.73408   0.00000  Uiso   1.00
O1323  O     0.59182   0.35965   0.71320   0.00000  Uiso   1.00
O1324  O     0.89763   0.16020   0.95289   0.00000  Uiso   1.00
O1325  O     0.88144   0.22757   0.92214   0.00000  Uiso   1.00
O1326  O     0.58074   0.16433   0.94495   0.00000  Uiso   1.00
O1327  O     0.53171   0.10907   0.93044   0.00000  Uiso   1.00
O1328  O     0.90717   0.32779   0.72486   0.00000  Uiso   1.00
O1329  O     0.95745   0.38380   0.72593   0.00000  Uiso   1.00
O1330  O     0.92228   0.34917   0.94466   0.00000  Uiso   1.00
O1331  O     0.95419   0.29581   0.87154   0.00000  Uiso   1.00
O1332  O     0.97757   0.39283   0.91673   0.00000  Uiso   1.00
O1333  O     0.52304   0.11539   0.75335   0.00000  Uiso   1.00
O1334  O     0.58077   0.14756   0.71596   0.00000  Uiso   1.00
O1335  O     0.66356   0.42068   0.72436   0.00000  Uiso   1.00
O1336  O     0.71117   0.36226   0.72945   0.00000  Uiso   1.00
O1337  O     0.79690   0.12483   0.93804   0.00000  Uiso   1.00
O1338  O     0.85013   0.07162   0.94315   0.00000  Uiso   1.00
O1339  O     0.83526   0.09051   0.72450   0.00000  Uiso   1.00
O1340  O     0.78207   0.14234   0.73868   0.00000  Uiso   1.00
O1341  O     0.71890   0.36750   0.92192   0.00000  Uiso   1.00
O1342  O     0.54580   0.20419   0.79513   0.00000  Uiso   1.00
O1343  O     0.66032   0.40801   0.94788   0.00000  Uiso   1.00
O1344  O     0.87698   0.48652   0.90213   0.00000  Uiso   1.00
O1345  O     0.87478   0.43158   0.95466   0.00000  Uiso   1.00
O1346  O     0.62366   0.01209   0.76770   0.00000  Uiso   1.00
O1347  O     0.62238   0.06511   0.71316   0.00000  Uiso   1.00
O1348  O     0.64073   0.04307   0.93452   0.00000  Uiso   1.00
O1349  O     0.65996   0.11401   0.95211   0.00000  Uiso   1.00
O1350  O     0.85199   0.41052   0.71374   0.00000  Uiso   1.00
O1351  O     0.86811   0.47784   0.74425   0.00000  Uiso   1.00
O1352  O     0.95419   0.20419   0.79513   0.00000  Uiso   1.00
O1353  O     0.54580   0.29581   0.87154   0.00000  Uiso   1.00
O1354  O     0.54580   0.29581   0.79513   0.00000  Uiso   1.00
O1355  O     0.95419   0.20419   0.87154   0.00000  Uiso   1.00
O1356  O     0.79580   0.45419   0.87154   0.00000  Uiso   1.00
Zn1357 Zn    0.50000   0.25000   0.88437   0.00000  Uiso   1.00
Zn1358 Zn    0.50000   0.25000   0.78229   0.00000  Uiso   1.00
Zn1359 Zn    0.75000  -0.00000   0.88437   0.00000  Uiso   1.00
Zn1360 Zn    0.75000  -0.00000   0.78229   0.00000  Uiso   1.00
C1361  C     0.05569   0.68591   0.83342   0.00000  Uiso   1.00
C1362  C     0.48872   0.71278   0.97620   0.00000  Uiso   1.00
C1363  C     0.48864   0.71277   0.69081   0.00000  Uiso   1.00
C1364  C     0.01098   0.78731   0.97588   0.00000  Uiso   1.00
C1365  C     0.23973   0.53758   0.69071   0.00000  Uiso   1.00
C1366  C     0.26065   0.96249   0.97597   0.00000  Uiso   1.00
C1367  C     0.26058   0.96251   0.69059   0.00000  Uiso   1.00
C1368  C     0.24028   0.53768   0.97608   0.00000  Uiso   1.00
C1369  C     0.37043   0.66465   0.79487   0.00000  Uiso   1.00
C1370  C     0.12958   0.83572   0.87136   0.00000  Uiso   1.00
C1371  C     0.12320   0.84465   0.78934   0.00000  Uiso   1.00
C1372  C     0.44280   0.81322   0.83320   0.00000  Uiso   1.00
C1373  C     0.37537   0.65814   0.87675   0.00000  Uiso   1.00
C1374  C     0.09293   0.62635   0.87657   0.00000  Uiso   1.00
C1375  C     0.40430   0.87293   0.78978   0.00000  Uiso   1.00
C1376  C     0.40981   0.87911   0.87247   0.00000  Uiso   1.00
C1377  C     0.08834   0.61946   0.79456   0.00000  Uiso   1.00
C1378  C     0.15543   0.87723   0.79010   0.00000  Uiso   1.00
C1379  C     0.34649   0.62234   0.87649   0.00000  Uiso   1.00
C1380  C     0.34216   0.62808   0.79351   0.00000  Uiso   1.00
C1381  C     0.15899   0.87138   0.87270   0.00000  Uiso   1.00
C1382  C     0.38009   0.91467   0.87162   0.00000  Uiso   1.00
C1383  C     0.43533   0.69577   0.83376   0.00000  Uiso   1.00
C1384  C     0.11937   0.58496   0.79581   0.00000  Uiso   1.00
C1385  C     0.12716   0.59582   0.87747   0.00000  Uiso   1.00
C1386  C     0.37475   0.90832   0.78974   0.00000  Uiso   1.00
C1387  C     0.10619   0.82846   0.83105   0.00000  Uiso   1.00
C1388  C     0.39292   0.67316   0.83520   0.00000  Uiso   1.00
C1389  C     0.41756   0.85460   0.83207   0.00000  Uiso   1.00
C1390  C     0.07971   0.64390   0.83452   0.00000  Uiso   1.00
C1391  C     0.33369   0.60385   0.83414   0.00000  Uiso   1.00
C1392  C     0.16819   0.89527   0.83231   0.00000  Uiso   1.00
C1393  C     0.14413   0.57941   0.83573   0.00000  Uiso   1.00
C1394  C     0.06410   0.80531   0.83282   0.00000  Uiso   1.00
C1395  C     0.35701   0.92281   0.83144   0.00000  Uiso   1.00
C1396  C     0.37350   0.69656   0.75634   0.00000  Uiso   1.00
C1397  C     0.12644   0.80349   0.90972   0.00000  Uiso   1.00
C1398  C     0.10818   0.82883   0.74431   0.00000  Uiso   1.00
C1399  C     0.38528   0.68132   0.91996   0.00000  Uiso   1.00
C1400  C     0.06822   0.63529   0.91928   0.00000  Uiso   1.00
C1401  C     0.42327   0.85895   0.74538   0.00000  Uiso   1.00
C1402  C     0.43657   0.87203   0.91352   0.00000  Uiso   1.00
C1403  C     0.06177   0.62669   0.75359   0.00000  Uiso   1.00
C1404  C     0.17715   0.88915   0.74636   0.00000  Uiso   1.00
C1405  C     0.31455   0.94548   0.83293   0.00000  Uiso   1.00
C1406  C     0.32902   0.60656   0.92086   0.00000  Uiso   1.00
C1407  C     0.31968   0.61819   0.75043   0.00000  Uiso   1.00
C1408  C     0.18164   0.88162   0.91548   0.00000  Uiso   1.00
C1409  C     0.37708   0.94664   0.90998   0.00000  Uiso   1.00
C1410  C     0.12212   0.55167   0.75846   0.00000  Uiso   1.00
C1411  C     0.14352   0.58188   0.92263   0.00000  Uiso   1.00
C1412  C     0.36444   0.93160   0.74656   0.00000  Uiso   1.00
C1413  C     0.18626   0.55605   0.83385   0.00000  Uiso   1.00
C1414  C     0.19317   0.93663   0.83329   0.00000  Uiso   1.00
C1415  C     0.30780   0.56284   0.83334   0.00000  Uiso   1.00
C1416  C     0.01042   0.78741   0.69051   0.00000  Uiso   1.00
H1417  H     0.01802   0.81731   0.70876   0.00000  Uiso   1.00
H1418  H     0.12397   0.73937   0.92910   0.00000  Uiso   1.00
H1419  H     0.08472   0.84597   0.68288   0.00000  Uiso   1.00
H1420  H     0.39117   0.74014   0.95224   0.00000  Uiso   1.00
H1421  H     0.01917   0.61587   0.96165   0.00000  Uiso   1.00
H1422  H     0.46510   0.87381   0.69402   0.00000  Uiso   1.00
H1423  H     0.49171   0.88826   0.94733   0.00000  Uiso   1.00
H1424  H     0.05873   0.65163   0.69084   0.00000  Uiso   1.00
H1425  H     0.22120   0.87125   0.69788   0.00000  Uiso   1.00
H1426  H     0.33484   0.56326   0.97265   0.00000  Uiso   1.00
H1427  H     0.27146   0.63503   0.70711   0.00000  Uiso   1.00
H1428  H     0.47987   0.68308   0.95812   0.00000  Uiso   1.00
H1429  H     0.17987   0.91458   0.97456   0.00000  Uiso   1.00
H1430  H     0.37398   0.95706   0.97700   0.00000  Uiso   1.00
H1431  H     0.12397   0.53906   0.69148   0.00000  Uiso   1.00
H1432  H     0.16784   0.60158   0.98285   0.00000  Uiso   1.00
H1433  H     0.35825   0.99040   0.71413   0.00000  Uiso   1.00
H1434  H     0.47950   0.68297   0.70904   0.00000  Uiso   1.00
H1435  H     0.02020   0.81700   0.95763   0.00000  Uiso   1.00
H1436  H     0.23113   0.56751   0.70892   0.00000  Uiso   1.00
H1437  H     0.26925   0.93250   0.95782   0.00000  Uiso   1.00
H1438  H     0.26891   0.93260   0.70876   0.00000  Uiso   1.00
H1439  H     0.23331   0.56787   0.95785   0.00000  Uiso   1.00
H1440  H     0.37811   0.70687   0.68940   0.00000  Uiso   1.00
N1441  N     0.00000   0.75000   0.95240   0.00000  Uiso   1.00
N1442  N     0.00000   0.75000   0.71427   0.00000  Uiso   1.00
N1443  N     0.25000   0.50000   0.95240   0.00000  Uiso   1.00
N1444  N     0.25000   0.50000   0.71427   0.00000  Uiso   1.00
O1445  O     0.04580   0.70419   0.87154   0.00000  Uiso   1.00
O1446  O     0.20419   0.54581   0.79513   0.00000  Uiso   1.00
O1447  O     0.20419   0.54581   0.87154   0.00000  Uiso   1.00
O1448  O     0.29580   0.95419   0.79513   0.00000  Uiso   1.00
O1449  O     0.20419   0.95419   0.79513   0.00000  Uiso   1.00
O1450  O     0.29580   0.54581   0.87154   0.00000  Uiso   1.00
O1451  O     0.29580   0.54581   0.79513   0.00000  Uiso   1.00
O1452  O     0.20419   0.95419   0.87154   0.00000  Uiso   1.00
O1453  O     0.37277   0.73648   0.76393   0.00000  Uiso   1.00
O1454  O     0.37711   0.68141   0.71180   0.00000  Uiso   1.00
O1455  O     0.12532   0.81635   0.94897   0.00000  Uiso   1.00
O1456  O     0.45419   0.79581   0.79513   0.00000  Uiso   1.00
O1457  O     0.12540   0.75801   0.90049   0.00000  Uiso   1.00
O1458  O     0.11170   0.78963   0.73408   0.00000  Uiso   1.00
O1459  O     0.09182   0.85965   0.71320   0.00000  Uiso   1.00
O1460  O     0.39763   0.66020   0.95289   0.00000  Uiso   1.00
O1461  O     0.38144   0.72757   0.92214   0.00000  Uiso   1.00
O1462  O     0.08074   0.66433   0.94495   0.00000  Uiso   1.00
O1463  O     0.03171   0.60907   0.93044   0.00000  Uiso   1.00
O1464  O     0.40717   0.82779   0.72486   0.00000  Uiso   1.00
O1465  O     0.45745   0.88380   0.72593   0.00000  Uiso   1.00
O1466  O     0.42228   0.84917   0.94466   0.00000  Uiso   1.00
O1467  O     0.45419   0.79581   0.87154   0.00000  Uiso   1.00
O1468  O     0.47757   0.89283   0.91673   0.00000  Uiso   1.00
O1469  O     0.02304   0.61539   0.75335   0.00000  Uiso   1.00
O1470  O     0.08077   0.64756   0.71596   0.00000  Uiso   1.00
O1471  O     0.16356   0.92068   0.72436   0.00000  Uiso   1.00
O1472  O     0.21117   0.86226   0.72945   0.00000  Uiso   1.00
O1473  O     0.29690   0.62483   0.93804   0.00000  Uiso   1.00
O1474  O     0.35013   0.57162   0.94315   0.00000  Uiso   1.00
O1475  O     0.33526   0.59051   0.72450   0.00000  Uiso   1.00
O1476  O     0.28207   0.64234   0.73868   0.00000  Uiso   1.00
O1477  O     0.21890   0.86750   0.92192   0.00000  Uiso   1.00
O1478  O     0.04580   0.70419   0.79513   0.00000  Uiso   1.00
O1479  O     0.16032   0.90801   0.94788   0.00000  Uiso   1.00
O1480  O     0.37698   0.98652   0.90213   0.00000  Uiso   1.00
O1481  O     0.37478   0.93158   0.95466   0.00000  Uiso   1.00
O1482  O     0.12366   0.51209   0.76770   0.00000  Uiso   1.00
O1483  O     0.12238   0.56511   0.71316   0.00000  Uiso   1.00
O1484  O     0.14073   0.54307   0.93452   0.00000  Uiso   1.00
O1485  O     0.15996   0.61401   0.95211   0.00000  Uiso   1.00
O1486  O     0.35199   0.91052   0.71374   0.00000  Uiso   1.00
O1487  O     0.36811   0.97784   0.74425   0.00000  Uiso   1.00
O1488  O     0.45419   0.70419   0.79513   0.00000  Uiso   1.00
O1489  O     0.04580   0.79581   0.87154   0.00000  Uiso   1.00
O1490  O     0.04580   0.79581   0.79513   0.00000  Uiso   1.00
O1491  O     0.45419   0.70419   0.87154   0.00000  Uiso   1.00
O1492  O     0.29580   0.95419   0.87154   0.00000  Uiso   1.00
Zn1493 Zn    0.00000   0.75000   0.88437   0.00000  Uiso   1.00
Zn1494 Zn   -0.00000   0.75000   0.78229   0.00000  Uiso   1.00
Zn1495 Zn    0.25000   0.50000   0.88437   0.00000  Uiso   1.00
Zn1496 Zn    0.25000   0.50000   0.78229   0.00000  Uiso   1.00
C1497  C     0.55569   0.68591   0.83342   0.00000  Uiso   1.00
C1498  C     0.98872   0.71278   0.97620   0.00000  Uiso   1.00
C1499  C     0.98864   0.71277   0.69081   0.00000  Uiso   1.00
C1500  C     0.51098   0.78731   0.97588   0.00000  Uiso   1.00
C1501  C     0.73973   0.53758   0.69071   0.00000  Uiso   1.00
C1502  C     0.76065   0.96249   0.97597   0.00000  Uiso   1.00
C1503  C     0.76058   0.96251   0.69059   0.00000  Uiso   1.00
C1504  C     0.74028   0.53768   0.97608   0.00000  Uiso   1.00
C1505  C     0.87043   0.66465   0.79487   0.00000  Uiso   1.00
C1506  C     0.62958   0.83572   0.87136   0.00000  Uiso   1.00
C1507  C     0.62320   0.84465   0.78934   0.00000  Uiso   1.00
C1508  C     0.94280   0.81322   0.83320   0.00000  Uiso   1.00
C1509  C     0.87537   0.65814   0.87675   0.00000  Uiso   1.00
C1510  C     0.59293   0.62635   0.87657   0.00000  Uiso   1.00
C1511  C     0.90430   0.87293   0.78978   0.00000  Uiso   1.00
C1512  C     0.90981   0.87911   0.87247   0.00000  Uiso   1.00
C1513  C     0.58834   0.61946   0.79456   0.00000  Uiso   1.00
C1514  C     0.65543   0.87723   0.79010   0.00000  Uiso   1.00
C1515  C     0.84649   0.62234   0.87649   0.00000  Uiso   1.00
C1516  C     0.84216   0.62808   0.79351   0.00000  Uiso   1.00
C1517  C     0.65899   0.87138   0.87270   0.00000  Uiso   1.00
C1518  C     0.88009   0.91467   0.87162   0.00000  Uiso   1.00
C1519  C     0.93533   0.69577   0.83376   0.00000  Uiso   1.00
C1520  C     0.61937   0.58496   0.79581   0.00000  Uiso   1.00
C1521  C     0.62716   0.59582   0.87747   0.00000  Uiso   1.00
C1522  C     0.87475   0.90832   0.78974   0.00000  Uiso   1.00
C1523  C     0.60619   0.82846   0.83105   0.00000  Uiso   1.00
C1524  C     0.89292   0.67316   0.83520   0.00000  Uiso   1.00
C1525  C     0.91756   0.85460   0.83207   0.00000  Uiso   1.00
C1526  C     0.57971   0.64390   0.83452   0.00000  Uiso   1.00
C1527  C     0.83369   0.60385   0.83414   0.00000  Uiso   1.00
C1528  C     0.66819   0.89527   0.83231   0.00000  Uiso   1.00
C1529  C     0.64413   0.57941   0.83573   0.00000  Uiso   1.00
C1530  C     0.56410   0.80531   0.83282   0.00000  Uiso   1.00
C1531  C     0.85701   0.92281   0.83144   0.00000  Uiso   1.00
C1532  C     0.87350   0.69656   0.75634   0.00000  Uiso   1.00
C1533  C     0.62644   0.80349   0.90972   0.00000  Uiso   1.00
C1534  C     0.60818   0.82883   0.74431   0.00000  Uiso   1.00
C1535  C     0.88528   0.68132   0.91996   0.00000  Uiso   1.00
C1536  C     0.56822   0.63529   0.91928   0.00000  Uiso   1.00
C1537  C     0.92327   0.85895   0.74538   0.00000  Uiso   1.00
C1538  C     0.93657   0.87203   0.91352   0.00000  Uiso   1.00
C1539  C     0.56177   0.62669   0.75359   0.00000  Uiso   1.00
C1540  C     0.67715   0.88915   0.74636   0.00000  Uiso   1.00
C1541  C     0.81455   0.94548   0.83293   0.00000  Uiso   1.00
C1542  C     0.82902   0.60656   0.92086   0.00000  Uiso   1.00
C1543  C     0.81968   0.61819   0.75043   0.00000  Uiso   1.00
C1544  C     0.68164   0.88162   0.91548   0.00000  Uiso   1.00
C1545  C     0.87708   0.94664   0.90998   0.00000  Uiso   1.00
C1546  C     0.62212   0.55167   0.75846   0.00000  Uiso   1.00
C1547  C     0.64352   0.58188   0.92263   0.00000  Uiso   1.00
C1548  C     0.86444   0.93160   0.74656   0.00000  Uiso   1.00
C1549  C     0.68626   0.55605   0.83385   0.00000  Uiso   1.00
C1550  C     0.69317   0.93663   0.83329   0.00000  Uiso   1.00
C1551  C     0.80780   0.56284   0.83334   0.00000  Uiso   1.00
C1552  C     0.51042   0.78741   0.69051   0.00000  Uiso   1.00
H1553  H     0.51802   0.81731   0.70876   0.00000  Uiso   1.00
H1554  H     0.62397   0.73937   0.92910   0.00000  Uiso   1.00
H1555  H     0.58472   0.84597   0.68288   0.00000  Uiso   1.00
H1556  H     0.89117   0.74014   0.95224   0.00000  Uiso   1.00
H1557  H     0.51917   0.61587   0.96165   0.00000  Uiso   1.00
H1558  H     0.96510   0.87381   0.69402   0.00000  Uiso   1.00
H1559  H     0.99171   0.88826   0.94733   0.00000  Uiso   1.00
H1560  H     0.55873   0.65163   0.69084   0.00000  Uiso   1.00
H1561  H     0.72120   0.87125   0.69788   0.00000  Uiso   1.00
H1562  H     0.83484   0.56326   0.97265   0.00000  Uiso   1.00
H1563  H     0.77146   0.63503   0.70711   0.00000  Uiso   1.00
H1564  H     0.97987   0.68308   0.95812   0.00000  Uiso   1.00
H1565  H     0.67987   0.91458   0.97456   0.00000  Uiso   1.00
H1566  H     0.87398   0.95706   0.97700   0.00000  Uiso   1.00
H1567  H     0.62397   0.53906   0.69148   0.00000  Uiso   1.00
H1568  H     0.66784   0.60158   0.98285   0.00000  Uiso   1.00
H1569  H     0.85825   0.99040   0.71413   0.00000  Uiso   1.00
H1570  H     0.97950   0.68297   0.70904   0.00000  Uiso   1.00
H1571  H     0.52020   0.81700   0.95763   0.00000  Uiso   1.00
H1572  H     0.73113   0.56751   0.70892   0.00000  Uiso   1.00
H1573  H     0.76925   0.93250   0.95782   0.00000  Uiso   1.00
H1574  H     0.76891   0.93260   0.70876   0.00000  Uiso   1.00
H1575  H     0.73331   0.56787   0.95785   0.00000  Uiso   1.00
H1576  H     0.87811   0.70687   0.68940   0.00000  Uiso   1.00
N1577  N     0.50000   0.75000   0.95240   0.00000  Uiso   1.00
N1578  N     0.50000   0.75000   0.71427   0.00000  Uiso   1.00
N1579  N     0.75000   0.50000   0.95240   0.00000  Uiso   1.00
N1580  N     0.75000   0.50000   0.71427   0.00000  Uiso   1.00
O1581  O     0.54580   0.70419   0.87154   0.00000  Uiso   1.00
O1582  O     0.70419   0.54581   0.79513   0.00000  Uiso   1.00
O1583  O     0.70419   0.54581   0.87154   0.00000  Uiso   1.00
O1584  O     0.79580   0.95419   0.79513   0.00000  Uiso   1.00
O1585  O     0.70419   0.95419   0.79513   0.00000  Uiso   1.00
O1586  O     0.79580   0.54581   0.87154   0.00000  Uiso   1.00
O1587  O     0.79580   0.54581   0.79513   0.00000  Uiso   1.00
O1588  O     0.70419   0.95419   0.87154   0.00000  Uiso   1.00
O1589  O     0.87277   0.73648   0.76393   0.00000  Uiso   1.00
O1590  O     0.87711   0.68141   0.71180   0.00000  Uiso   1.00
O1591  O     0.62532   0.81635   0.94897   0.00000  Uiso   1.00
O1592  O     0.95419   0.79581   0.79513   0.00000  Uiso   1.00
O1593  O     0.62540   0.75801   0.90049   0.00000  Uiso   1.00
O1594  O     0.61170   0.78963   0.73408   0.00000  Uiso   1.00
O1595  O     0.59182   0.85965   0.71320   0.00000  Uiso   1.00
O1596  O     0.89763   0.66020   0.95289   0.00000  Uiso   1.00
O1597  O     0.88144   0.72757   0.92214   0.00000  Uiso   1.00
O1598  O     0.58074   0.66433   0.94495   0.00000  Uiso   1.00
O1599  O     0.53171   0.60907   0.93044   0.00000  Uiso   1.00
O1600  O     0.90717   0.82779   0.72486   0.00000  Uiso   1.00
O1601  O     0.95745   0.88380   0.72593   0.00000  Uiso   1.00
O1602  O     0.92228   0.84917   0.94466   0.00000  Uiso   1.00
O1603  O     0.95419   0.79581   0.87154   0.00000  Uiso   1.00
O1604  O     0.97757   0.89283   0.91673   0.00000  Uiso   1.00
O1605  O     0.52304   0.61539   0.75335   0.00000  Uiso   1.00
O1606  O     0.58077   0.64756   0.71596   0.00000  Uiso   1.00
O1607  O     0.66356   0.92068   0.72436   0.00000  Uiso   1.00
O1608  O     0.71117   0.86226   0.72945   0.00000  Uiso   1.00
O1609  O     0.79690   0.62483   0.93804   0.00000  Uiso   1.00
O1610  O     0.85013   0.57162   0.94315   0.00000  Uiso   1.00
O1611  O     0.83526   0.59051   0.72450   0.00000  Uiso   1.00
O1612  O     0.78207   0.64234   0.73868   0.00000  Uiso   1.00
O1613  O     0.71890   0.86750   0.92192   0.00000  Uiso   1.00
O1614  O     0.54580   0.70419   0.79513   0.00000  Uiso   1.00
O1615  O     0.66032   0.90801   0.94788   0.00000  Uiso   1.00
O1616  O     0.87698   0.98652   0.90213   0.00000  Uiso   1.00
O1617  O     0.87478   0.93158   0.95466   0.00000  Uiso   1.00
O1618  O     0.62366   0.51209   0.76770   0.00000  Uiso   1.00
O1619  O     0.62238   0.56511   0.71316   0.00000  Uiso   1.00
O1620  O     0.64073   0.54307   0.93452   0.00000  Uiso   1.00
O1621  O     0.65996   0.61401   0.95211   0.00000  Uiso   1.00
O1622  O     0.85199   0.91052   0.71374   0.00000  Uiso   1.00
O1623  O     0.86811   0.97784   0.74425   0.00000  Uiso   1.00
O1624  O     0.95419   0.70419   0.79513   0.00000  Uiso   1.00
O1625  O     0.54580   0.79581   0.87154   0.00000  Uiso   1.00
O1626  O     0.54580   0.79581   0.79513   0.00000  Uiso   1.00
O1627  O     0.95419   0.70419   0.87154   0.00000  Uiso   1.00
O1628  O     0.79580   0.95419   0.87154   0.00000  Uiso   1.00
Zn1629 Zn    0.50000   0.75000   0.88437   0.00000  Uiso   1.00
Zn1630 Zn    0.50000   0.75000   0.78229   0.00000  Uiso   1.00
Zn1631 Zn    0.75000   0.50000   0.88437   0.00000  Uiso   1.00
Zn1632 Zn    0.75000   0.50000   0.78229   0.00000  Uiso   1.00
loop_
_geom_bond_atom_site_label_1
_geom_bond_atom_site_label_2
_geom_bond_distance
_geom_bond_site_symmetry_2
_ccdc_geom_bond_type
C1     O85     1.284   .     A
C1     C30     1.459   .     S
C1     O118    1.294   .     A
C2     H68     1.078   .     S
C2     C547    1.414   .     S
C2     N217    1.364   .     S
C3     H74     1.081   .     S
C3     C1090   1.414   1_554 S
C3     N218    1.366   .     S
C4     H75     1.079   .     S
C4     N81     1.365   .     A
C4     C600    1.414   .     S
C5     N84     1.365   .     A
C5     H76     1.080   .     S
C5     C1096   1.414   1_554 S
C6     H77     1.081   .     S
C6     C551    1.414   .     S
C6     N355    1.366   .     S
C7     H78     1.079   .     S
C7     C1094   1.414   1_554 S
C7     N356    1.364   .     S
C8     N83     1.363   .     A
C8     H79     1.078   .     S
C8     C549    1.414   .     S
C9     C36     1.490   .     S
C9     C20     1.398   .     A
C9     C28     1.402   .     A
C10    C27     1.409   .     A
C10    C37     1.492   .     S
C10    C21     1.398   .     A
C11    C18     1.387   .     A
C11    C38     1.488   .     S
C11    C27     1.415   .     A
C12    C29     1.461   .     S
C12    O107    1.296   .     A
C12    O96     1.283   .     A
C13    C28     1.405   .     A
C13    C19     1.391   .     A
C13    C39     1.488   .     S
C14    C30     1.409   .     A
C14    C25     1.385   .     A
C14    C40     1.482   .     S
C15    C26     1.390   .     A
C15    C29     1.425   .     A
C15    C41     1.485   .     S
C16    C22     1.398   .     A
C16    C29     1.420   .     A
C16    C42     1.480   .     S
C17    C30     1.412   .     A
C17    C24     1.400   .     A
C17    C43     1.475   .     S
C18    C32     1.417   .     A
C18    C44     1.485   .     S
C19    C31     1.426   .     A
C19    C46     1.484   .     S
C20    C47     1.480   .     S
C20    C31     1.423   .     A
C21    C48     1.476   .     S
C21    C32     1.416   .     A
C22    C35     1.404   .     A
C22    C49     1.489   .     S
C23    O131    1.284   .     A
C23    C28     1.456   .     S
C23    O128    1.294   .     A
C24    C50     1.492   .     S
C24    C33     1.413   .     A
C25    C51     1.486   .     S
C25    C33     1.418   .     A
C26    C52     1.489   .     S
C26    C35     1.406   .     A
C27    C34     1.455   .     S
C31    C55     1.465   .     S
C32    C54     1.460   .     S
C33    C53     1.457   .     S
C34    O129    1.295   .     A
C34    O130    1.281   .     A
C35    C45     1.455   .     S
C36    O93     1.224   .     D
C36    O94     1.394   .     S
C37    O97     1.398   .     S
C37    O95     1.221   .     D
C38    O98     1.223   .     D
C38    O99     1.398   .     S
C39    O101    1.399   .     S
C39    O100    1.222   .     D
C40    O102    1.221   .     D
C40    O103    1.397   .     S
C41    O105    1.397   .     S
C41    O104    1.223   .     D
C42    O106    1.223   .     D
C42    O108    1.397   .     S
C43    O110    1.394   .     S
C43    O109    1.223   .     D
C44    O112    1.397   .     S
C44    O111    1.223   .     D
C45    O88     1.284   .     A
C45    O132    1.293   .     A
C46    O114    1.397   .     S
C46    O113    1.222   .     D
C47    O115    1.222   .     D
C47    O116    1.397   .     S
C48    O119    1.396   .     S
C48    O117    1.222   .     D
C49    O120    1.223   .     D
C49    O121    1.394   .     S
C50    O122    1.223   .     D
C50    O123    1.395   .     S
C51    O124    1.223   .     D
C51    O125    1.398   .     S
C52    O127    1.399   .     S
C52    O126    1.222   .     D
C53    O86     1.296   .     A
C53    O87     1.280   .     A
C54    O89     1.284   .     A
C54    O92     1.294   .     A
C55    O90     1.286   .     A
C55    O91     1.295   .     A
C56    H57     1.077   .     S
C56    N82     1.362   .     A
C56    C1092   1.414   1_554 S
H58    O97     1.013   .     S
H59    O99     1.011   .     S
H60    O101    1.013   .     S
H61    O103    1.013   .     S
H62    O105    1.013   .     S
H63    O108    1.013   .     S
H64    O110    1.010   .     S
H65    O112    1.013   .     S
H66    O114    1.013   .     S
H67    O116    1.013   .     S
H69    O119    1.010   .     S
H70    O121    1.012   .     S
H71    O123    1.014   .     S
H72    O125    1.012   .     S
H73    O127    1.013   .     S
H80    O94     1.012   .     S
N81    Zn133   2.006   .     S
N81    C138    1.364   1_455 S
N82    C139    1.366   1_455 S
N82    Zn134   2.006   .     S
N83    Zn135   2.006   .     S
N83    C278    1.366   1_545 S
N84    Zn136   2.006   .     S
N84    C279    1.364   1_545 S
O85    Zn133   1.988   .     S
O86    Zn136   1.988   .     S
O87    Zn135   1.994   .     S
O88    Zn408   1.994   .     S
O89    Zn408   1.992   .     S
O90    Zn135   1.992   .     S
O91    Zn136   1.999   .     S
O92    Zn407   1.999   .     S
O96    Zn270   1.988   .     S
O107   Zn269   1.994   .     S
O118   Zn134   1.994   .     S
O128   Zn270   1.992   .     S
O129   Zn133   1.992   .     S
O130   Zn134   1.999   .     S
O131   Zn269   1.999   .     S
O132   Zn407   1.988   .     S
Zn133  O267    1.999   1_455 S
Zn133  O243    1.994   1_455 S
Zn134  O232    1.988   1_455 S
Zn134  O264    1.992   1_455 S
Zn135  O364    1.999   1_545 S
Zn135  O404    1.988   1_545 S
Zn136  O361    1.992   1_545 S
Zn136  O360    1.994   1_545 S
C137   O221    1.284   .     A
C137   C166    1.459   .     S
C137   O254    1.294   .     A
C138   H204    1.078   .     S
C138   C683    1.414   .     S
C138   N81     1.364   1_655 S
C139   H210    1.081   .     S
C139   C1226   1.414   1_554 S
C139   N82     1.366   1_655 S
C140   H211    1.079   .     S
C140   N217    1.365   .     A
C140   C736    1.414   .     S
C141   N220    1.365   .     A
C141   H212    1.080   .     S
C141   C1232   1.414   1_554 S
C142   H213    1.081   .     S
C142   C687    1.414   .     S
C142   N491    1.366   .     S
C143   H214    1.079   .     S
C143   C1230   1.414   1_554 S
C143   N492    1.364   .     S
C144   N219    1.363   .     A
C144   H215    1.078   .     S
C144   C685    1.414   .     S
C145   C172    1.490   .     S
C145   C156    1.398   .     A
C145   C164    1.402   .     A
C146   C163    1.409   .     A
C146   C173    1.492   .     S
C146   C157    1.398   .     A
C147   C154    1.387   .     A
C147   C174    1.488   .     S
C147   C163    1.415   .     A
C148   C165    1.461   .     S
C148   O243    1.296   .     A
C148   O232    1.283   .     A
C149   C164    1.405   .     A
C149   C155    1.391   .     A
C149   C175    1.488   .     S
C150   C166    1.409   .     A
C150   C161    1.385   .     A
C150   C176    1.482   .     S
C151   C162    1.390   .     A
C151   C165    1.425   .     A
C151   C177    1.485   .     S
C152   C158    1.398   .     A
C152   C165    1.420   .     A
C152   C178    1.480   .     S
C153   C166    1.412   .     A
C153   C160    1.400   .     A
C153   C179    1.475   .     S
C154   C168    1.417   .     A
C154   C180    1.485   .     S
C155   C167    1.426   .     A
C155   C182    1.484   .     S
C156   C183    1.480   .     S
C156   C167    1.423   .     A
C157   C184    1.476   .     S
C157   C168    1.416   .     A
C158   C171    1.404   .     A
C158   C185    1.489   .     S
C159   O267    1.284   .     A
C159   C164    1.456   .     S
C159   O264    1.294   .     A
C160   C186    1.492   .     S
C160   C169    1.413   .     A
C161   C187    1.486   .     S
C161   C169    1.418   .     A
C162   C188    1.489   .     S
C162   C171    1.406   .     A
C163   C170    1.455   .     S
C167   C191    1.465   .     S
C168   C190    1.460   .     S
C169   C189    1.457   .     S
C170   O265    1.295   .     A
C170   O266    1.281   .     A
C171   C181    1.455   .     S
C172   O229    1.224   .     D
C172   O230    1.394   .     S
C173   O233    1.398   .     S
C173   O231    1.221   .     D
C174   O234    1.223   .     D
C174   O235    1.398   .     S
C175   O237    1.399   .     S
C175   O236    1.222   .     D
C176   O238    1.221   .     D
C176   O239    1.397   .     S
C177   O241    1.397   .     S
C177   O240    1.223   .     D
C178   O242    1.223   .     D
C178   O244    1.397   .     S
C179   O246    1.394   .     S
C179   O245    1.223   .     D
C180   O248    1.397   .     S
C180   O247    1.223   .     D
C181   O224    1.284   .     A
C181   O268    1.293   .     A
C182   O250    1.397   .     S
C182   O249    1.222   .     D
C183   O251    1.222   .     D
C183   O252    1.397   .     S
C184   O255    1.396   .     S
C184   O253    1.222   .     D
C185   O256    1.223   .     D
C185   O257    1.394   .     S
C186   O258    1.223   .     D
C186   O259    1.395   .     S
C187   O260    1.223   .     D
C187   O261    1.398   .     S
C188   O263    1.399   .     S
C188   O262    1.222   .     D
C189   O222    1.296   .     A
C189   O223    1.280   .     A
C190   O225    1.284   .     A
C190   O228    1.294   .     A
C191   O226    1.286   .     A
C191   O227    1.295   .     A
C192   H193    1.077   .     S
C192   N218    1.362   .     A
C192   C1228   1.414   1_554 S
H194   O233    1.013   .     S
H195   O235    1.011   .     S
H196   O237    1.013   .     S
H197   O239    1.013   .     S
H198   O241    1.013   .     S
H199   O244    1.013   .     S
H200   O246    1.010   .     S
H201   O248    1.013   .     S
H202   O250    1.013   .     S
H203   O252    1.013   .     S
H205   O255    1.010   .     S
H206   O257    1.012   .     S
H207   O259    1.014   .     S
H208   O261    1.012   .     S
H209   O263    1.013   .     S
H216   O230    1.012   .     S
N217   Zn269   2.006   .     S
N218   Zn270   2.006   .     S
N219   Zn271   2.006   .     S
N219   C414    1.366   1_545 S
N220   Zn272   2.006   .     S
N220   C415    1.364   1_545 S
O221   Zn269   1.988   .     S
O222   Zn272   1.988   .     S
O223   Zn271   1.994   .     S
O224   Zn544   1.994   .     S
O225   Zn544   1.992   .     S
O226   Zn271   1.992   .     S
O227   Zn272   1.999   .     S
O228   Zn543   1.999   .     S
O232   Zn134   1.988   1_655 S
O243   Zn133   1.994   1_655 S
O254   Zn270   1.994   .     S
O264   Zn134   1.992   1_655 S
O265   Zn269   1.992   .     S
O266   Zn270   1.999   .     S
O267   Zn133   1.999   1_655 S
O268   Zn543   1.988   .     S
Zn271  O500    1.999   1_545 S
Zn271  O540    1.988   1_545 S
Zn272  O497    1.992   1_545 S
Zn272  O496    1.994   1_545 S
C273   O357    1.284   .     A
C273   C302    1.459   .     S
C273   O390    1.294   .     A
C274   H340    1.078   .     S
C274   C819    1.414   .     S
C274   N489    1.364   .     S
C275   H346    1.081   .     S
C275   C1362   1.414   1_554 S
C275   N490    1.366   .     S
C276   H347    1.079   .     S
C276   N353    1.365   .     A
C276   C872    1.414   .     S
C277   N356    1.365   .     A
C277   H348    1.080   .     S
C277   C1368   1.414   1_554 S
C278   H349    1.081   .     S
C278   C823    1.414   .     S
C278   N83     1.366   1_565 S
C279   H350    1.079   .     S
C279   C1366   1.414   1_554 S
C279   N84     1.364   1_565 S
C280   N355    1.363   .     A
C280   H351    1.078   .     S
C280   C821    1.414   .     S
C281   C308    1.490   .     S
C281   C292    1.398   .     A
C281   C300    1.402   .     A
C282   C299    1.409   .     A
C282   C309    1.492   .     S
C282   C293    1.398   .     A
C283   C290    1.387   .     A
C283   C310    1.488   .     S
C283   C299    1.415   .     A
C284   C301    1.461   .     S
C284   O379    1.296   .     A
C284   O368    1.283   .     A
C285   C300    1.405   .     A
C285   C291    1.391   .     A
C285   C311    1.488   .     S
C286   C302    1.409   .     A
C286   C297    1.385   .     A
C286   C312    1.482   .     S
C287   C298    1.390   .     A
C287   C301    1.425   .     A
C287   C313    1.485   .     S
C288   C294    1.398   .     A
C288   C301    1.420   .     A
C288   C314    1.480   .     S
C289   C302    1.412   .     A
C289   C296    1.400   .     A
C289   C315    1.475   .     S
C290   C304    1.417   .     A
C290   C316    1.485   .     S
C291   C303    1.426   .     A
C291   C318    1.484   .     S
C292   C319    1.480   .     S
C292   C303    1.423   .     A
C293   C320    1.476   .     S
C293   C304    1.416   .     A
C294   C307    1.404   .     A
C294   C321    1.489   .     S
C295   O403    1.284   .     A
C295   C300    1.456   .     S
C295   O400    1.294   .     A
C296   C322    1.492   .     S
C296   C305    1.413   .     A
C297   C323    1.486   .     S
C297   C305    1.418   .     A
C298   C324    1.489   .     S
C298   C307    1.406   .     A
C299   C306    1.455   .     S
C303   C327    1.465   .     S
C304   C326    1.460   .     S
C305   C325    1.457   .     S
C306   O401    1.295   .     A
C306   O402    1.281   .     A
C307   C317    1.455   .     S
C308   O365    1.224   .     D
C308   O366    1.394   .     S
C309   O369    1.398   .     S
C309   O367    1.221   .     D
C310   O370    1.223   .     D
C310   O371    1.398   .     S
C311   O373    1.399   .     S
C311   O372    1.222   .     D
C312   O374    1.221   .     D
C312   O375    1.397   .     S
C313   O377    1.397   .     S
C313   O376    1.223   .     D
C314   O378    1.223   .     D
C314   O380    1.397   .     S
C315   O382    1.394   .     S
C315   O381    1.223   .     D
C316   O384    1.397   .     S
C316   O383    1.223   .     D
C317   O360    1.284   .     A
C317   O404    1.293   .     A
C318   O386    1.397   .     S
C318   O385    1.222   .     D
C319   O387    1.222   .     D
C319   O388    1.397   .     S
C320   O391    1.396   .     S
C320   O389    1.222   .     D
C321   O392    1.223   .     D
C321   O393    1.394   .     S
C322   O394    1.223   .     D
C322   O395    1.395   .     S
C323   O396    1.223   .     D
C323   O397    1.398   .     S
C324   O399    1.399   .     S
C324   O398    1.222   .     D
C325   O358    1.296   .     A
C325   O359    1.280   .     A
C326   O361    1.284   .     A
C326   O364    1.294   .     A
C327   O362    1.286   .     A
C327   O363    1.295   .     A
C328   H329    1.077   .     S
C328   N354    1.362   .     A
C328   C1364   1.414   1_554 S
H330   O369    1.013   .     S
H331   O371    1.011   .     S
H332   O373    1.013   .     S
H333   O375    1.013   .     S
H334   O377    1.013   .     S
H335   O380    1.013   .     S
H336   O382    1.010   .     S
H337   O384    1.013   .     S
H338   O386    1.013   .     S
H339   O388    1.013   .     S
H341   O391    1.010   .     S
H342   O393    1.012   .     S
H343   O395    1.014   .     S
H344   O397    1.012   .     S
H345   O399    1.013   .     S
H352   O366    1.012   .     S
N353   Zn405   2.006   .     S
N353   C410    1.364   1_455 S
N354   C411    1.366   1_455 S
N354   Zn406   2.006   .     S
N355   Zn407   2.006   .     S
N356   Zn408   2.006   .     S
O357   Zn405   1.988   .     S
O358   Zn408   1.988   .     S
O359   Zn407   1.994   .     S
O360   Zn136   1.994   1_565 S
O361   Zn136   1.992   1_565 S
O362   Zn407   1.992   .     S
O363   Zn408   1.999   .     S
O364   Zn135   1.999   1_565 S
O368   Zn542   1.988   .     S
O379   Zn541   1.994   .     S
O390   Zn406   1.994   .     S
O400   Zn542   1.992   .     S
O401   Zn405   1.992   .     S
O402   Zn406   1.999   .     S
O403   Zn541   1.999   .     S
O404   Zn135   1.988   1_565 S
Zn405  O539    1.999   1_455 S
Zn405  O515    1.994   1_455 S
Zn406  O504    1.988   1_455 S
Zn406  O536    1.992   1_455 S
C409   O493    1.284   .     A
C409   C438    1.459   .     S
C409   O526    1.294   .     A
C410   H476    1.078   .     S
C410   C955    1.414   .     S
C410   N353    1.364   1_655 S
C411   H482    1.081   .     S
C411   C1498   1.414   1_554 S
C411   N354    1.366   1_655 S
C412   H483    1.079   .     S
C412   N489    1.365   .     A
C412   C1008   1.414   .     S
C413   N492    1.365   .     A
C413   H484    1.080   .     S
C413   C1504   1.414   1_554 S
C414   H485    1.081   .     S
C414   C959    1.414   .     S
C414   N219    1.366   1_565 S
C415   H486    1.079   .     S
C415   C1502   1.414   1_554 S
C415   N220    1.364   1_565 S
C416   N491    1.363   .     A
C416   H487    1.078   .     S
C416   C957    1.414   .     S
C417   C444    1.490   .     S
C417   C428    1.398   .     A
C417   C436    1.402   .     A
C418   C435    1.409   .     A
C418   C445    1.492   .     S
C418   C429    1.398   .     A
C419   C426    1.387   .     A
C419   C446    1.488   .     S
C419   C435    1.415   .     A
C420   C437    1.461   .     S
C420   O515    1.296   .     A
C420   O504    1.283   .     A
C421   C436    1.405   .     A
C421   C427    1.391   .     A
C421   C447    1.488   .     S
C422   C438    1.409   .     A
C422   C433    1.385   .     A
C422   C448    1.482   .     S
C423   C434    1.390   .     A
C423   C437    1.425   .     A
C423   C449    1.485   .     S
C424   C430    1.398   .     A
C424   C437    1.420   .     A
C424   C450    1.480   .     S
C425   C438    1.412   .     A
C425   C432    1.400   .     A
C425   C451    1.475   .     S
C426   C440    1.417   .     A
C426   C452    1.485   .     S
C427   C439    1.426   .     A
C427   C454    1.484   .     S
C428   C455    1.480   .     S
C428   C439    1.423   .     A
C429   C456    1.476   .     S
C429   C440    1.416   .     A
C430   C443    1.404   .     A
C430   C457    1.489   .     S
C431   O539    1.284   .     A
C431   C436    1.456   .     S
C431   O536    1.294   .     A
C432   C458    1.492   .     S
C432   C441    1.413   .     A
C433   C459    1.486   .     S
C433   C441    1.418   .     A
C434   C460    1.489   .     S
C434   C443    1.406   .     A
C435   C442    1.455   .     S
C439   C463    1.465   .     S
C440   C462    1.460   .     S
C441   C461    1.457   .     S
C442   O537    1.295   .     A
C442   O538    1.281   .     A
C443   C453    1.455   .     S
C444   O501    1.224   .     D
C444   O502    1.394   .     S
C445   O505    1.398   .     S
C445   O503    1.221   .     D
C446   O506    1.223   .     D
C446   O507    1.398   .     S
C447   O509    1.399   .     S
C447   O508    1.222   .     D
C448   O510    1.221   .     D
C448   O511    1.397   .     S
C449   O513    1.397   .     S
C449   O512    1.223   .     D
C450   O514    1.223   .     D
C450   O516    1.397   .     S
C451   O518    1.394   .     S
C451   O517    1.223   .     D
C452   O520    1.397   .     S
C452   O519    1.223   .     D
C453   O496    1.284   .     A
C453   O540    1.293   .     A
C454   O522    1.397   .     S
C454   O521    1.222   .     D
C455   O523    1.222   .     D
C455   O524    1.397   .     S
C456   O527    1.396   .     S
C456   O525    1.222   .     D
C457   O528    1.223   .     D
C457   O529    1.394   .     S
C458   O530    1.223   .     D
C458   O531    1.395   .     S
C459   O532    1.223   .     D
C459   O533    1.398   .     S
C460   O535    1.399   .     S
C460   O534    1.222   .     D
C461   O494    1.296   .     A
C461   O495    1.280   .     A
C462   O497    1.284   .     A
C462   O500    1.294   .     A
C463   O498    1.286   .     A
C463   O499    1.295   .     A
C464   H465    1.077   .     S
C464   N490    1.362   .     A
C464   C1500   1.414   1_554 S
H466   O505    1.013   .     S
H467   O507    1.011   .     S
H468   O509    1.013   .     S
H469   O511    1.013   .     S
H470   O513    1.013   .     S
H471   O516    1.013   .     S
H472   O518    1.010   .     S
H473   O520    1.013   .     S
H474   O522    1.013   .     S
H475   O524    1.013   .     S
H477   O527    1.010   .     S
H478   O529    1.012   .     S
H479   O531    1.014   .     S
H480   O533    1.012   .     S
H481   O535    1.013   .     S
H488   O502    1.012   .     S
N489   Zn541   2.006   .     S
N490   Zn542   2.006   .     S
N491   Zn543   2.006   .     S
N492   Zn544   2.006   .     S
O493   Zn541   1.988   .     S
O494   Zn544   1.988   .     S
O495   Zn543   1.994   .     S
O496   Zn272   1.994   1_565 S
O497   Zn272   1.992   1_565 S
O498   Zn543   1.992   .     S
O499   Zn544   1.999   .     S
O500   Zn271   1.999   1_565 S
O504   Zn406   1.988   1_655 S
O515   Zn405   1.994   1_655 S
O526   Zn542   1.994   .     S
O536   Zn406   1.992   1_655 S
O537   Zn541   1.992   .     S
O538   Zn542   1.999   .     S
O539   Zn405   1.999   1_655 S
O540   Zn271   1.988   1_565 S
C545   O629    1.284   .     A
C545   C574    1.459   .     S
C545   O662    1.294   .     A
C546   H612    1.078   .     S
C546   C1091   1.414   .     S
C546   N761    1.364   .     S
C547   H618    1.081   .     S
C547   N762    1.366   .     S
C548   H619    1.079   .     S
C548   N625    1.365   .     A
C548   C1144   1.414   .     S
C549   N628    1.365   .     A
C549   H620    1.080   .     S
C550   H621    1.081   .     S
C550   C1095   1.414   .     S
C550   N899    1.366   .     S
C551   H622    1.079   .     S
C551   N900    1.364   .     S
C552   N627    1.363   .     A
C552   H623    1.078   .     S
C552   C1093   1.414   .     S
C553   C580    1.490   .     S
C553   C564    1.398   .     A
C553   C572    1.402   .     A
C554   C571    1.409   .     A
C554   C581    1.492   .     S
C554   C565    1.398   .     A
C555   C562    1.387   .     A
C555   C582    1.488   .     S
C555   C571    1.415   .     A
C556   C573    1.461   .     S
C556   O651    1.296   .     A
C556   O640    1.283   .     A
C557   C572    1.405   .     A
C557   C563    1.391   .     A
C557   C583    1.488   .     S
C558   C574    1.409   .     A
C558   C569    1.385   .     A
C558   C584    1.482   .     S
C559   C570    1.390   .     A
C559   C573    1.425   .     A
C559   C585    1.485   .     S
C560   C566    1.398   .     A
C560   C573    1.420   .     A
C560   C586    1.480   .     S
C561   C574    1.412   .     A
C561   C568    1.400   .     A
C561   C587    1.475   .     S
C562   C576    1.417   .     A
C562   C588    1.485   .     S
C563   C575    1.426   .     A
C563   C590    1.484   .     S
C564   C591    1.480   .     S
C564   C575    1.423   .     A
C565   C592    1.476   .     S
C565   C576    1.416   .     A
C566   C579    1.404   .     A
C566   C593    1.489   .     S
C567   O675    1.284   .     A
C567   C572    1.456   .     S
C567   O672    1.294   .     A
C568   C594    1.492   .     S
C568   C577    1.413   .     A
C569   C595    1.486   .     S
C569   C577    1.418   .     A
C570   C596    1.489   .     S
C570   C579    1.406   .     A
C571   C578    1.455   .     S
C575   C599    1.465   .     S
C576   C598    1.460   .     S
C577   C597    1.457   .     S
C578   O673    1.295   .     A
C578   O674    1.281   .     A
C579   C589    1.455   .     S
C580   O637    1.224   .     D
C580   O638    1.394   .     S
C581   O641    1.398   .     S
C581   O639    1.221   .     D
C582   O642    1.223   .     D
C582   O643    1.398   .     S
C583   O645    1.399   .     S
C583   O644    1.222   .     D
C584   O646    1.221   .     D
C584   O647    1.397   .     S
C585   O649    1.397   .     S
C585   O648    1.223   .     D
C586   O650    1.223   .     D
C586   O652    1.397   .     S
C587   O654    1.394   .     S
C587   O653    1.223   .     D
C588   O656    1.397   .     S
C588   O655    1.223   .     D
C589   O632    1.284   .     A
C589   O676    1.293   .     A
C590   O658    1.397   .     S
C590   O657    1.222   .     D
C591   O659    1.222   .     D
C591   O660    1.397   .     S
C592   O663    1.396   .     S
C592   O661    1.222   .     D
C593   O664    1.223   .     D
C593   O665    1.394   .     S
C594   O666    1.223   .     D
C594   O667    1.395   .     S
C595   O668    1.223   .     D
C595   O669    1.398   .     S
C596   O671    1.399   .     S
C596   O670    1.222   .     D
C597   O630    1.296   .     A
C597   O631    1.280   .     A
C598   O633    1.284   .     A
C598   O636    1.294   .     A
C599   O634    1.286   .     A
C599   O635    1.295   .     A
C600   H601    1.077   .     S
C600   N626    1.362   .     A
H602   O641    1.013   .     S
H603   O643    1.011   .     S
H604   O645    1.013   .     S
H605   O647    1.013   .     S
H606   O649    1.013   .     S
H607   O652    1.013   .     S
H608   O654    1.010   .     S
H609   O656    1.013   .     S
H610   O658    1.013   .     S
H611   O660    1.013   .     S
H613   O663    1.010   .     S
H614   O665    1.012   .     S
H615   O667    1.014   .     S
H616   O669    1.012   .     S
H617   O671    1.013   .     S
H624   O638    1.012   .     S
N625   Zn677   2.006   .     S
N625   C682    1.364   1_455 S
N626   C683    1.366   1_455 S
N626   Zn678   2.006   .     S
N627   Zn679   2.006   .     S
N627   C822    1.366   1_545 S
N628   Zn680   2.006   .     S
N628   C823    1.364   1_545 S
O629   Zn677   1.988   .     S
O630   Zn680   1.988   .     S
O631   Zn679   1.994   .     S
O632   Zn952   1.994   .     S
O633   Zn952   1.992   .     S
O634   Zn679   1.992   .     S
O635   Zn680   1.999   .     S
O636   Zn951   1.999   .     S
O640   Zn814   1.988   .     S
O651   Zn813   1.994   .     S
O662   Zn678   1.994   .     S
O672   Zn814   1.992   .     S
O673   Zn677   1.992   .     S
O674   Zn678   1.999   .     S
O675   Zn813   1.999   .     S
O676   Zn951   1.988   .     S
Zn677  O811    1.999   1_455 S
Zn677  O787    1.994   1_455 S
Zn678  O776    1.988   1_455 S
Zn678  O808    1.992   1_455 S
Zn679  O908    1.999   1_545 S
Zn679  O948    1.988   1_545 S
Zn680  O905    1.992   1_545 S
Zn680  O904    1.994   1_545 S
C681   O765    1.284   .     A
C681   C710    1.459   .     S
C681   O798    1.294   .     A
C682   H748    1.078   .     S
C682   C1227   1.414   .     S
C682   N625    1.364   1_655 S
C683   H754    1.081   .     S
C683   N626    1.366   1_655 S
C684   H755    1.079   .     S
C684   N761    1.365   .     A
C684   C1280   1.414   .     S
C685   N764    1.365   .     A
C685   H756    1.080   .     S
C686   H757    1.081   .     S
C686   C1231   1.414   .     S
C686   N1035   1.366   .     S
C687   H758    1.079   .     S
C687   N1036   1.364   .     S
C688   N763    1.363   .     A
C688   H759    1.078   .     S
C688   C1229   1.414   .     S
C689   C716    1.490   .     S
C689   C700    1.398   .     A
C689   C708    1.402   .     A
C690   C707    1.409   .     A
C690   C717    1.492   .     S
C690   C701    1.398   .     A
C691   C698    1.387   .     A
C691   C718    1.488   .     S
C691   C707    1.415   .     A
C692   C709    1.461   .     S
C692   O787    1.296   .     A
C692   O776    1.283   .     A
C693   C708    1.405   .     A
C693   C699    1.391   .     A
C693   C719    1.488   .     S
C694   C710    1.409   .     A
C694   C705    1.385   .     A
C694   C720    1.482   .     S
C695   C706    1.390   .     A
C695   C709    1.425   .     A
C695   C721    1.485   .     S
C696   C702    1.398   .     A
C696   C709    1.420   .     A
C696   C722    1.480   .     S
C697   C710    1.412   .     A
C697   C704    1.400   .     A
C697   C723    1.475   .     S
C698   C712    1.417   .     A
C698   C724    1.485   .     S
C699   C711    1.426   .     A
C699   C726    1.484   .     S
C700   C727    1.480   .     S
C700   C711    1.423   .     A
C701   C728    1.476   .     S
C701   C712    1.416   .     A
C702   C715    1.404   .     A
C702   C729    1.489   .     S
C703   O811    1.284   .     A
C703   C708    1.456   .     S
C703   O808    1.294   .     A
C704   C730    1.492   .     S
C704   C713    1.413   .     A
C705   C731    1.486   .     S
C705   C713    1.418   .     A
C706   C732    1.489   .     S
C706   C715    1.406   .     A
C707   C714    1.455   .     S
C711   C735    1.465   .     S
C712   C734    1.460   .     S
C713   C733    1.457   .     S
C714   O809    1.295   .     A
C714   O810    1.281   .     A
C715   C725    1.455   .     S
C716   O773    1.224   .     D
C716   O774    1.394   .     S
C717   O777    1.398   .     S
C717   O775    1.221   .     D
C718   O778    1.223   .     D
C718   O779    1.398   .     S
C719   O781    1.399   .     S
C719   O780    1.222   .     D
C720   O782    1.221   .     D
C720   O783    1.397   .     S
C721   O785    1.397   .     S
C721   O784    1.223   .     D
C722   O786    1.223   .     D
C722   O788    1.397   .     S
C723   O790    1.394   .     S
C723   O789    1.223   .     D
C724   O792    1.397   .     S
C724   O791    1.223   .     D
C725   O768    1.284   .     A
C725   O812    1.293   .     A
C726   O794    1.397   .     S
C726   O793    1.222   .     D
C727   O795    1.222   .     D
C727   O796    1.397   .     S
C728   O799    1.396   .     S
C728   O797    1.222   .     D
C729   O800    1.223   .     D
C729   O801    1.394   .     S
C730   O802    1.223   .     D
C730   O803    1.395   .     S
C731   O804    1.223   .     D
C731   O805    1.398   .     S
C732   O807    1.399   .     S
C732   O806    1.222   .     D
C733   O766    1.296   .     A
C733   O767    1.280   .     A
C734   O769    1.284   .     A
C734   O772    1.294   .     A
C735   O770    1.286   .     A
C735   O771    1.295   .     A
C736   H737    1.077   .     S
C736   N762    1.362   .     A
H738   O777    1.013   .     S
H739   O779    1.011   .     S
H740   O781    1.013   .     S
H741   O783    1.013   .     S
H742   O785    1.013   .     S
H743   O788    1.013   .     S
H744   O790    1.010   .     S
H745   O792    1.013   .     S
H746   O794    1.013   .     S
H747   O796    1.013   .     S
H749   O799    1.010   .     S
H750   O801    1.012   .     S
H751   O803    1.014   .     S
H752   O805    1.012   .     S
H753   O807    1.013   .     S
H760   O774    1.012   .     S
N761   Zn813   2.006   .     S
N762   Zn814   2.006   .     S
N763   Zn815   2.006   .     S
N763   C958    1.366   1_545 S
N764   Zn816   2.006   .     S
N764   C959    1.364   1_545 S
O765   Zn813   1.988   .     S
O766   Zn816   1.988   .     S
O767   Zn815   1.994   .     S
O768   Zn1088  1.994   .     S
O769   Zn1088  1.992   .     S
O770   Zn815   1.992   .     S
O771   Zn816   1.999   .     S
O772   Zn1087  1.999   .     S
O776   Zn678   1.988   1_655 S
O787   Zn677   1.994   1_655 S
O798   Zn814   1.994   .     S
O808   Zn678   1.992   1_655 S
O809   Zn813   1.992   .     S
O810   Zn814   1.999   .     S
O811   Zn677   1.999   1_655 S
O812   Zn1087  1.988   .     S
Zn815  O1044   1.999   1_545 S
Zn815  O1084   1.988   1_545 S
Zn816  O1041   1.992   1_545 S
Zn816  O1040   1.994   1_545 S
C817   O901    1.284   .     A
C817   C846    1.459   .     S
C817   O934    1.294   .     A
C818   H884    1.078   .     S
C818   C1363   1.414   .     S
C818   N1033   1.364   .     S
C819   H890    1.081   .     S
C819   N1034   1.366   .     S
C820   H891    1.079   .     S
C820   N897    1.365   .     A
C820   C1416   1.414   .     S
C821   N900    1.365   .     A
C821   H892    1.080   .     S
C822   H893    1.081   .     S
C822   C1367   1.414   .     S
C822   N627    1.366   1_565 S
C823   H894    1.079   .     S
C823   N628    1.364   1_565 S
C824   N899    1.363   .     A
C824   H895    1.078   .     S
C824   C1365   1.414   .     S
C825   C852    1.490   .     S
C825   C836    1.398   .     A
C825   C844    1.402   .     A
C826   C843    1.409   .     A
C826   C853    1.492   .     S
C826   C837    1.398   .     A
C827   C834    1.387   .     A
C827   C854    1.488   .     S
C827   C843    1.415   .     A
C828   C845    1.461   .     S
C828   O923    1.296   .     A
C828   O912    1.283   .     A
C829   C844    1.405   .     A
C829   C835    1.391   .     A
C829   C855    1.488   .     S
C830   C846    1.409   .     A
C830   C841    1.385   .     A
C830   C856    1.482   .     S
C831   C842    1.390   .     A
C831   C845    1.425   .     A
C831   C857    1.485   .     S
C832   C838    1.398   .     A
C832   C845    1.420   .     A
C832   C858    1.480   .     S
C833   C846    1.412   .     A
C833   C840    1.400   .     A
C833   C859    1.475   .     S
C834   C848    1.417   .     A
C834   C860    1.485   .     S
C835   C847    1.426   .     A
C835   C862    1.484   .     S
C836   C863    1.480   .     S
C836   C847    1.423   .     A
C837   C864    1.476   .     S
C837   C848    1.416   .     A
C838   C851    1.404   .     A
C838   C865    1.489   .     S
C839   O947    1.284   .     A
C839   C844    1.456   .     S
C839   O944    1.294   .     A
C840   C866    1.492   .     S
C840   C849    1.413   .     A
C841   C867    1.486   .     S
C841   C849    1.418   .     A
C842   C868    1.489   .     S
C842   C851    1.406   .     A
C843   C850    1.455   .     S
C847   C871    1.465   .     S
C848   C870    1.460   .     S
C849   C869    1.457   .     S
C850   O945    1.295   .     A
C850   O946    1.281   .     A
C851   C861    1.455   .     S
C852   O909    1.224   .     D
C852   O910    1.394   .     S
C853   O913    1.398   .     S
C853   O911    1.221   .     D
C854   O914    1.223   .     D
C854   O915    1.398   .     S
C855   O917    1.399   .     S
C855   O916    1.222   .     D
C856   O918    1.221   .     D
C856   O919    1.397   .     S
C857   O921    1.397   .     S
C857   O920    1.223   .     D
C858   O922    1.223   .     D
C858   O924    1.397   .     S
C859   O926    1.394   .     S
C859   O925    1.223   .     D
C860   O928    1.397   .     S
C860   O927    1.223   .     D
C861   O904    1.284   .     A
C861   O948    1.293   .     A
C862   O930    1.397   .     S
C862   O929    1.222   .     D
C863   O931    1.222   .     D
C863   O932    1.397   .     S
C864   O935    1.396   .     S
C864   O933    1.222   .     D
C865   O936    1.223   .     D
C865   O937    1.394   .     S
C866   O938    1.223   .     D
C866   O939    1.395   .     S
C867   O940    1.223   .     D
C867   O941    1.398   .     S
C868   O943    1.399   .     S
C868   O942    1.222   .     D
C869   O902    1.296   .     A
C869   O903    1.280   .     A
C870   O905    1.284   .     A
C870   O908    1.294   .     A
C871   O906    1.286   .     A
C871   O907    1.295   .     A
C872   H873    1.077   .     S
C872   N898    1.362   .     A
H874   O913    1.013   .     S
H875   O915    1.011   .     S
H876   O917    1.013   .     S
H877   O919    1.013   .     S
H878   O921    1.013   .     S
H879   O924    1.013   .     S
H880   O926    1.010   .     S
H881   O928    1.013   .     S
H882   O930    1.013   .     S
H883   O932    1.013   .     S
H885   O935    1.010   .     S
H886   O937    1.012   .     S
H887   O939    1.014   .     S
H888   O941    1.012   .     S
H889   O943    1.013   .     S
H896   O910    1.012   .     S
N897   Zn949   2.006   .     S
N897   C954    1.364   1_455 S
N898   C955    1.366   1_455 S
N898   Zn950   2.006   .     S
N899   Zn951   2.006   .     S
N900   Zn952   2.006   .     S
O901   Zn949   1.988   .     S
O902   Zn952   1.988   .     S
O903   Zn951   1.994   .     S
O904   Zn680   1.994   1_565 S
O905   Zn680   1.992   1_565 S
O906   Zn951   1.992   .     S
O907   Zn952   1.999   .     S
O908   Zn679   1.999   1_565 S
O912   Zn1086  1.988   .     S
O923   Zn1085  1.994   .     S
O934   Zn950   1.994   .     S
O944   Zn1086  1.992   .     S
O945   Zn949   1.992   .     S
O946   Zn950   1.999   .     S
O947   Zn1085  1.999   .     S
O948   Zn679   1.988   1_565 S
Zn949  O1083   1.999   1_455 S
Zn949  O1059   1.994   1_455 S
Zn950  O1048   1.988   1_455 S
Zn950  O1080   1.992   1_455 S
C953   O1037   1.284   .     A
C953   C982    1.459   .     S
C953   O1070   1.294   .     A
C954   H1020   1.078   .     S
C954   C1499   1.414   .     S
C954   N897    1.364   1_655 S
C955   H1026   1.081   .     S
C955   N898    1.366   1_655 S
C956   H1027   1.079   .     S
C956   N1033   1.365   .     A
C956   C1552   1.414   .     S
C957   N1036   1.365   .     A
C957   H1028   1.080   .     S
C958   H1029   1.081   .     S
C958   C1503   1.414   .     S
C958   N763    1.366   1_565 S
C959   H1030   1.079   .     S
C959   N764    1.364   1_565 S
C960   N1035   1.363   .     A
C960   H1031   1.078   .     S
C960   C1501   1.414   .     S
C961   C988    1.490   .     S
C961   C972    1.398   .     A
C961   C980    1.402   .     A
C962   C979    1.409   .     A
C962   C989    1.492   .     S
C962   C973    1.398   .     A
C963   C970    1.387   .     A
C963   C990    1.488   .     S
C963   C979    1.415   .     A
C964   C981    1.461   .     S
C964   O1059   1.296   .     A
C964   O1048   1.283   .     A
C965   C980    1.405   .     A
C965   C971    1.391   .     A
C965   C991    1.488   .     S
C966   C982    1.409   .     A
C966   C977    1.385   .     A
C966   C992    1.482   .     S
C967   C978    1.390   .     A
C967   C981    1.425   .     A
C967   C993    1.485   .     S
C968   C974    1.398   .     A
C968   C981    1.420   .     A
C968   C994    1.480   .     S
C969   C982    1.412   .     A
C969   C976    1.400   .     A
C969   C995    1.475   .     S
C970   C984    1.417   .     A
C970   C996    1.485   .     S
C971   C983    1.426   .     A
C971   C998    1.484   .     S
C972   C999    1.480   .     S
C972   C983    1.423   .     A
C973   C1000   1.476   .     S
C973   C984    1.416   .     A
C974   C987    1.404   .     A
C974   C1001   1.489   .     S
C975   O1083   1.284   .     A
C975   C980    1.456   .     S
C975   O1080   1.294   .     A
C976   C1002   1.492   .     S
C976   C985    1.413   .     A
C977   C1003   1.486   .     S
C977   C985    1.418   .     A
C978   C1004   1.489   .     S
C978   C987    1.406   .     A
C979   C986    1.455   .     S
C983   C1007   1.465   .     S
C984   C1006   1.460   .     S
C985   C1005   1.457   .     S
C986   O1081   1.295   .     A
C986   O1082   1.281   .     A
C987   C997    1.455   .     S
C988   O1045   1.224   .     D
C988   O1046   1.394   .     S
C989   O1049   1.398   .     S
C989   O1047   1.221   .     D
C990   O1050   1.223   .     D
C990   O1051   1.398   .     S
C991   O1053   1.399   .     S
C991   O1052   1.222   .     D
C992   O1054   1.221   .     D
C992   O1055   1.397   .     S
C993   O1057   1.397   .     S
C993   O1056   1.223   .     D
C994   O1058   1.223   .     D
C994   O1060   1.397   .     S
C995   O1062   1.394   .     S
C995   O1061   1.223   .     D
C996   O1064   1.397   .     S
C996   O1063   1.223   .     D
C997   O1040   1.284   .     A
C997   O1084   1.293   .     A
C998   O1066   1.397   .     S
C998   O1065   1.222   .     D
C999   O1067   1.222   .     D
C999   O1068   1.397   .     S
C1000  O1071   1.396   .     S
C1000  O1069   1.222   .     D
C1001  O1072   1.223   .     D
C1001  O1073   1.394   .     S
C1002  O1074   1.223   .     D
C1002  O1075   1.395   .     S
C1003  O1076   1.223   .     D
C1003  O1077   1.398   .     S
C1004  O1079   1.399   .     S
C1004  O1078   1.222   .     D
C1005  O1038   1.296   .     A
C1005  O1039   1.280   .     A
C1006  O1041   1.284   .     A
C1006  O1044   1.294   .     A
C1007  O1042   1.286   .     A
C1007  O1043   1.295   .     A
C1008  H1009   1.077   .     S
C1008  N1034   1.362   .     A
H1010  O1049   1.013   .     S
H1011  O1051   1.011   .     S
H1012  O1053   1.013   .     S
H1013  O1055   1.013   .     S
H1014  O1057   1.013   .     S
H1015  O1060   1.013   .     S
H1016  O1062   1.010   .     S
H1017  O1064   1.013   .     S
H1018  O1066   1.013   .     S
H1019  O1068   1.013   .     S
H1021  O1071   1.010   .     S
H1022  O1073   1.012   .     S
H1023  O1075   1.014   .     S
H1024  O1077   1.012   .     S
H1025  O1079   1.013   .     S
H1032  O1046   1.012   .     S
N1033  Zn1085  2.006   .     S
N1034  Zn1086  2.006   .     S
N1035  Zn1087  2.006   .     S
N1036  Zn1088  2.006   .     S
O1037  Zn1085  1.988   .     S
O1038  Zn1088  1.988   .     S
O1039  Zn1087  1.994   .     S
O1040  Zn816   1.994   1_565 S
O1041  Zn816   1.992   1_565 S
O1042  Zn1087  1.992   .     S
O1043  Zn1088  1.999   .     S
O1044  Zn815   1.999   1_565 S
O1048  Zn950   1.988   1_655 S
O1059  Zn949   1.994   1_655 S
O1070  Zn1086  1.994   .     S
O1080  Zn950   1.992   1_655 S
O1081  Zn1085  1.992   .     S
O1082  Zn1086  1.999   .     S
O1083  Zn949   1.999   1_655 S
O1084  Zn815   1.988   1_565 S
C1089  O1173   1.284   .     A
C1089  C1118   1.459   .     S
C1089  O1206   1.294   .     A
C1090  H1156   1.078   .     S
C1090  C3      1.414   1_556 S
C1090  N1305   1.364   .     S
C1091  H1162   1.081   .     S
C1091  N1306   1.366   .     S
C1092  H1163   1.079   .     S
C1092  N1169   1.365   .     A
C1092  C56     1.414   1_556 S
C1093  N1172   1.365   .     A
C1093  H1164   1.080   .     S
C1094  H1165   1.081   .     S
C1094  C7      1.414   1_556 S
C1094  N1443   1.366   .     S
C1095  H1166   1.079   .     S
C1095  N1444   1.364   .     S
C1096  N1171   1.363   .     A
C1096  H1167   1.078   .     S
C1096  C5      1.414   1_556 S
C1097  C1124   1.490   .     S
C1097  C1108   1.398   .     A
C1097  C1116   1.402   .     A
C1098  C1115   1.409   .     A
C1098  C1125   1.492   .     S
C1098  C1109   1.398   .     A
C1099  C1106   1.387   .     A
C1099  C1126   1.488   .     S
C1099  C1115   1.415   .     A
C1100  C1117   1.461   .     S
C1100  O1195   1.296   .     A
C1100  O1184   1.283   .     A
C1101  C1116   1.405   .     A
C1101  C1107   1.391   .     A
C1101  C1127   1.488   .     S
C1102  C1118   1.409   .     A
C1102  C1113   1.385   .     A
C1102  C1128   1.482   .     S
C1103  C1114   1.390   .     A
C1103  C1117   1.425   .     A
C1103  C1129   1.485   .     S
C1104  C1110   1.398   .     A
C1104  C1117   1.420   .     A
C1104  C1130   1.480   .     S
C1105  C1118   1.412   .     A
C1105  C1112   1.400   .     A
C1105  C1131   1.475   .     S
C1106  C1120   1.417   .     A
C1106  C1132   1.485   .     S
C1107  C1119   1.426   .     A
C1107  C1134   1.484   .     S
C1108  C1135   1.480   .     S
C1108  C1119   1.423   .     A
C1109  C1136   1.476   .     S
C1109  C1120   1.416   .     A
C1110  C1123   1.404   .     A
C1110  C1137   1.489   .     S
C1111  O1219   1.284   .     A
C1111  C1116   1.456   .     S
C1111  O1216   1.294   .     A
C1112  C1138   1.492   .     S
C1112  C1121   1.413   .     A
C1113  C1139   1.486   .     S
C1113  C1121   1.418   .     A
C1114  C1140   1.489   .     S
C1114  C1123   1.406   .     A
C1115  C1122   1.455   .     S
C1119  C1143   1.465   .     S
C1120  C1142   1.460   .     S
C1121  C1141   1.457   .     S
C1122  O1217   1.295   .     A
C1122  O1218   1.281   .     A
C1123  C1133   1.455   .     S
C1124  O1181   1.224   .     D
C1124  O1182   1.394   .     S
C1125  O1185   1.398   .     S
C1125  O1183   1.221   .     D
C1126  O1186   1.223   .     D
C1126  O1187   1.398   .     S
C1127  O1189   1.399   .     S
C1127  O1188   1.222   .     D
C1128  O1190   1.221   .     D
C1128  O1191   1.397   .     S
C1129  O1193   1.397   .     S
C1129  O1192   1.223   .     D
C1130  O1194   1.223   .     D
C1130  O1196   1.397   .     S
C1131  O1198   1.394   .     S
C1131  O1197   1.223   .     D
C1132  O1200   1.397   .     S
C1132  O1199   1.223   .     D
C1133  O1176   1.284   .     A
C1133  O1220   1.293   .     A
C1134  O1202   1.397   .     S
C1134  O1201   1.222   .     D
C1135  O1203   1.222   .     D
C1135  O1204   1.397   .     S
C1136  O1207   1.396   .     S
C1136  O1205   1.222   .     D
C1137  O1208   1.223   .     D
C1137  O1209   1.394   .     S
C1138  O1210   1.223   .     D
C1138  O1211   1.395   .     S
C1139  O1212   1.223   .     D
C1139  O1213   1.398   .     S
C1140  O1215   1.399   .     S
C1140  O1214   1.222   .     D
C1141  O1174   1.296   .     A
C1141  O1175   1.280   .     A
C1142  O1177   1.284   .     A
C1142  O1180   1.294   .     A
C1143  O1178   1.286   .     A
C1143  O1179   1.295   .     A
C1144  H1145   1.077   .     S
C1144  N1170   1.362   .     A
H1146  O1185   1.013   .     S
H1147  O1187   1.011   .     S
H1148  O1189   1.013   .     S
H1149  O1191   1.013   .     S
H1150  O1193   1.013   .     S
H1151  O1196   1.013   .     S
H1152  O1198   1.010   .     S
H1153  O1200   1.013   .     S
H1154  O1202   1.013   .     S
H1155  O1204   1.013   .     S
H1157  O1207   1.010   .     S
H1158  O1209   1.012   .     S
H1159  O1211   1.014   .     S
H1160  O1213   1.012   .     S
H1161  O1215   1.013   .     S
H1168  O1182   1.012   .     S
N1169  Zn1221  2.006   .     S
N1169  C1226   1.364   1_455 S
N1170  C1227   1.366   1_455 S
N1170  Zn1222  2.006   .     S
N1171  Zn1223  2.006   .     S
N1171  C1366   1.366   1_545 S
N1172  Zn1224  2.006   .     S
N1172  C1367   1.364   1_545 S
O1173  Zn1221  1.988   .     S
O1174  Zn1224  1.988   .     S
O1175  Zn1223  1.994   .     S
O1176  Zn1496  1.994   .     S
O1177  Zn1496  1.992   .     S
O1178  Zn1223  1.992   .     S
O1179  Zn1224  1.999   .     S
O1180  Zn1495  1.999   .     S
O1184  Zn1358  1.988   .     S
O1195  Zn1357  1.994   .     S
O1206  Zn1222  1.994   .     S
O1216  Zn1358  1.992   .     S
O1217  Zn1221  1.992   .     S
O1218  Zn1222  1.999   .     S
O1219  Zn1357  1.999   .     S
O1220  Zn1495  1.988   .     S
Zn1221 O1355   1.999   1_455 S
Zn1221 O1331   1.994   1_455 S
Zn1222 O1320   1.988   1_455 S
Zn1222 O1352   1.992   1_455 S
Zn1223 O1452   1.999   1_545 S
Zn1223 O1492   1.988   1_545 S
Zn1224 O1449   1.992   1_545 S
Zn1224 O1448   1.994   1_545 S
C1225  O1309   1.284   .     A
C1225  C1254   1.459   .     S
C1225  O1342   1.294   .     A
C1226  H1292   1.078   .     S
C1226  C139    1.414   1_556 S
C1226  N1169   1.364   1_655 S
C1227  H1298   1.081   .     S
C1227  N1170   1.366   1_655 S
C1228  H1299   1.079   .     S
C1228  N1305   1.365   .     A
C1228  C192    1.414   1_556 S
C1229  N1308   1.365   .     A
C1229  H1300   1.080   .     S
C1230  H1301   1.081   .     S
C1230  C143    1.414   1_556 S
C1230  N1579   1.366   .     S
C1231  H1302   1.079   .     S
C1231  N1580   1.364   .     S
C1232  N1307   1.363   .     A
C1232  H1303   1.078   .     S
C1232  C141    1.414   1_556 S
C1233  C1260   1.490   .     S
C1233  C1244   1.398   .     A
C1233  C1252   1.402   .     A
C1234  C1251   1.409   .     A
C1234  C1261   1.492   .     S
C1234  C1245   1.398   .     A
C1235  C1242   1.387   .     A
C1235  C1262   1.488   .     S
C1235  C1251   1.415   .     A
C1236  C1253   1.461   .     S
C1236  O1331   1.296   .     A
C1236  O1320   1.283   .     A
C1237  C1252   1.405   .     A
C1237  C1243   1.391   .     A
C1237  C1263   1.488   .     S
C1238  C1254   1.409   .     A
C1238  C1249   1.385   .     A
C1238  C1264   1.482   .     S
C1239  C1250   1.390   .     A
C1239  C1253   1.425   .     A
C1239  C1265   1.485   .     S
C1240  C1246   1.398   .     A
C1240  C1253   1.420   .     A
C1240  C1266   1.480   .     S
C1241  C1254   1.412   .     A
C1241  C1248   1.400   .     A
C1241  C1267   1.475   .     S
C1242  C1256   1.417   .     A
C1242  C1268   1.485   .     S
C1243  C1255   1.426   .     A
C1243  C1270   1.484   .     S
C1244  C1271   1.480   .     S
C1244  C1255   1.423   .     A
C1245  C1272   1.476   .     S
C1245  C1256   1.416   .     A
C1246  C1259   1.404   .     A
C1246  C1273   1.489   .     S
C1247  O1355   1.284   .     A
C1247  C1252   1.456   .     S
C1247  O1352   1.294   .     A
C1248  C1274   1.492   .     S
C1248  C1257   1.413   .     A
C1249  C1275   1.486   .     S
C1249  C1257   1.418   .     A
C1250  C1276   1.489   .     S
C1250  C1259   1.406   .     A
C1251  C1258   1.455   .     S
C1255  C1279   1.465   .     S
C1256  C1278   1.460   .     S
C1257  C1277   1.457   .     S
C1258  O1353   1.295   .     A
C1258  O1354   1.281   .     A
C1259  C1269   1.455   .     S
C1260  O1317   1.224   .     D
C1260  O1318   1.394   .     S
C1261  O1321   1.398   .     S
C1261  O1319   1.221   .     D
C1262  O1322   1.223   .     D
C1262  O1323   1.398   .     S
C1263  O1325   1.399   .     S
C1263  O1324   1.222   .     D
C1264  O1326   1.221   .     D
C1264  O1327   1.397   .     S
C1265  O1329   1.397   .     S
C1265  O1328   1.223   .     D
C1266  O1330   1.223   .     D
C1266  O1332   1.397   .     S
C1267  O1334   1.394   .     S
C1267  O1333   1.223   .     D
C1268  O1336   1.397   .     S
C1268  O1335   1.223   .     D
C1269  O1312   1.284   .     A
C1269  O1356   1.293   .     A
C1270  O1338   1.397   .     S
C1270  O1337   1.222   .     D
C1271  O1339   1.222   .     D
C1271  O1340   1.397   .     S
C1272  O1343   1.396   .     S
C1272  O1341   1.222   .     D
C1273  O1344   1.223   .     D
C1273  O1345   1.394   .     S
C1274  O1346   1.223   .     D
C1274  O1347   1.395   .     S
C1275  O1348   1.223   .     D
C1275  O1349   1.398   .     S
C1276  O1351   1.399   .     S
C1276  O1350   1.222   .     D
C1277  O1310   1.296   .     A
C1277  O1311   1.280   .     A
C1278  O1313   1.284   .     A
C1278  O1316   1.294   .     A
C1279  O1314   1.286   .     A
C1279  O1315   1.295   .     A
C1280  H1281   1.077   .     S
C1280  N1306   1.362   .     A
H1282  O1321   1.013   .     S
H1283  O1323   1.011   .     S
H1284  O1325   1.013   .     S
H1285  O1327   1.013   .     S
H1286  O1329   1.013   .     S
H1287  O1332   1.013   .     S
H1288  O1334   1.010   .     S
H1289  O1336   1.013   .     S
H1290  O1338   1.013   .     S
H1291  O1340   1.013   .     S
H1293  O1343   1.010   .     S
H1294  O1345   1.012   .     S
H1295  O1347   1.014   .     S
H1296  O1349   1.012   .     S
H1297  O1351   1.013   .     S
H1304  O1318   1.012   .     S
N1305  Zn1357  2.006   .     S
N1306  Zn1358  2.006   .     S
N1307  Zn1359  2.006   .     S
N1307  C1502   1.366   1_545 S
N1308  Zn1360  2.006   .     S
N1308  C1503   1.364   1_545 S
O1309  Zn1357  1.988   .     S
O1310  Zn1360  1.988   .     S
O1311  Zn1359  1.994   .     S
O1312  Zn1632  1.994   .     S
O1313  Zn1632  1.992   .     S
O1314  Zn1359  1.992   .     S
O1315  Zn1360  1.999   .     S
O1316  Zn1631  1.999   .     S
O1320  Zn1222  1.988   1_655 S
O1331  Zn1221  1.994   1_655 S
O1342  Zn1358  1.994   .     S
O1352  Zn1222  1.992   1_655 S
O1353  Zn1357  1.992   .     S
O1354  Zn1358  1.999   .     S
O1355  Zn1221  1.999   1_655 S
O1356  Zn1631  1.988   .     S
Zn1359 O1588   1.999   1_545 S
Zn1359 O1628   1.988   1_545 S
Zn1360 O1585   1.992   1_545 S
Zn1360 O1584   1.994   1_545 S
C1361  O1445   1.284   .     A
C1361  C1390   1.459   .     S
C1361  O1478   1.294   .     A
C1362  H1428   1.078   .     S
C1362  C275    1.414   1_556 S
C1362  N1577   1.364   .     S
C1363  H1434   1.081   .     S
C1363  N1578   1.366   .     S
C1364  H1435   1.079   .     S
C1364  N1441   1.365   .     A
C1364  C328    1.414   1_556 S
C1365  N1444   1.365   .     A
C1365  H1436   1.080   .     S
C1366  H1437   1.081   .     S
C1366  C279    1.414   1_556 S
C1366  N1171   1.366   1_565 S
C1367  H1438   1.079   .     S
C1367  N1172   1.364   1_565 S
C1368  N1443   1.363   .     A
C1368  H1439   1.078   .     S
C1368  C277    1.414   1_556 S
C1369  C1396   1.490   .     S
C1369  C1380   1.398   .     A
C1369  C1388   1.402   .     A
C1370  C1387   1.409   .     A
C1370  C1397   1.492   .     S
C1370  C1381   1.398   .     A
C1371  C1378   1.387   .     A
C1371  C1398   1.488   .     S
C1371  C1387   1.415   .     A
C1372  C1389   1.461   .     S
C1372  O1467   1.296   .     A
C1372  O1456   1.283   .     A
C1373  C1388   1.405   .     A
C1373  C1379   1.391   .     A
C1373  C1399   1.488   .     S
C1374  C1390   1.409   .     A
C1374  C1385   1.385   .     A
C1374  C1400   1.482   .     S
C1375  C1386   1.390   .     A
C1375  C1389   1.425   .     A
C1375  C1401   1.485   .     S
C1376  C1382   1.398   .     A
C1376  C1389   1.420   .     A
C1376  C1402   1.480   .     S
C1377  C1390   1.412   .     A
C1377  C1384   1.400   .     A
C1377  C1403   1.475   .     S
C1378  C1392   1.417   .     A
C1378  C1404   1.485   .     S
C1379  C1391   1.426   .     A
C1379  C1406   1.484   .     S
C1380  C1407   1.480   .     S
C1380  C1391   1.423   .     A
C1381  C1408   1.476   .     S
C1381  C1392   1.416   .     A
C1382  C1395   1.404   .     A
C1382  C1409   1.489   .     S
C1383  O1491   1.284   .     A
C1383  C1388   1.456   .     S
C1383  O1488   1.294   .     A
C1384  C1410   1.492   .     S
C1384  C1393   1.413   .     A
C1385  C1411   1.486   .     S
C1385  C1393   1.418   .     A
C1386  C1412   1.489   .     S
C1386  C1395   1.406   .     A
C1387  C1394   1.455   .     S
C1391  C1415   1.465   .     S
C1392  C1414   1.460   .     S
C1393  C1413   1.457   .     S
C1394  O1489   1.295   .     A
C1394  O1490   1.281   .     A
C1395  C1405   1.455   .     S
C1396  O1453   1.224   .     D
C1396  O1454   1.394   .     S
C1397  O1457   1.398   .     S
C1397  O1455   1.221   .     D
C1398  O1458   1.223   .     D
C1398  O1459   1.398   .     S
C1399  O1461   1.399   .     S
C1399  O1460   1.222   .     D
C1400  O1462   1.221   .     D
C1400  O1463   1.397   .     S
C1401  O1465   1.397   .     S
C1401  O1464   1.223   .     D
C1402  O1466   1.223   .     D
C1402  O1468   1.397   .     S
C1403  O1470   1.394   .     S
C1403  O1469   1.223   .     D
C1404  O1472   1.397   .     S
C1404  O1471   1.223   .     D
C1405  O1448   1.284   .     A
C1405  O1492   1.293   .     A
C1406  O1474   1.397   .     S
C1406  O1473   1.222   .     D
C1407  O1475   1.222   .     D
C1407  O1476   1.397   .     S
C1408  O1479   1.396   .     S
C1408  O1477   1.222   .     D
C1409  O1480   1.223   .     D
C1409  O1481   1.394   .     S
C1410  O1482   1.223   .     D
C1410  O1483   1.395   .     S
C1411  O1484   1.223   .     D
C1411  O1485   1.398   .     S
C1412  O1487   1.399   .     S
C1412  O1486   1.222   .     D
C1413  O1446   1.296   .     A
C1413  O1447   1.280   .     A
C1414  O1449   1.284   .     A
C1414  O1452   1.294   .     A
C1415  O1450   1.286   .     A
C1415  O1451   1.295   .     A
C1416  H1417   1.077   .     S
C1416  N1442   1.362   .     A
H1418  O1457   1.013   .     S
H1419  O1459   1.011   .     S
H1420  O1461   1.013   .     S
H1421  O1463   1.013   .     S
H1422  O1465   1.013   .     S
H1423  O1468   1.013   .     S
H1424  O1470   1.010   .     S
H1425  O1472   1.013   .     S
H1426  O1474   1.013   .     S
H1427  O1476   1.013   .     S
H1429  O1479   1.010   .     S
H1430  O1481   1.012   .     S
H1431  O1483   1.014   .     S
H1432  O1485   1.012   .     S
H1433  O1487   1.013   .     S
H1440  O1454   1.012   .     S
N1441  Zn1493  2.006   .     S
N1441  C1498   1.364   1_455 S
N1442  C1499   1.366   1_455 S
N1442  Zn1494  2.006   .     S
N1443  Zn1495  2.006   .     S
N1444  Zn1496  2.006   .     S
O1445  Zn1493  1.988   .     S
O1446  Zn1496  1.988   .     S
O1447  Zn1495  1.994   .     S
O1448  Zn1224  1.994   1_565 S
O1449  Zn1224  1.992   1_565 S
O1450  Zn1495  1.992   .     S
O1451  Zn1496  1.999   .     S
O1452  Zn1223  1.999   1_565 S
O1456  Zn1630  1.988   .     S
O1467  Zn1629  1.994   .     S
O1478  Zn1494  1.994   .     S
O1488  Zn1630  1.992   .     S
O1489  Zn1493  1.992   .     S
O1490  Zn1494  1.999   .     S
O1491  Zn1629  1.999   .     S
O1492  Zn1223  1.988   1_565 S
Zn1493 O1627   1.999   1_455 S
Zn1493 O1603   1.994   1_455 S
Zn1494 O1592   1.988   1_455 S
Zn1494 O1624   1.992   1_455 S
C1497  O1581   1.284   .     A
C1497  C1526   1.459   .     S
C1497  O1614   1.294   .     A
C1498  H1564   1.078   .     S
C1498  C411    1.414   1_556 S
C1498  N1441   1.364   1_655 S
C1499  H1570   1.081   .     S
C1499  N1442   1.366   1_655 S
C1500  H1571   1.079   .     S
C1500  N1577   1.365   .     A
C1500  C464    1.414   1_556 S
C1501  N1580   1.365   .     A
C1501  H1572   1.080   .     S
C1502  H1573   1.081   .     S
C1502  C415    1.414   1_556 S
C1502  N1307   1.366   1_565 S
C1503  H1574   1.079   .     S
C1503  N1308   1.364   1_565 S
C1504  N1579   1.363   .     A
C1504  H1575   1.078   .     S
C1504  C413    1.414   1_556 S
C1505  C1532   1.490   .     S
C1505  C1516   1.398   .     A
C1505  C1524   1.402   .     A
C1506  C1523   1.409   .     A
C1506  C1533   1.492   .     S
C1506  C1517   1.398   .     A
C1507  C1514   1.387   .     A
C1507  C1534   1.488   .     S
C1507  C1523   1.415   .     A
C1508  C1525   1.461   .     S
C1508  O1603   1.296   .     A
C1508  O1592   1.283   .     A
C1509  C1524   1.405   .     A
C1509  C1515   1.391   .     A
C1509  C1535   1.488   .     S
C1510  C1526   1.409   .     A
C1510  C1521   1.385   .     A
C1510  C1536   1.482   .     S
C1511  C1522   1.390   .     A
C1511  C1525   1.425   .     A
C1511  C1537   1.485   .     S
C1512  C1518   1.398   .     A
C1512  C1525   1.420   .     A
C1512  C1538   1.480   .     S
C1513  C1526   1.412   .     A
C1513  C1520   1.400   .     A
C1513  C1539   1.475   .     S
C1514  C1528   1.417   .     A
C1514  C1540   1.485   .     S
C1515  C1527   1.426   .     A
C1515  C1542   1.484   .     S
C1516  C1543   1.480   .     S
C1516  C1527   1.423   .     A
C1517  C1544   1.476   .     S
C1517  C1528   1.416   .     A
C1518  C1531   1.404   .     A
C1518  C1545   1.489   .     S
C1519  O1627   1.284   .     A
C1519  C1524   1.456   .     S
C1519  O1624   1.294   .     A
C1520  C1546   1.492   .     S
C1520  C1529   1.413   .     A
C1521  C1547   1.486   .     S
C1521  C1529   1.418   .     A
C1522  C1548   1.489   .     S
C1522  C1531   1.406   .     A
C1523  C1530   1.455   .     S
C1527  C1551   1.465   .     S
C1528  C1550   1.460   .     S
C1529  C1549   1.457   .     S
C1530  O1625   1.295   .     A
C1530  O1626   1.281   .     A
C1531  C1541   1.455   .     S
C1532  O1589   1.224   .     D
C1532  O1590   1.394   .     S
C1533  O1593   1.398   .     S
C1533  O1591   1.221   .     D
C1534  O1594   1.223   .     D
C1534  O1595   1.398   .     S
C1535  O1597   1.399   .     S
C1535  O1596   1.222   .     D
C1536  O1598   1.221   .     D
C1536  O1599   1.397   .     S
C1537  O1601   1.397   .     S
C1537  O1600   1.223   .     D
C1538  O1602   1.223   .     D
C1538  O1604   1.397   .     S
C1539  O1606   1.394   .     S
C1539  O1605   1.223   .     D
C1540  O1608   1.397   .     S
C1540  O1607   1.223   .     D
C1541  O1584   1.284   .     A
C1541  O1628   1.293   .     A
C1542  O1610   1.397   .     S
C1542  O1609   1.222   .     D
C1543  O1611   1.222   .     D
C1543  O1612   1.397   .     S
C1544  O1615   1.396   .     S
C1544  O1613   1.222   .     D
C1545  O1616   1.223   .     D
C1545  O1617   1.394   .     S
C1546  O1618   1.223   .     D
C1546  O1619   1.395   .     S
C1547  O1620   1.223   .     D
C1547  O1621   1.398   .     S
C1548  O1623   1.399   .     S
C1548  O1622   1.222   .     D
C1549  O1582   1.296   .     A
C1549  O1583   1.280   .     A
C1550  O1585   1.284   .     A
C1550  O1588   1.294   .     A
C1551  O1586   1.286   .     A
C1551  O1587   1.295   .     A
C1552  H1553   1.077   .     S
C1552  N1578   1.362   .     A
H1554  O1593   1.013   .     S
H1555  O1595   1.011   .     S
H1556  O1597   1.013   .     S
H1557  O1599   1.013   .     S
H1558  O1601   1.013   .     S
H1559  O1604   1.013   .     S
H1560  O1606   1.010   .     S
H1561  O1608   1.013   .     S
H1562  O1610   1.013   .     S
H1563  O1612   1.013   .     S
H1565  O1615   1.010   .     S
H1566  O1617   1.012   .     S
H1567  O1619   1.014   .     S
H1568  O1621   1.012   .     S
H1569  O1623   1.013   .     S
H1576  O1590   1.012   .     S
N1577  Zn1629  2.006   .     S
N1578  Zn1630  2.006   .     S
N1579  Zn1631  2.006   .     S
N1580  Zn1632  2.006   .     S
O1581  Zn1629  1.988   .     S
O1582  Zn1632  1.988   .     S
O1583  Zn1631  1.994   .     S
O1584  Zn1360  1.994   1_565 S
O1585  Zn1360  1.992   1_565 S
O1586  Zn1631  1.992   .     S
O1587  Zn1632  1.999   .     S
O1588  Zn1359  1.999   1_565 S
O1592  Zn1494  1.988   1_655 S
O1603  Zn1493  1.994   1_655 S
O1614  Zn1630  1.994   .     S
O1624  Zn1494  1.992   1_655 S
O1625  Zn1629  1.992   .     S
O1626  Zn1630  1.999   .     S
O1627  Zn1493  1.999   1_655 S
O1628  Zn1359  1.988   1_565 S
