data_str_m3_o2_o10_pcu_sym.161
_audit_creation_date              2020-01-03
_audit_creation_method            'Materials Studio'
_symmetry_space_group_name_H-M    'P1'
_symmetry_Int_Tables_number       1
_symmetry_cell_setting            triclinic
loop_
_symmetry_equiv_pos_as_xyz
  x,y,z
_cell_length_a                    25.9186
_cell_length_b                    30.0088
_cell_length_c                    28.7733
_cell_angle_alpha                 90.7029
_cell_angle_beta                  98.8477
_cell_angle_gamma                 94.3527
loop_
_atom_site_label
_atom_site_type_symbol
_atom_site_fract_x
_atom_site_fract_y
_atom_site_fract_z
_atom_site_U_iso_or_equiv
_atom_site_adp_type
_atom_site_occupancy
C1     C     0.16671   0.16410   0.24978   0.00000  Uiso   1.00
C2     C     0.16620   0.33595   0.25012   0.00000  Uiso   1.00
C3     C     0.12306   0.23053   0.04614   0.00000  Uiso   1.00
C4     C     0.21025   0.26978   0.45388   0.00000  Uiso   1.00
C5     C     0.12667   0.22591   0.09581   0.00000  Uiso   1.00
C6     C     0.20685   0.27396   0.40414   0.00000  Uiso   1.00
C7     C     0.20027   0.27916   0.10721   0.00000  Uiso   1.00
C8     C     0.13244   0.22156   0.39292   0.00000  Uiso   1.00
C9     C     0.19820   0.28159   0.05826   0.00000  Uiso   1.00
C10    C     0.13459   0.21924   0.44187   0.00000  Uiso   1.00
C11    C     0.16456   0.25207   0.02655   0.00000  Uiso   1.00
C12    C     0.16863   0.24848   0.47354   0.00000  Uiso   1.00
C13    C     0.06715   0.24989   0.23760   0.00000  Uiso   1.00
C14    C     0.26619   0.25014   0.26239   0.00000  Uiso   1.00
C15    C     0.01199   0.24957   0.23108   0.00000  Uiso   1.00
C16    C     0.32135   0.25059   0.26891   0.00000  Uiso   1.00
C17    C     0.14303   0.04623   0.28325   0.00000  Uiso   1.00
C18    C     0.15174   0.45130   0.20705   0.00000  Uiso   1.00
C19    C     0.14400   0.09222   0.28366   0.00000  Uiso   1.00
C20    C     0.15217   0.40536   0.20740   0.00000  Uiso   1.00
C21    C     0.16601   0.11619   0.24921   0.00000  Uiso   1.00
C22    C     0.16518   0.38391   0.25011   0.00000  Uiso   1.00
C23    C     0.18725   0.09417   0.21435   0.00000  Uiso   1.00
C24    C     0.17744   0.40856   0.29247   0.00000  Uiso   1.00
C25    C     0.18714   0.04812   0.21442   0.00000  Uiso   1.00
C26    C     0.17790   0.45458   0.29199   0.00000  Uiso   1.00
C27    C     0.16499   0.02413   0.24889   0.00000  Uiso   1.00
C28    C     0.16497   0.47597   0.24929   0.00000  Uiso   1.00
H29    H     0.32453   0.24831   0.19522   0.00000  Uiso   1.00
H30    H     0.00879   0.25192   0.30476   0.00000  Uiso   1.00
H31    H     0.12493   0.02794   0.30954   0.00000  Uiso   1.00
H32    H     0.14073   0.46750   0.17395   0.00000  Uiso   1.00
H33    H     0.12703   0.10890   0.31050   0.00000  Uiso   1.00
H34    H     0.14191   0.38670   0.17438   0.00000  Uiso   1.00
H35    H     0.20470   0.11256   0.18774   0.00000  Uiso   1.00
H36    H     0.18729   0.39251   0.32580   0.00000  Uiso   1.00
H37    H     0.20487   0.03131   0.18806   0.00000  Uiso   1.00
H38    H     0.18877   0.47345   0.32483   0.00000  Uiso   1.00
H39    H     0.22103   0.30903   0.04576   0.00000  Uiso   1.00
H40    H     0.11124   0.19215   0.45438   0.00000  Uiso   1.00
N41    N     0.16667   0.24999   0.12624   0.00000  Uiso   1.00
N42    N     0.16667   0.25001   0.37377   0.00000  Uiso   1.00
O43    O     0.16667   0.18454   0.28974   0.00000  Uiso   1.00
O44    O     0.16666   0.31546   0.21026   0.00000  Uiso   1.00
O45    O     0.16667   0.18453   0.21026   0.00000  Uiso   1.00
O46    O     0.16666   0.31547   0.28974   0.00000  Uiso   1.00
O47    O     0.09058   0.25000   0.28045   0.00000  Uiso   1.00
O48    O     0.24275   0.25000   0.21956   0.00000  Uiso   1.00
O49    O     0.09058   0.24999   0.20097   0.00000  Uiso   1.00
O50    O     0.24275   0.25001   0.29904   0.00000  Uiso   1.00
Zn51   Zn    0.16667   0.25001   0.30307   0.00000  Uiso   1.00
Zn52   Zn    0.16667   0.25000   0.19693   0.00000  Uiso   1.00
Br53   Br    0.05417   0.22494   0.00842   0.00000  Uiso   1.00
Br54   Br    0.27885   0.27667   0.49206   0.00000  Uiso   1.00
S55    S     0.07244   0.19286   0.11403   0.00000  Uiso   1.00
O56    O     0.02787   0.22235   0.11273   0.00000  Uiso   1.00
O57    O     0.05591   0.15518   0.07865   0.00000  Uiso   1.00
O58    O     0.08058   0.16854   0.16626   0.00000  Uiso   1.00
H59    H     0.04523   0.15579   0.17041   0.00000  Uiso   1.00
S60    S     0.26122   0.30678   0.38584   0.00000  Uiso   1.00
O61    O     0.27699   0.34517   0.42049   0.00000  Uiso   1.00
O62    O     0.30608   0.27746   0.38842   0.00000  Uiso   1.00
O63    O     0.25383   0.33000   0.33304   0.00000  Uiso   1.00
H64    H     0.28901   0.34367   0.32961   0.00000  Uiso   1.00
Br65   Br    0.24961   0.32007   0.14561   0.00000  Uiso   1.00
Br66   Br    0.08137   0.18200   0.35477   0.00000  Uiso   1.00
C67    C     0.50004   0.16410   0.24978   0.00000  Uiso   1.00
C68    C     0.49953   0.33595   0.25012   0.00000  Uiso   1.00
C69    C     0.45639   0.23053   0.04614   0.00000  Uiso   1.00
C70    C     0.54358   0.26978   0.45388   0.00000  Uiso   1.00
C71    C     0.46000   0.22591   0.09581   0.00000  Uiso   1.00
C72    C     0.54019   0.27396   0.40414   0.00000  Uiso   1.00
C73    C     0.53361   0.27916   0.10721   0.00000  Uiso   1.00
C74    C     0.46578   0.22156   0.39292   0.00000  Uiso   1.00
C75    C     0.53153   0.28159   0.05826   0.00000  Uiso   1.00
C76    C     0.46792   0.21924   0.44187   0.00000  Uiso   1.00
C77    C     0.49789   0.25207   0.02655   0.00000  Uiso   1.00
C78    C     0.50196   0.24848   0.47354   0.00000  Uiso   1.00
C79    C     0.40048   0.24989   0.23760   0.00000  Uiso   1.00
C80    C     0.59952   0.25014   0.26239   0.00000  Uiso   1.00
C81    C     0.34532   0.24957   0.23108   0.00000  Uiso   1.00
C82    C     0.65468   0.25059   0.26891   0.00000  Uiso   1.00
C83    C     0.47636   0.04623   0.28325   0.00000  Uiso   1.00
C84    C     0.48507   0.45130   0.20705   0.00000  Uiso   1.00
C85    C     0.47734   0.09222   0.28366   0.00000  Uiso   1.00
C86    C     0.48550   0.40536   0.20740   0.00000  Uiso   1.00
C87    C     0.49934   0.11619   0.24921   0.00000  Uiso   1.00
C88    C     0.49852   0.38391   0.25011   0.00000  Uiso   1.00
C89    C     0.52058   0.09417   0.21435   0.00000  Uiso   1.00
C90    C     0.51078   0.40856   0.29247   0.00000  Uiso   1.00
C91    C     0.52048   0.04812   0.21442   0.00000  Uiso   1.00
C92    C     0.51123   0.45458   0.29199   0.00000  Uiso   1.00
C93    C     0.49832   0.02413   0.24889   0.00000  Uiso   1.00
C94    C     0.49830   0.47597   0.24929   0.00000  Uiso   1.00
H95    H     0.65787   0.24831   0.19522   0.00000  Uiso   1.00
H96    H     0.34212   0.25192   0.30476   0.00000  Uiso   1.00
H97    H     0.45826   0.02794   0.30954   0.00000  Uiso   1.00
H98    H     0.47406   0.46750   0.17395   0.00000  Uiso   1.00
H99    H     0.46036   0.10890   0.31050   0.00000  Uiso   1.00
H100   H     0.47524   0.38670   0.17438   0.00000  Uiso   1.00
H101   H     0.53803   0.11256   0.18774   0.00000  Uiso   1.00
H102   H     0.52063   0.39251   0.32580   0.00000  Uiso   1.00
H103   H     0.53820   0.03131   0.18806   0.00000  Uiso   1.00
H104   H     0.52211   0.47345   0.32483   0.00000  Uiso   1.00
H105   H     0.55436   0.30903   0.04576   0.00000  Uiso   1.00
H106   H     0.44458   0.19215   0.45438   0.00000  Uiso   1.00
N107   N     0.50000   0.24999   0.12624   0.00000  Uiso   1.00
N108   N     0.50000   0.25001   0.37377   0.00000  Uiso   1.00
O109   O     0.50000   0.18454   0.28974   0.00000  Uiso   1.00
O110   O     0.50000   0.31546   0.21026   0.00000  Uiso   1.00
O111   O     0.50000   0.18453   0.21026   0.00000  Uiso   1.00
O112   O     0.50000   0.31547   0.28974   0.00000  Uiso   1.00
O113   O     0.42392   0.25000   0.28045   0.00000  Uiso   1.00
O114   O     0.57608   0.25000   0.21956   0.00000  Uiso   1.00
O115   O     0.42392   0.24999   0.20097   0.00000  Uiso   1.00
O116   O     0.57608   0.25001   0.29904   0.00000  Uiso   1.00
Zn117  Zn    0.50000   0.25001   0.30307   0.00000  Uiso   1.00
Zn118  Zn    0.50000   0.25000   0.19693   0.00000  Uiso   1.00
Br119  Br    0.38750   0.22494   0.00842   0.00000  Uiso   1.00
Br120  Br    0.61219   0.27667   0.49206   0.00000  Uiso   1.00
S121   S     0.40578   0.19286   0.11403   0.00000  Uiso   1.00
O122   O     0.36120   0.22235   0.11273   0.00000  Uiso   1.00
O123   O     0.38924   0.15518   0.07865   0.00000  Uiso   1.00
O124   O     0.41391   0.16854   0.16626   0.00000  Uiso   1.00
H125   H     0.37857   0.15579   0.17041   0.00000  Uiso   1.00
S126   S     0.59456   0.30678   0.38584   0.00000  Uiso   1.00
O127   O     0.61033   0.34517   0.42049   0.00000  Uiso   1.00
O128   O     0.63941   0.27746   0.38842   0.00000  Uiso   1.00
O129   O     0.58716   0.33000   0.33304   0.00000  Uiso   1.00
H130   H     0.62235   0.34367   0.32961   0.00000  Uiso   1.00
Br131  Br    0.58294   0.32007   0.14561   0.00000  Uiso   1.00
Br132  Br    0.41470   0.18200   0.35477   0.00000  Uiso   1.00
C133   C     0.83338   0.16410   0.24978   0.00000  Uiso   1.00
C134   C     0.83286   0.33595   0.25012   0.00000  Uiso   1.00
C135   C     0.78972   0.23053   0.04614   0.00000  Uiso   1.00
C136   C     0.87692   0.26978   0.45388   0.00000  Uiso   1.00
C137   C     0.79334   0.22591   0.09581   0.00000  Uiso   1.00
C138   C     0.87352   0.27396   0.40414   0.00000  Uiso   1.00
C139   C     0.86694   0.27916   0.10721   0.00000  Uiso   1.00
C140   C     0.79911   0.22156   0.39292   0.00000  Uiso   1.00
C141   C     0.86487   0.28159   0.05826   0.00000  Uiso   1.00
C142   C     0.80125   0.21924   0.44187   0.00000  Uiso   1.00
C143   C     0.83123   0.25207   0.02655   0.00000  Uiso   1.00
C144   C     0.83529   0.24848   0.47354   0.00000  Uiso   1.00
C145   C     0.73381   0.24989   0.23760   0.00000  Uiso   1.00
C146   C     0.93285   0.25014   0.26239   0.00000  Uiso   1.00
C147   C     0.67865   0.24957   0.23108   0.00000  Uiso   1.00
C148   C     0.98802   0.25059   0.26891   0.00000  Uiso   1.00
C149   C     0.80969   0.04623   0.28325   0.00000  Uiso   1.00
C150   C     0.81840   0.45130   0.20705   0.00000  Uiso   1.00
C151   C     0.81067   0.09222   0.28366   0.00000  Uiso   1.00
C152   C     0.81884   0.40536   0.20740   0.00000  Uiso   1.00
C153   C     0.83267   0.11619   0.24921   0.00000  Uiso   1.00
C154   C     0.83185   0.38391   0.25011   0.00000  Uiso   1.00
C155   C     0.85391   0.09417   0.21435   0.00000  Uiso   1.00
C156   C     0.84411   0.40856   0.29247   0.00000  Uiso   1.00
C157   C     0.85381   0.04812   0.21442   0.00000  Uiso   1.00
C158   C     0.84457   0.45458   0.29199   0.00000  Uiso   1.00
C159   C     0.83165   0.02413   0.24889   0.00000  Uiso   1.00
C160   C     0.83163   0.47597   0.24929   0.00000  Uiso   1.00
H161   H     0.99120   0.24831   0.19522   0.00000  Uiso   1.00
H162   H     0.67546   0.25192   0.30476   0.00000  Uiso   1.00
H163   H     0.79160   0.02794   0.30954   0.00000  Uiso   1.00
H164   H     0.80739   0.46750   0.17395   0.00000  Uiso   1.00
H165   H     0.79369   0.10890   0.31050   0.00000  Uiso   1.00
H166   H     0.80858   0.38670   0.17438   0.00000  Uiso   1.00
H167   H     0.87137   0.11256   0.18774   0.00000  Uiso   1.00
H168   H     0.85396   0.39251   0.32580   0.00000  Uiso   1.00
H169   H     0.87154   0.03131   0.18806   0.00000  Uiso   1.00
H170   H     0.85544   0.47345   0.32483   0.00000  Uiso   1.00
H171   H     0.88770   0.30903   0.04576   0.00000  Uiso   1.00
H172   H     0.77791   0.19215   0.45438   0.00000  Uiso   1.00
N173   N     0.83333   0.24999   0.12624   0.00000  Uiso   1.00
N174   N     0.83333   0.25001   0.37377   0.00000  Uiso   1.00
O175   O     0.83334   0.18454   0.28974   0.00000  Uiso   1.00
O176   O     0.83333   0.31546   0.21026   0.00000  Uiso   1.00
O177   O     0.83334   0.18453   0.21026   0.00000  Uiso   1.00
O178   O     0.83333   0.31547   0.28974   0.00000  Uiso   1.00
O179   O     0.75725   0.25000   0.28045   0.00000  Uiso   1.00
O180   O     0.90942   0.25000   0.21956   0.00000  Uiso   1.00
O181   O     0.75725   0.24999   0.20097   0.00000  Uiso   1.00
O182   O     0.90942   0.25001   0.29904   0.00000  Uiso   1.00
Zn183  Zn    0.83333   0.25001   0.30307   0.00000  Uiso   1.00
Zn184  Zn    0.83333   0.25000   0.19693   0.00000  Uiso   1.00
Br185  Br    0.72084   0.22494   0.00842   0.00000  Uiso   1.00
Br186  Br    0.94552   0.27667   0.49206   0.00000  Uiso   1.00
S187   S     0.73911   0.19286   0.11403   0.00000  Uiso   1.00
O188   O     0.69454   0.22235   0.11273   0.00000  Uiso   1.00
O189   O     0.72257   0.15518   0.07865   0.00000  Uiso   1.00
O190   O     0.74725   0.16854   0.16626   0.00000  Uiso   1.00
H191   H     0.71190   0.15579   0.17041   0.00000  Uiso   1.00
S192   S     0.92789   0.30678   0.38584   0.00000  Uiso   1.00
O193   O     0.94366   0.34517   0.42049   0.00000  Uiso   1.00
O194   O     0.97275   0.27746   0.38842   0.00000  Uiso   1.00
O195   O     0.92049   0.33000   0.33304   0.00000  Uiso   1.00
H196   H     0.95568   0.34367   0.32961   0.00000  Uiso   1.00
Br197  Br    0.91627   0.32007   0.14561   0.00000  Uiso   1.00
Br198  Br    0.74803   0.18200   0.35477   0.00000  Uiso   1.00
C199   C     0.16671   0.66410   0.24978   0.00000  Uiso   1.00
C200   C     0.16620   0.83595   0.25012   0.00000  Uiso   1.00
C201   C     0.12306   0.73053   0.04614   0.00000  Uiso   1.00
C202   C     0.21025   0.76978   0.45388   0.00000  Uiso   1.00
C203   C     0.12667   0.72591   0.09581   0.00000  Uiso   1.00
C204   C     0.20685   0.77396   0.40414   0.00000  Uiso   1.00
C205   C     0.20027   0.77916   0.10721   0.00000  Uiso   1.00
C206   C     0.13244   0.72156   0.39292   0.00000  Uiso   1.00
C207   C     0.19820   0.78159   0.05826   0.00000  Uiso   1.00
C208   C     0.13459   0.71924   0.44187   0.00000  Uiso   1.00
C209   C     0.16456   0.75207   0.02655   0.00000  Uiso   1.00
C210   C     0.16863   0.74848   0.47354   0.00000  Uiso   1.00
C211   C     0.06715   0.74989   0.23760   0.00000  Uiso   1.00
C212   C     0.26619   0.75014   0.26239   0.00000  Uiso   1.00
C213   C     0.01199   0.74957   0.23108   0.00000  Uiso   1.00
C214   C     0.32135   0.75059   0.26891   0.00000  Uiso   1.00
C215   C     0.14303   0.54623   0.28325   0.00000  Uiso   1.00
C216   C     0.15174   0.95130   0.20705   0.00000  Uiso   1.00
C217   C     0.14400   0.59222   0.28366   0.00000  Uiso   1.00
C218   C     0.15217   0.90536   0.20740   0.00000  Uiso   1.00
C219   C     0.16601   0.61619   0.24921   0.00000  Uiso   1.00
C220   C     0.16518   0.88391   0.25011   0.00000  Uiso   1.00
C221   C     0.18725   0.59417   0.21435   0.00000  Uiso   1.00
C222   C     0.17744   0.90856   0.29247   0.00000  Uiso   1.00
C223   C     0.18714   0.54812   0.21442   0.00000  Uiso   1.00
C224   C     0.17790   0.95458   0.29199   0.00000  Uiso   1.00
C225   C     0.16499   0.52413   0.24889   0.00000  Uiso   1.00
C226   C     0.16497   0.97597   0.24929   0.00000  Uiso   1.00
H227   H     0.32453   0.74831   0.19522   0.00000  Uiso   1.00
H228   H     0.00879   0.75192   0.30476   0.00000  Uiso   1.00
H229   H     0.12493   0.52794   0.30954   0.00000  Uiso   1.00
H230   H     0.14073   0.96750   0.17395   0.00000  Uiso   1.00
H231   H     0.12703   0.60890   0.31050   0.00000  Uiso   1.00
H232   H     0.14191   0.88670   0.17438   0.00000  Uiso   1.00
H233   H     0.20470   0.61256   0.18774   0.00000  Uiso   1.00
H234   H     0.18729   0.89251   0.32580   0.00000  Uiso   1.00
H235   H     0.20487   0.53131   0.18806   0.00000  Uiso   1.00
H236   H     0.18877   0.97345   0.32483   0.00000  Uiso   1.00
H237   H     0.22103   0.80903   0.04576   0.00000  Uiso   1.00
H238   H     0.11124   0.69215   0.45438   0.00000  Uiso   1.00
N239   N     0.16667   0.74999   0.12624   0.00000  Uiso   1.00
N240   N     0.16667   0.75001   0.37377   0.00000  Uiso   1.00
O241   O     0.16667   0.68454   0.28974   0.00000  Uiso   1.00
O242   O     0.16666   0.81546   0.21026   0.00000  Uiso   1.00
O243   O     0.16667   0.68453   0.21026   0.00000  Uiso   1.00
O244   O     0.16666   0.81547   0.28974   0.00000  Uiso   1.00
O245   O     0.09058   0.75000   0.28045   0.00000  Uiso   1.00
O246   O     0.24275   0.75000   0.21956   0.00000  Uiso   1.00
O247   O     0.09058   0.74999   0.20097   0.00000  Uiso   1.00
O248   O     0.24275   0.75001   0.29904   0.00000  Uiso   1.00
Zn249  Zn    0.16667   0.75001   0.30307   0.00000  Uiso   1.00
Zn250  Zn    0.16667   0.75000   0.19693   0.00000  Uiso   1.00
Br251  Br    0.05417   0.72494   0.00842   0.00000  Uiso   1.00
Br252  Br    0.27885   0.77667   0.49206   0.00000  Uiso   1.00
S253   S     0.07244   0.69286   0.11403   0.00000  Uiso   1.00
O254   O     0.02787   0.72235   0.11273   0.00000  Uiso   1.00
O255   O     0.05591   0.65518   0.07865   0.00000  Uiso   1.00
O256   O     0.08058   0.66854   0.16626   0.00000  Uiso   1.00
H257   H     0.04523   0.65579   0.17041   0.00000  Uiso   1.00
S258   S     0.26122   0.80678   0.38584   0.00000  Uiso   1.00
O259   O     0.27699   0.84517   0.42049   0.00000  Uiso   1.00
O260   O     0.30608   0.77746   0.38842   0.00000  Uiso   1.00
O261   O     0.25383   0.83000   0.33304   0.00000  Uiso   1.00
H262   H     0.28901   0.84367   0.32961   0.00000  Uiso   1.00
Br263  Br    0.24961   0.82007   0.14561   0.00000  Uiso   1.00
Br264  Br    0.08137   0.68200   0.35477   0.00000  Uiso   1.00
C265   C     0.50004   0.66410   0.24978   0.00000  Uiso   1.00
C266   C     0.49953   0.83595   0.25012   0.00000  Uiso   1.00
C267   C     0.45639   0.73053   0.04614   0.00000  Uiso   1.00
C268   C     0.54358   0.76978   0.45388   0.00000  Uiso   1.00
C269   C     0.46000   0.72591   0.09581   0.00000  Uiso   1.00
C270   C     0.54019   0.77396   0.40414   0.00000  Uiso   1.00
C271   C     0.53361   0.77916   0.10721   0.00000  Uiso   1.00
C272   C     0.46578   0.72156   0.39292   0.00000  Uiso   1.00
C273   C     0.53153   0.78159   0.05826   0.00000  Uiso   1.00
C274   C     0.46792   0.71924   0.44187   0.00000  Uiso   1.00
C275   C     0.49789   0.75207   0.02655   0.00000  Uiso   1.00
C276   C     0.50196   0.74848   0.47354   0.00000  Uiso   1.00
C277   C     0.40048   0.74989   0.23760   0.00000  Uiso   1.00
C278   C     0.59952   0.75014   0.26239   0.00000  Uiso   1.00
C279   C     0.34532   0.74957   0.23108   0.00000  Uiso   1.00
C280   C     0.65468   0.75059   0.26891   0.00000  Uiso   1.00
C281   C     0.47636   0.54623   0.28325   0.00000  Uiso   1.00
C282   C     0.48507   0.95130   0.20705   0.00000  Uiso   1.00
C283   C     0.47734   0.59222   0.28366   0.00000  Uiso   1.00
C284   C     0.48550   0.90536   0.20740   0.00000  Uiso   1.00
C285   C     0.49934   0.61619   0.24921   0.00000  Uiso   1.00
C286   C     0.49852   0.88391   0.25011   0.00000  Uiso   1.00
C287   C     0.52058   0.59417   0.21435   0.00000  Uiso   1.00
C288   C     0.51078   0.90856   0.29247   0.00000  Uiso   1.00
C289   C     0.52048   0.54812   0.21442   0.00000  Uiso   1.00
C290   C     0.51123   0.95458   0.29199   0.00000  Uiso   1.00
C291   C     0.49832   0.52413   0.24889   0.00000  Uiso   1.00
C292   C     0.49830   0.97597   0.24929   0.00000  Uiso   1.00
H293   H     0.65787   0.74831   0.19522   0.00000  Uiso   1.00
H294   H     0.34212   0.75192   0.30476   0.00000  Uiso   1.00
H295   H     0.45826   0.52794   0.30954   0.00000  Uiso   1.00
H296   H     0.47406   0.96750   0.17395   0.00000  Uiso   1.00
H297   H     0.46036   0.60890   0.31050   0.00000  Uiso   1.00
H298   H     0.47524   0.88670   0.17438   0.00000  Uiso   1.00
H299   H     0.53803   0.61256   0.18774   0.00000  Uiso   1.00
H300   H     0.52063   0.89251   0.32580   0.00000  Uiso   1.00
H301   H     0.53820   0.53131   0.18806   0.00000  Uiso   1.00
H302   H     0.52211   0.97345   0.32483   0.00000  Uiso   1.00
H303   H     0.55436   0.80903   0.04576   0.00000  Uiso   1.00
H304   H     0.44458   0.69215   0.45438   0.00000  Uiso   1.00
N305   N     0.50000   0.74999   0.12624   0.00000  Uiso   1.00
N306   N     0.50000   0.75001   0.37377   0.00000  Uiso   1.00
O307   O     0.50000   0.68454   0.28974   0.00000  Uiso   1.00
O308   O     0.50000   0.81546   0.21026   0.00000  Uiso   1.00
O309   O     0.50000   0.68453   0.21026   0.00000  Uiso   1.00
O310   O     0.50000   0.81547   0.28974   0.00000  Uiso   1.00
O311   O     0.42392   0.75000   0.28045   0.00000  Uiso   1.00
O312   O     0.57608   0.75000   0.21956   0.00000  Uiso   1.00
O313   O     0.42392   0.74999   0.20097   0.00000  Uiso   1.00
O314   O     0.57608   0.75001   0.29904   0.00000  Uiso   1.00
Zn315  Zn    0.50000   0.75001   0.30307   0.00000  Uiso   1.00
Zn316  Zn    0.50000   0.75000   0.19693   0.00000  Uiso   1.00
Br317  Br    0.38750   0.72494   0.00842   0.00000  Uiso   1.00
Br318  Br    0.61219   0.77667   0.49206   0.00000  Uiso   1.00
S319   S     0.40578   0.69286   0.11403   0.00000  Uiso   1.00
O320   O     0.36120   0.72235   0.11273   0.00000  Uiso   1.00
O321   O     0.38924   0.65518   0.07865   0.00000  Uiso   1.00
O322   O     0.41391   0.66854   0.16626   0.00000  Uiso   1.00
H323   H     0.37857   0.65579   0.17041   0.00000  Uiso   1.00
S324   S     0.59456   0.80678   0.38584   0.00000  Uiso   1.00
O325   O     0.61033   0.84517   0.42049   0.00000  Uiso   1.00
O326   O     0.63941   0.77746   0.38842   0.00000  Uiso   1.00
O327   O     0.58716   0.83000   0.33304   0.00000  Uiso   1.00
H328   H     0.62235   0.84367   0.32961   0.00000  Uiso   1.00
Br329  Br    0.58294   0.82007   0.14561   0.00000  Uiso   1.00
Br330  Br    0.41470   0.68200   0.35477   0.00000  Uiso   1.00
C331   C     0.83338   0.66410   0.24978   0.00000  Uiso   1.00
C332   C     0.83286   0.83595   0.25012   0.00000  Uiso   1.00
C333   C     0.78972   0.73053   0.04614   0.00000  Uiso   1.00
C334   C     0.87692   0.76978   0.45388   0.00000  Uiso   1.00
C335   C     0.79334   0.72591   0.09581   0.00000  Uiso   1.00
C336   C     0.87352   0.77396   0.40414   0.00000  Uiso   1.00
C337   C     0.86694   0.77916   0.10721   0.00000  Uiso   1.00
C338   C     0.79911   0.72156   0.39292   0.00000  Uiso   1.00
C339   C     0.86487   0.78159   0.05826   0.00000  Uiso   1.00
C340   C     0.80125   0.71924   0.44187   0.00000  Uiso   1.00
C341   C     0.83123   0.75207   0.02655   0.00000  Uiso   1.00
C342   C     0.83529   0.74848   0.47354   0.00000  Uiso   1.00
C343   C     0.73381   0.74989   0.23760   0.00000  Uiso   1.00
C344   C     0.93285   0.75014   0.26239   0.00000  Uiso   1.00
C345   C     0.67865   0.74957   0.23108   0.00000  Uiso   1.00
C346   C     0.98802   0.75059   0.26891   0.00000  Uiso   1.00
C347   C     0.80969   0.54623   0.28325   0.00000  Uiso   1.00
C348   C     0.81840   0.95130   0.20705   0.00000  Uiso   1.00
C349   C     0.81067   0.59222   0.28366   0.00000  Uiso   1.00
C350   C     0.81884   0.90536   0.20740   0.00000  Uiso   1.00
C351   C     0.83267   0.61619   0.24921   0.00000  Uiso   1.00
C352   C     0.83185   0.88391   0.25011   0.00000  Uiso   1.00
C353   C     0.85391   0.59417   0.21435   0.00000  Uiso   1.00
C354   C     0.84411   0.90856   0.29247   0.00000  Uiso   1.00
C355   C     0.85381   0.54812   0.21442   0.00000  Uiso   1.00
C356   C     0.84457   0.95458   0.29199   0.00000  Uiso   1.00
C357   C     0.83165   0.52413   0.24889   0.00000  Uiso   1.00
C358   C     0.83163   0.97597   0.24929   0.00000  Uiso   1.00
H359   H     0.99120   0.74831   0.19522   0.00000  Uiso   1.00
H360   H     0.67546   0.75192   0.30476   0.00000  Uiso   1.00
H361   H     0.79160   0.52794   0.30954   0.00000  Uiso   1.00
H362   H     0.80739   0.96750   0.17395   0.00000  Uiso   1.00
H363   H     0.79369   0.60890   0.31050   0.00000  Uiso   1.00
H364   H     0.80858   0.88670   0.17438   0.00000  Uiso   1.00
H365   H     0.87137   0.61256   0.18774   0.00000  Uiso   1.00
H366   H     0.85396   0.89251   0.32580   0.00000  Uiso   1.00
H367   H     0.87154   0.53131   0.18806   0.00000  Uiso   1.00
H368   H     0.85544   0.97345   0.32483   0.00000  Uiso   1.00
H369   H     0.88770   0.80903   0.04576   0.00000  Uiso   1.00
H370   H     0.77791   0.69215   0.45438   0.00000  Uiso   1.00
N371   N     0.83333   0.74999   0.12624   0.00000  Uiso   1.00
N372   N     0.83333   0.75001   0.37377   0.00000  Uiso   1.00
O373   O     0.83334   0.68454   0.28974   0.00000  Uiso   1.00
O374   O     0.83333   0.81546   0.21026   0.00000  Uiso   1.00
O375   O     0.83334   0.68453   0.21026   0.00000  Uiso   1.00
O376   O     0.83333   0.81547   0.28974   0.00000  Uiso   1.00
O377   O     0.75725   0.75000   0.28045   0.00000  Uiso   1.00
O378   O     0.90942   0.75000   0.21956   0.00000  Uiso   1.00
O379   O     0.75725   0.74999   0.20097   0.00000  Uiso   1.00
O380   O     0.90942   0.75001   0.29904   0.00000  Uiso   1.00
Zn381  Zn    0.83333   0.75001   0.30307   0.00000  Uiso   1.00
Zn382  Zn    0.83333   0.75000   0.19693   0.00000  Uiso   1.00
Br383  Br    0.72084   0.72494   0.00842   0.00000  Uiso   1.00
Br384  Br    0.94552   0.77667   0.49206   0.00000  Uiso   1.00
S385   S     0.73911   0.69286   0.11403   0.00000  Uiso   1.00
O386   O     0.69454   0.72235   0.11273   0.00000  Uiso   1.00
O387   O     0.72257   0.65518   0.07865   0.00000  Uiso   1.00
O388   O     0.74725   0.66854   0.16626   0.00000  Uiso   1.00
H389   H     0.71190   0.65579   0.17041   0.00000  Uiso   1.00
S390   S     0.92789   0.80678   0.38584   0.00000  Uiso   1.00
O391   O     0.94366   0.84517   0.42049   0.00000  Uiso   1.00
O392   O     0.97275   0.77746   0.38842   0.00000  Uiso   1.00
O393   O     0.92049   0.83000   0.33304   0.00000  Uiso   1.00
H394   H     0.95568   0.84367   0.32961   0.00000  Uiso   1.00
Br395  Br    0.91627   0.82007   0.14561   0.00000  Uiso   1.00
Br396  Br    0.74803   0.68200   0.35477   0.00000  Uiso   1.00
C397   C     0.16671   0.16410   0.74978   0.00000  Uiso   1.00
C398   C     0.16620   0.33595   0.75012   0.00000  Uiso   1.00
C399   C     0.12306   0.23053   0.54614   0.00000  Uiso   1.00
C400   C     0.21025   0.26978   0.95388   0.00000  Uiso   1.00
C401   C     0.12667   0.22591   0.59581   0.00000  Uiso   1.00
C402   C     0.20685   0.27396   0.90414   0.00000  Uiso   1.00
C403   C     0.20027   0.27916   0.60721   0.00000  Uiso   1.00
C404   C     0.13244   0.22156   0.89292   0.00000  Uiso   1.00
C405   C     0.19820   0.28159   0.55826   0.00000  Uiso   1.00
C406   C     0.13459   0.21924   0.94187   0.00000  Uiso   1.00
C407   C     0.16456   0.25207   0.52655   0.00000  Uiso   1.00
C408   C     0.16863   0.24848   0.97354   0.00000  Uiso   1.00
C409   C     0.06715   0.24989   0.73760   0.00000  Uiso   1.00
C410   C     0.26619   0.25014   0.76239   0.00000  Uiso   1.00
C411   C     0.01199   0.24957   0.73108   0.00000  Uiso   1.00
C412   C     0.32135   0.25059   0.76891   0.00000  Uiso   1.00
C413   C     0.14303   0.04623   0.78325   0.00000  Uiso   1.00
C414   C     0.15174   0.45130   0.70705   0.00000  Uiso   1.00
C415   C     0.14400   0.09222   0.78366   0.00000  Uiso   1.00
C416   C     0.15217   0.40536   0.70740   0.00000  Uiso   1.00
C417   C     0.16601   0.11619   0.74921   0.00000  Uiso   1.00
C418   C     0.16518   0.38391   0.75011   0.00000  Uiso   1.00
C419   C     0.18725   0.09417   0.71435   0.00000  Uiso   1.00
C420   C     0.17744   0.40856   0.79247   0.00000  Uiso   1.00
C421   C     0.18714   0.04812   0.71442   0.00000  Uiso   1.00
C422   C     0.17790   0.45458   0.79199   0.00000  Uiso   1.00
C423   C     0.16499   0.02413   0.74889   0.00000  Uiso   1.00
C424   C     0.16497   0.47597   0.74929   0.00000  Uiso   1.00
H425   H     0.32453   0.24831   0.69522   0.00000  Uiso   1.00
H426   H     0.00879   0.25192   0.80476   0.00000  Uiso   1.00
H427   H     0.12493   0.02794   0.80954   0.00000  Uiso   1.00
H428   H     0.14073   0.46750   0.67395   0.00000  Uiso   1.00
H429   H     0.12703   0.10890   0.81050   0.00000  Uiso   1.00
H430   H     0.14191   0.38670   0.67438   0.00000  Uiso   1.00
H431   H     0.20470   0.11256   0.68774   0.00000  Uiso   1.00
H432   H     0.18729   0.39251   0.82580   0.00000  Uiso   1.00
H433   H     0.20487   0.03131   0.68806   0.00000  Uiso   1.00
H434   H     0.18877   0.47345   0.82483   0.00000  Uiso   1.00
H435   H     0.22103   0.30903   0.54576   0.00000  Uiso   1.00
H436   H     0.11124   0.19215   0.95438   0.00000  Uiso   1.00
N437   N     0.16667   0.24999   0.62624   0.00000  Uiso   1.00
N438   N     0.16667   0.25001   0.87377   0.00000  Uiso   1.00
O439   O     0.16667   0.18454   0.78974   0.00000  Uiso   1.00
O440   O     0.16666   0.31546   0.71026   0.00000  Uiso   1.00
O441   O     0.16667   0.18453   0.71026   0.00000  Uiso   1.00
O442   O     0.16666   0.31547   0.78974   0.00000  Uiso   1.00
O443   O     0.09058   0.25000   0.78045   0.00000  Uiso   1.00
O444   O     0.24275   0.25000   0.71956   0.00000  Uiso   1.00
O445   O     0.09058   0.24999   0.70097   0.00000  Uiso   1.00
O446   O     0.24275   0.25001   0.79904   0.00000  Uiso   1.00
Zn447  Zn    0.16667   0.25001   0.80307   0.00000  Uiso   1.00
Zn448  Zn    0.16667   0.25000   0.69693   0.00000  Uiso   1.00
Br449  Br    0.05417   0.22494   0.50842   0.00000  Uiso   1.00
Br450  Br    0.27885   0.27667   0.99206   0.00000  Uiso   1.00
S451   S     0.07244   0.19286   0.61403   0.00000  Uiso   1.00
O452   O     0.02787   0.22235   0.61273   0.00000  Uiso   1.00
O453   O     0.05591   0.15518   0.57865   0.00000  Uiso   1.00
O454   O     0.08058   0.16854   0.66626   0.00000  Uiso   1.00
H455   H     0.04523   0.15579   0.67041   0.00000  Uiso   1.00
S456   S     0.26122   0.30678   0.88584   0.00000  Uiso   1.00
O457   O     0.27699   0.34517   0.92049   0.00000  Uiso   1.00
O458   O     0.30608   0.27746   0.88842   0.00000  Uiso   1.00
O459   O     0.25383   0.33000   0.83304   0.00000  Uiso   1.00
H460   H     0.28901   0.34367   0.82961   0.00000  Uiso   1.00
Br461  Br    0.24961   0.32007   0.64561   0.00000  Uiso   1.00
Br462  Br    0.08137   0.18200   0.85477   0.00000  Uiso   1.00
C463   C     0.50004   0.16410   0.74978   0.00000  Uiso   1.00
C464   C     0.49953   0.33595   0.75012   0.00000  Uiso   1.00
C465   C     0.45639   0.23053   0.54614   0.00000  Uiso   1.00
C466   C     0.54358   0.26978   0.95388   0.00000  Uiso   1.00
C467   C     0.46000   0.22591   0.59581   0.00000  Uiso   1.00
C468   C     0.54019   0.27396   0.90414   0.00000  Uiso   1.00
C469   C     0.53361   0.27916   0.60721   0.00000  Uiso   1.00
C470   C     0.46578   0.22156   0.89292   0.00000  Uiso   1.00
C471   C     0.53153   0.28159   0.55826   0.00000  Uiso   1.00
C472   C     0.46792   0.21924   0.94187   0.00000  Uiso   1.00
C473   C     0.49789   0.25207   0.52655   0.00000  Uiso   1.00
C474   C     0.50196   0.24848   0.97354   0.00000  Uiso   1.00
C475   C     0.40048   0.24989   0.73760   0.00000  Uiso   1.00
C476   C     0.59952   0.25014   0.76239   0.00000  Uiso   1.00
C477   C     0.34532   0.24957   0.73108   0.00000  Uiso   1.00
C478   C     0.65468   0.25059   0.76891   0.00000  Uiso   1.00
C479   C     0.47636   0.04623   0.78325   0.00000  Uiso   1.00
C480   C     0.48507   0.45130   0.70705   0.00000  Uiso   1.00
C481   C     0.47734   0.09222   0.78366   0.00000  Uiso   1.00
C482   C     0.48550   0.40536   0.70740   0.00000  Uiso   1.00
C483   C     0.49934   0.11619   0.74921   0.00000  Uiso   1.00
C484   C     0.49852   0.38391   0.75011   0.00000  Uiso   1.00
C485   C     0.52058   0.09417   0.71435   0.00000  Uiso   1.00
C486   C     0.51078   0.40856   0.79247   0.00000  Uiso   1.00
C487   C     0.52048   0.04812   0.71442   0.00000  Uiso   1.00
C488   C     0.51123   0.45458   0.79199   0.00000  Uiso   1.00
C489   C     0.49832   0.02413   0.74889   0.00000  Uiso   1.00
C490   C     0.49830   0.47597   0.74929   0.00000  Uiso   1.00
H491   H     0.65787   0.24831   0.69522   0.00000  Uiso   1.00
H492   H     0.34212   0.25192   0.80476   0.00000  Uiso   1.00
H493   H     0.45826   0.02794   0.80954   0.00000  Uiso   1.00
H494   H     0.47406   0.46750   0.67395   0.00000  Uiso   1.00
H495   H     0.46036   0.10890   0.81050   0.00000  Uiso   1.00
H496   H     0.47524   0.38670   0.67438   0.00000  Uiso   1.00
H497   H     0.53803   0.11256   0.68774   0.00000  Uiso   1.00
H498   H     0.52063   0.39251   0.82580   0.00000  Uiso   1.00
H499   H     0.53820   0.03131   0.68806   0.00000  Uiso   1.00
H500   H     0.52211   0.47345   0.82483   0.00000  Uiso   1.00
H501   H     0.55436   0.30903   0.54576   0.00000  Uiso   1.00
H502   H     0.44458   0.19215   0.95438   0.00000  Uiso   1.00
N503   N     0.50000   0.24999   0.62624   0.00000  Uiso   1.00
N504   N     0.50000   0.25001   0.87377   0.00000  Uiso   1.00
O505   O     0.50000   0.18454   0.78974   0.00000  Uiso   1.00
O506   O     0.50000   0.31546   0.71026   0.00000  Uiso   1.00
O507   O     0.50000   0.18453   0.71026   0.00000  Uiso   1.00
O508   O     0.50000   0.31547   0.78974   0.00000  Uiso   1.00
O509   O     0.42392   0.25000   0.78045   0.00000  Uiso   1.00
O510   O     0.57608   0.25000   0.71956   0.00000  Uiso   1.00
O511   O     0.42392   0.24999   0.70097   0.00000  Uiso   1.00
O512   O     0.57608   0.25001   0.79904   0.00000  Uiso   1.00
Zn513  Zn    0.50000   0.25001   0.80307   0.00000  Uiso   1.00
Zn514  Zn    0.50000   0.25000   0.69693   0.00000  Uiso   1.00
Br515  Br    0.38750   0.22494   0.50842   0.00000  Uiso   1.00
Br516  Br    0.61219   0.27667   0.99206   0.00000  Uiso   1.00
S517   S     0.40578   0.19286   0.61403   0.00000  Uiso   1.00
O518   O     0.36120   0.22235   0.61273   0.00000  Uiso   1.00
O519   O     0.38924   0.15518   0.57865   0.00000  Uiso   1.00
O520   O     0.41391   0.16854   0.66626   0.00000  Uiso   1.00
H521   H     0.37857   0.15579   0.67041   0.00000  Uiso   1.00
S522   S     0.59456   0.30678   0.88584   0.00000  Uiso   1.00
O523   O     0.61033   0.34517   0.92049   0.00000  Uiso   1.00
O524   O     0.63941   0.27746   0.88842   0.00000  Uiso   1.00
O525   O     0.58716   0.33000   0.83304   0.00000  Uiso   1.00
H526   H     0.62235   0.34367   0.82961   0.00000  Uiso   1.00
Br527  Br    0.58294   0.32007   0.64561   0.00000  Uiso   1.00
Br528  Br    0.41470   0.18200   0.85477   0.00000  Uiso   1.00
C529   C     0.83338   0.16410   0.74978   0.00000  Uiso   1.00
C530   C     0.83286   0.33595   0.75012   0.00000  Uiso   1.00
C531   C     0.78972   0.23053   0.54614   0.00000  Uiso   1.00
C532   C     0.87692   0.26978   0.95388   0.00000  Uiso   1.00
C533   C     0.79334   0.22591   0.59581   0.00000  Uiso   1.00
C534   C     0.87352   0.27396   0.90414   0.00000  Uiso   1.00
C535   C     0.86694   0.27916   0.60721   0.00000  Uiso   1.00
C536   C     0.79911   0.22156   0.89292   0.00000  Uiso   1.00
C537   C     0.86487   0.28159   0.55826   0.00000  Uiso   1.00
C538   C     0.80125   0.21924   0.94187   0.00000  Uiso   1.00
C539   C     0.83123   0.25207   0.52655   0.00000  Uiso   1.00
C540   C     0.83529   0.24848   0.97354   0.00000  Uiso   1.00
C541   C     0.73381   0.24989   0.73760   0.00000  Uiso   1.00
C542   C     0.93285   0.25014   0.76239   0.00000  Uiso   1.00
C543   C     0.67865   0.24957   0.73108   0.00000  Uiso   1.00
C544   C     0.98802   0.25059   0.76891   0.00000  Uiso   1.00
C545   C     0.80969   0.04623   0.78325   0.00000  Uiso   1.00
C546   C     0.81840   0.45130   0.70705   0.00000  Uiso   1.00
C547   C     0.81067   0.09222   0.78366   0.00000  Uiso   1.00
C548   C     0.81884   0.40536   0.70740   0.00000  Uiso   1.00
C549   C     0.83267   0.11619   0.74921   0.00000  Uiso   1.00
C550   C     0.83185   0.38391   0.75011   0.00000  Uiso   1.00
C551   C     0.85391   0.09417   0.71435   0.00000  Uiso   1.00
C552   C     0.84411   0.40856   0.79247   0.00000  Uiso   1.00
C553   C     0.85381   0.04812   0.71442   0.00000  Uiso   1.00
C554   C     0.84457   0.45458   0.79199   0.00000  Uiso   1.00
C555   C     0.83165   0.02413   0.74889   0.00000  Uiso   1.00
C556   C     0.83163   0.47597   0.74929   0.00000  Uiso   1.00
H557   H     0.99120   0.24831   0.69522   0.00000  Uiso   1.00
H558   H     0.67546   0.25192   0.80476   0.00000  Uiso   1.00
H559   H     0.79160   0.02794   0.80954   0.00000  Uiso   1.00
H560   H     0.80739   0.46750   0.67395   0.00000  Uiso   1.00
H561   H     0.79369   0.10890   0.81050   0.00000  Uiso   1.00
H562   H     0.80858   0.38670   0.67438   0.00000  Uiso   1.00
H563   H     0.87137   0.11256   0.68774   0.00000  Uiso   1.00
H564   H     0.85396   0.39251   0.82580   0.00000  Uiso   1.00
H565   H     0.87154   0.03131   0.68806   0.00000  Uiso   1.00
H566   H     0.85544   0.47345   0.82483   0.00000  Uiso   1.00
H567   H     0.88770   0.30903   0.54576   0.00000  Uiso   1.00
H568   H     0.77791   0.19215   0.95438   0.00000  Uiso   1.00
N569   N     0.83333   0.24999   0.62624   0.00000  Uiso   1.00
N570   N     0.83333   0.25001   0.87377   0.00000  Uiso   1.00
O571   O     0.83334   0.18454   0.78974   0.00000  Uiso   1.00
O572   O     0.83333   0.31546   0.71026   0.00000  Uiso   1.00
O573   O     0.83334   0.18453   0.71026   0.00000  Uiso   1.00
O574   O     0.83333   0.31547   0.78974   0.00000  Uiso   1.00
O575   O     0.75725   0.25000   0.78045   0.00000  Uiso   1.00
O576   O     0.90942   0.25000   0.71956   0.00000  Uiso   1.00
O577   O     0.75725   0.24999   0.70097   0.00000  Uiso   1.00
O578   O     0.90942   0.25001   0.79904   0.00000  Uiso   1.00
Zn579  Zn    0.83333   0.25001   0.80307   0.00000  Uiso   1.00
Zn580  Zn    0.83333   0.25000   0.69693   0.00000  Uiso   1.00
Br581  Br    0.72084   0.22494   0.50842   0.00000  Uiso   1.00
Br582  Br    0.94552   0.27667   0.99206   0.00000  Uiso   1.00
S583   S     0.73911   0.19286   0.61403   0.00000  Uiso   1.00
O584   O     0.69454   0.22235   0.61273   0.00000  Uiso   1.00
O585   O     0.72257   0.15518   0.57865   0.00000  Uiso   1.00
O586   O     0.74725   0.16854   0.66626   0.00000  Uiso   1.00
H587   H     0.71190   0.15579   0.67041   0.00000  Uiso   1.00
S588   S     0.92789   0.30678   0.88584   0.00000  Uiso   1.00
O589   O     0.94366   0.34517   0.92049   0.00000  Uiso   1.00
O590   O     0.97275   0.27746   0.88842   0.00000  Uiso   1.00
O591   O     0.92049   0.33000   0.83304   0.00000  Uiso   1.00
H592   H     0.95568   0.34367   0.82961   0.00000  Uiso   1.00
Br593  Br    0.91627   0.32007   0.64561   0.00000  Uiso   1.00
Br594  Br    0.74803   0.18200   0.85477   0.00000  Uiso   1.00
C595   C     0.16671   0.66410   0.74978   0.00000  Uiso   1.00
C596   C     0.16620   0.83595   0.75012   0.00000  Uiso   1.00
C597   C     0.12306   0.73053   0.54614   0.00000  Uiso   1.00
C598   C     0.21025   0.76978   0.95388   0.00000  Uiso   1.00
C599   C     0.12667   0.72591   0.59581   0.00000  Uiso   1.00
C600   C     0.20685   0.77396   0.90414   0.00000  Uiso   1.00
C601   C     0.20027   0.77916   0.60721   0.00000  Uiso   1.00
C602   C     0.13244   0.72156   0.89292   0.00000  Uiso   1.00
C603   C     0.19820   0.78159   0.55826   0.00000  Uiso   1.00
C604   C     0.13459   0.71924   0.94187   0.00000  Uiso   1.00
C605   C     0.16456   0.75207   0.52655   0.00000  Uiso   1.00
C606   C     0.16863   0.74848   0.97354   0.00000  Uiso   1.00
C607   C     0.06715   0.74989   0.73760   0.00000  Uiso   1.00
C608   C     0.26619   0.75014   0.76239   0.00000  Uiso   1.00
C609   C     0.01199   0.74957   0.73108   0.00000  Uiso   1.00
C610   C     0.32135   0.75059   0.76891   0.00000  Uiso   1.00
C611   C     0.14303   0.54623   0.78325   0.00000  Uiso   1.00
C612   C     0.15174   0.95130   0.70705   0.00000  Uiso   1.00
C613   C     0.14400   0.59222   0.78366   0.00000  Uiso   1.00
C614   C     0.15217   0.90536   0.70740   0.00000  Uiso   1.00
C615   C     0.16601   0.61619   0.74921   0.00000  Uiso   1.00
C616   C     0.16518   0.88391   0.75011   0.00000  Uiso   1.00
C617   C     0.18725   0.59417   0.71435   0.00000  Uiso   1.00
C618   C     0.17744   0.90856   0.79247   0.00000  Uiso   1.00
C619   C     0.18714   0.54812   0.71442   0.00000  Uiso   1.00
C620   C     0.17790   0.95458   0.79199   0.00000  Uiso   1.00
C621   C     0.16499   0.52413   0.74889   0.00000  Uiso   1.00
C622   C     0.16497   0.97597   0.74929   0.00000  Uiso   1.00
H623   H     0.32453   0.74831   0.69522   0.00000  Uiso   1.00
H624   H     0.00879   0.75192   0.80476   0.00000  Uiso   1.00
H625   H     0.12493   0.52794   0.80954   0.00000  Uiso   1.00
H626   H     0.14073   0.96750   0.67395   0.00000  Uiso   1.00
H627   H     0.12703   0.60890   0.81050   0.00000  Uiso   1.00
H628   H     0.14191   0.88670   0.67438   0.00000  Uiso   1.00
H629   H     0.20470   0.61256   0.68774   0.00000  Uiso   1.00
H630   H     0.18729   0.89251   0.82580   0.00000  Uiso   1.00
H631   H     0.20487   0.53131   0.68806   0.00000  Uiso   1.00
H632   H     0.18877   0.97345   0.82483   0.00000  Uiso   1.00
H633   H     0.22103   0.80903   0.54576   0.00000  Uiso   1.00
H634   H     0.11124   0.69215   0.95438   0.00000  Uiso   1.00
N635   N     0.16667   0.74999   0.62624   0.00000  Uiso   1.00
N636   N     0.16667   0.75001   0.87377   0.00000  Uiso   1.00
O637   O     0.16667   0.68454   0.78974   0.00000  Uiso   1.00
O638   O     0.16666   0.81546   0.71026   0.00000  Uiso   1.00
O639   O     0.16667   0.68453   0.71026   0.00000  Uiso   1.00
O640   O     0.16666   0.81547   0.78974   0.00000  Uiso   1.00
O641   O     0.09058   0.75000   0.78045   0.00000  Uiso   1.00
O642   O     0.24275   0.75000   0.71956   0.00000  Uiso   1.00
O643   O     0.09058   0.74999   0.70097   0.00000  Uiso   1.00
O644   O     0.24275   0.75001   0.79904   0.00000  Uiso   1.00
Zn645  Zn    0.16667   0.75001   0.80307   0.00000  Uiso   1.00
Zn646  Zn    0.16667   0.75000   0.69693   0.00000  Uiso   1.00
Br647  Br    0.05417   0.72494   0.50842   0.00000  Uiso   1.00
Br648  Br    0.27885   0.77667   0.99206   0.00000  Uiso   1.00
S649   S     0.07244   0.69286   0.61403   0.00000  Uiso   1.00
O650   O     0.02787   0.72235   0.61273   0.00000  Uiso   1.00
O651   O     0.05591   0.65518   0.57865   0.00000  Uiso   1.00
O652   O     0.08058   0.66854   0.66626   0.00000  Uiso   1.00
H653   H     0.04523   0.65579   0.67041   0.00000  Uiso   1.00
S654   S     0.26122   0.80678   0.88584   0.00000  Uiso   1.00
O655   O     0.27699   0.84517   0.92049   0.00000  Uiso   1.00
O656   O     0.30608   0.77746   0.88842   0.00000  Uiso   1.00
O657   O     0.25383   0.83000   0.83304   0.00000  Uiso   1.00
H658   H     0.28901   0.84367   0.82961   0.00000  Uiso   1.00
Br659  Br    0.24961   0.82007   0.64561   0.00000  Uiso   1.00
Br660  Br    0.08137   0.68200   0.85477   0.00000  Uiso   1.00
C661   C     0.50004   0.66410   0.74978   0.00000  Uiso   1.00
C662   C     0.49953   0.83595   0.75012   0.00000  Uiso   1.00
C663   C     0.45639   0.73053   0.54614   0.00000  Uiso   1.00
C664   C     0.54358   0.76978   0.95388   0.00000  Uiso   1.00
C665   C     0.46000   0.72591   0.59581   0.00000  Uiso   1.00
C666   C     0.54019   0.77396   0.90414   0.00000  Uiso   1.00
C667   C     0.53361   0.77916   0.60721   0.00000  Uiso   1.00
C668   C     0.46578   0.72156   0.89292   0.00000  Uiso   1.00
C669   C     0.53153   0.78159   0.55826   0.00000  Uiso   1.00
C670   C     0.46792   0.71924   0.94187   0.00000  Uiso   1.00
C671   C     0.49789   0.75207   0.52655   0.00000  Uiso   1.00
C672   C     0.50196   0.74848   0.97354   0.00000  Uiso   1.00
C673   C     0.40048   0.74989   0.73760   0.00000  Uiso   1.00
C674   C     0.59952   0.75014   0.76239   0.00000  Uiso   1.00
C675   C     0.34532   0.74957   0.73108   0.00000  Uiso   1.00
C676   C     0.65468   0.75059   0.76891   0.00000  Uiso   1.00
C677   C     0.47636   0.54623   0.78325   0.00000  Uiso   1.00
C678   C     0.48507   0.95130   0.70705   0.00000  Uiso   1.00
C679   C     0.47734   0.59222   0.78366   0.00000  Uiso   1.00
C680   C     0.48550   0.90536   0.70740   0.00000  Uiso   1.00
C681   C     0.49934   0.61619   0.74921   0.00000  Uiso   1.00
C682   C     0.49852   0.88391   0.75011   0.00000  Uiso   1.00
C683   C     0.52058   0.59417   0.71435   0.00000  Uiso   1.00
C684   C     0.51078   0.90856   0.79247   0.00000  Uiso   1.00
C685   C     0.52048   0.54812   0.71442   0.00000  Uiso   1.00
C686   C     0.51123   0.95458   0.79199   0.00000  Uiso   1.00
C687   C     0.49832   0.52413   0.74889   0.00000  Uiso   1.00
C688   C     0.49830   0.97597   0.74929   0.00000  Uiso   1.00
H689   H     0.65787   0.74831   0.69522   0.00000  Uiso   1.00
H690   H     0.34212   0.75192   0.80476   0.00000  Uiso   1.00
H691   H     0.45826   0.52794   0.80954   0.00000  Uiso   1.00
H692   H     0.47406   0.96750   0.67395   0.00000  Uiso   1.00
H693   H     0.46036   0.60890   0.81050   0.00000  Uiso   1.00
H694   H     0.47524   0.88670   0.67438   0.00000  Uiso   1.00
H695   H     0.53803   0.61256   0.68774   0.00000  Uiso   1.00
H696   H     0.52063   0.89251   0.82580   0.00000  Uiso   1.00
H697   H     0.53820   0.53131   0.68806   0.00000  Uiso   1.00
H698   H     0.52211   0.97345   0.82483   0.00000  Uiso   1.00
H699   H     0.55436   0.80903   0.54576   0.00000  Uiso   1.00
H700   H     0.44458   0.69215   0.95438   0.00000  Uiso   1.00
N701   N     0.50000   0.74999   0.62624   0.00000  Uiso   1.00
N702   N     0.50000   0.75001   0.87377   0.00000  Uiso   1.00
O703   O     0.50000   0.68454   0.78974   0.00000  Uiso   1.00
O704   O     0.50000   0.81546   0.71026   0.00000  Uiso   1.00
O705   O     0.50000   0.68453   0.71026   0.00000  Uiso   1.00
O706   O     0.50000   0.81547   0.78974   0.00000  Uiso   1.00
O707   O     0.42392   0.75000   0.78045   0.00000  Uiso   1.00
O708   O     0.57608   0.75000   0.71956   0.00000  Uiso   1.00
O709   O     0.42392   0.74999   0.70097   0.00000  Uiso   1.00
O710   O     0.57608   0.75001   0.79904   0.00000  Uiso   1.00
Zn711  Zn    0.50000   0.75001   0.80307   0.00000  Uiso   1.00
Zn712  Zn    0.50000   0.75000   0.69693   0.00000  Uiso   1.00
Br713  Br    0.38750   0.72494   0.50842   0.00000  Uiso   1.00
Br714  Br    0.61219   0.77667   0.99206   0.00000  Uiso   1.00
S715   S     0.40578   0.69286   0.61403   0.00000  Uiso   1.00
O716   O     0.36120   0.72235   0.61273   0.00000  Uiso   1.00
O717   O     0.38924   0.65518   0.57865   0.00000  Uiso   1.00
O718   O     0.41391   0.66854   0.66626   0.00000  Uiso   1.00
H719   H     0.37857   0.65579   0.67041   0.00000  Uiso   1.00
S720   S     0.59456   0.80678   0.88584   0.00000  Uiso   1.00
O721   O     0.61033   0.84517   0.92049   0.00000  Uiso   1.00
O722   O     0.63941   0.77746   0.88842   0.00000  Uiso   1.00
O723   O     0.58716   0.83000   0.83304   0.00000  Uiso   1.00
H724   H     0.62235   0.84367   0.82961   0.00000  Uiso   1.00
Br725  Br    0.58294   0.82007   0.64561   0.00000  Uiso   1.00
Br726  Br    0.41470   0.68200   0.85477   0.00000  Uiso   1.00
C727   C     0.83338   0.66410   0.74978   0.00000  Uiso   1.00
C728   C     0.83286   0.83595   0.75012   0.00000  Uiso   1.00
C729   C     0.78972   0.73053   0.54614   0.00000  Uiso   1.00
C730   C     0.87692   0.76978   0.95388   0.00000  Uiso   1.00
C731   C     0.79334   0.72591   0.59581   0.00000  Uiso   1.00
C732   C     0.87352   0.77396   0.90414   0.00000  Uiso   1.00
C733   C     0.86694   0.77916   0.60721   0.00000  Uiso   1.00
C734   C     0.79911   0.72156   0.89292   0.00000  Uiso   1.00
C735   C     0.86487   0.78159   0.55826   0.00000  Uiso   1.00
C736   C     0.80125   0.71924   0.94187   0.00000  Uiso   1.00
C737   C     0.83123   0.75207   0.52655   0.00000  Uiso   1.00
C738   C     0.83529   0.74848   0.97354   0.00000  Uiso   1.00
C739   C     0.73381   0.74989   0.73760   0.00000  Uiso   1.00
C740   C     0.93285   0.75014   0.76239   0.00000  Uiso   1.00
C741   C     0.67865   0.74957   0.73108   0.00000  Uiso   1.00
C742   C     0.98802   0.75059   0.76891   0.00000  Uiso   1.00
C743   C     0.80969   0.54623   0.78325   0.00000  Uiso   1.00
C744   C     0.81840   0.95130   0.70705   0.00000  Uiso   1.00
C745   C     0.81067   0.59222   0.78366   0.00000  Uiso   1.00
C746   C     0.81884   0.90536   0.70740   0.00000  Uiso   1.00
C747   C     0.83267   0.61619   0.74921   0.00000  Uiso   1.00
C748   C     0.83185   0.88391   0.75011   0.00000  Uiso   1.00
C749   C     0.85391   0.59417   0.71435   0.00000  Uiso   1.00
C750   C     0.84411   0.90856   0.79247   0.00000  Uiso   1.00
C751   C     0.85381   0.54812   0.71442   0.00000  Uiso   1.00
C752   C     0.84457   0.95458   0.79199   0.00000  Uiso   1.00
C753   C     0.83165   0.52413   0.74889   0.00000  Uiso   1.00
C754   C     0.83163   0.97597   0.74929   0.00000  Uiso   1.00
H755   H     0.99120   0.74831   0.69522   0.00000  Uiso   1.00
H756   H     0.67546   0.75192   0.80476   0.00000  Uiso   1.00
H757   H     0.79160   0.52794   0.80954   0.00000  Uiso   1.00
H758   H     0.80739   0.96750   0.67395   0.00000  Uiso   1.00
H759   H     0.79369   0.60890   0.81050   0.00000  Uiso   1.00
H760   H     0.80858   0.88670   0.67438   0.00000  Uiso   1.00
H761   H     0.87137   0.61256   0.68774   0.00000  Uiso   1.00
H762   H     0.85396   0.89251   0.82580   0.00000  Uiso   1.00
H763   H     0.87154   0.53131   0.68806   0.00000  Uiso   1.00
H764   H     0.85544   0.97345   0.82483   0.00000  Uiso   1.00
H765   H     0.88770   0.80903   0.54576   0.00000  Uiso   1.00
H766   H     0.77791   0.69215   0.95438   0.00000  Uiso   1.00
N767   N     0.83333   0.74999   0.62624   0.00000  Uiso   1.00
N768   N     0.83333   0.75001   0.87377   0.00000  Uiso   1.00
O769   O     0.83334   0.68454   0.78974   0.00000  Uiso   1.00
O770   O     0.83333   0.81546   0.71026   0.00000  Uiso   1.00
O771   O     0.83334   0.68453   0.71026   0.00000  Uiso   1.00
O772   O     0.83333   0.81547   0.78974   0.00000  Uiso   1.00
O773   O     0.75725   0.75000   0.78045   0.00000  Uiso   1.00
O774   O     0.90942   0.75000   0.71956   0.00000  Uiso   1.00
O775   O     0.75725   0.74999   0.70097   0.00000  Uiso   1.00
O776   O     0.90942   0.75001   0.79904   0.00000  Uiso   1.00
Zn777  Zn    0.83333   0.75001   0.80307   0.00000  Uiso   1.00
Zn778  Zn    0.83333   0.75000   0.69693   0.00000  Uiso   1.00
Br779  Br    0.72084   0.72494   0.50842   0.00000  Uiso   1.00
Br780  Br    0.94552   0.77667   0.99206   0.00000  Uiso   1.00
S781   S     0.73911   0.69286   0.61403   0.00000  Uiso   1.00
O782   O     0.69454   0.72235   0.61273   0.00000  Uiso   1.00
O783   O     0.72257   0.65518   0.57865   0.00000  Uiso   1.00
O784   O     0.74725   0.66854   0.66626   0.00000  Uiso   1.00
H785   H     0.71190   0.65579   0.67041   0.00000  Uiso   1.00
S786   S     0.92789   0.80678   0.88584   0.00000  Uiso   1.00
O787   O     0.94366   0.84517   0.92049   0.00000  Uiso   1.00
O788   O     0.97275   0.77746   0.88842   0.00000  Uiso   1.00
O789   O     0.92049   0.83000   0.83304   0.00000  Uiso   1.00
H790   H     0.95568   0.84367   0.82961   0.00000  Uiso   1.00
Br791  Br    0.91627   0.82007   0.64561   0.00000  Uiso   1.00
Br792  Br    0.74803   0.68200   0.85477   0.00000  Uiso   1.00
loop_
_geom_bond_atom_site_label_1
_geom_bond_atom_site_label_2
_geom_bond_distance
_geom_bond_site_symmetry_2
_ccdc_geom_bond_type
C1     C21     1.436   .     S
C1     O45     1.298   .     A
C1     O43     1.297   .     A
C2     C22     1.441   .     S
C2     O46     1.301   .     A
C2     O44     1.297   .     A
C3     Br53    1.936   .     S
C3     C11     1.408   .     A
C3     C5      1.427   .     A
C4     C6      1.428   .     A
C4     C12     1.409   .     A
C4     Br54    1.936   .     S
C5     S55     1.806   .     S
C5     N41     1.398   .     A
C6     N42     1.399   .     A
C6     S60     1.806   .     S
C7     Br65    1.912   .     S
C7     C9      1.404   .     A
C7     N41     1.366   .     A
C8     Br66    1.910   .     S
C8     C10     1.404   .     A
C8     N42     1.366   .     A
C9     H39     1.075   .     S
C9     C11     1.413   .     A
C10    C12     1.412   .     A
C10    H40     1.075   .     S
C11    C408    1.548   1_554 S
C12    C407    1.548   .     S
C13    C15     1.412   .     S
C13    O49     1.295   .     A
C13    O47     1.288   .     A
C14    O48     1.287   .     A
C14    C16     1.412   .     S
C14    O50     1.295   .     A
C15    C148    1.335   1_455 S
C15    H161    1.087   1_455 S
C16    C81     1.335   .     S
C16    H96     1.087   .     S
C17    H31     1.083   .     S
C17    C27     1.398   .     A
C17    C19     1.378   .     A
C18    H32     1.083   .     S
C18    C28     1.398   .     A
C18    C20     1.380   .     A
C19    C21     1.398   .     A
C19    H33     1.081   .     S
C20    H34     1.083   .     S
C20    C22     1.401   .     A
C21    C23     1.398   .     A
C22    C24     1.399   .     A
C23    H35     1.084   .     S
C23    C25     1.382   .     A
C24    H36     1.082   .     S
C24    C26     1.380   .     A
C25    C27     1.401   .     A
C25    H37     1.083   .     S
C26    C28     1.400   .     A
C26    H38     1.083   .     S
C27    C226    1.445   1_545 S
C28    C225    1.445   .     S
H29    C81     1.087   .     S
H30    C148    1.087   1_455 S
N41    Zn52    2.034   .     S
N42    Zn51    2.034   .     S
O43    Zn51    1.997   .     S
O44    Zn52    1.997   .     S
O45    Zn52    2.006   .     S
O46    Zn51    2.006   .     S
O47    Zn51    1.979   .     S
O48    Zn52    1.979   .     S
O49    Zn52    1.993   .     S
O50    Zn51    1.993   .     S
S55    O56     1.504   .     D
S55    O57     1.504   .     D
S55    O58     1.670   .     S
O58    H59     0.991   .     S
S60    O63     1.670   .     S
S60    O62     1.504   .     D
S60    O61     1.504   .     D
O63    H64     0.991   .     S
C67    C87     1.436   .     S
C67    O111    1.298   .     A
C67    O109    1.297   .     A
C68    C88     1.441   .     S
C68    O112    1.301   .     A
C68    O110    1.297   .     A
C69    Br119   1.936   .     S
C69    C77     1.408   .     A
C69    C71     1.427   .     A
C70    C72     1.428   .     A
C70    C78     1.409   .     A
C70    Br120   1.936   .     S
C71    S121    1.806   .     S
C71    N107    1.398   .     A
C72    N108    1.399   .     A
C72    S126    1.806   .     S
C73    Br131   1.912   .     S
C73    C75     1.404   .     A
C73    N107    1.366   .     A
C74    Br132   1.910   .     S
C74    C76     1.404   .     A
C74    N108    1.366   .     A
C75    H105    1.075   .     S
C75    C77     1.413   .     A
C76    C78     1.412   .     A
C76    H106    1.075   .     S
C77    C474    1.548   1_554 S
C78    C473    1.548   .     S
C79    C81     1.412   .     S
C79    O115    1.295   .     A
C79    O113    1.288   .     A
C80    O114    1.287   .     A
C80    C82     1.412   .     S
C80    O116    1.295   .     A
C82    C147    1.335   .     S
C82    H162    1.087   .     S
C83    H97     1.083   .     S
C83    C93     1.398   .     A
C83    C85     1.378   .     A
C84    H98     1.083   .     S
C84    C94     1.398   .     A
C84    C86     1.380   .     A
C85    C87     1.398   .     A
C85    H99     1.081   .     S
C86    H100    1.083   .     S
C86    C88     1.401   .     A
C87    C89     1.398   .     A
C88    C90     1.399   .     A
C89    H101    1.084   .     S
C89    C91     1.382   .     A
C90    H102    1.082   .     S
C90    C92     1.380   .     A
C91    C93     1.401   .     A
C91    H103    1.083   .     S
C92    C94     1.400   .     A
C92    H104    1.083   .     S
C93    C292    1.445   1_545 S
C94    C291    1.445   .     S
H95    C147    1.087   .     S
N107   Zn118   2.034   .     S
N108   Zn117   2.034   .     S
O109   Zn117   1.997   .     S
O110   Zn118   1.997   .     S
O111   Zn118   2.006   .     S
O112   Zn117   2.006   .     S
O113   Zn117   1.979   .     S
O114   Zn118   1.979   .     S
O115   Zn118   1.993   .     S
O116   Zn117   1.993   .     S
S121   O122    1.504   .     D
S121   O123    1.504   .     D
S121   O124    1.670   .     S
O124   H125    0.991   .     S
S126   O129    1.670   .     S
S126   O128    1.504   .     D
S126   O127    1.504   .     D
O129   H130    0.991   .     S
C133   C153    1.436   .     S
C133   O177    1.298   .     A
C133   O175    1.297   .     A
C134   C154    1.441   .     S
C134   O178    1.301   .     A
C134   O176    1.297   .     A
C135   Br185   1.936   .     S
C135   C143    1.408   .     A
C135   C137    1.427   .     A
C136   C138    1.428   .     A
C136   C144    1.409   .     A
C136   Br186   1.936   .     S
C137   S187    1.806   .     S
C137   N173    1.398   .     A
C138   N174    1.399   .     A
C138   S192    1.806   .     S
C139   Br197   1.912   .     S
C139   C141    1.404   .     A
C139   N173    1.366   .     A
C140   Br198   1.910   .     S
C140   C142    1.404   .     A
C140   N174    1.366   .     A
C141   H171    1.075   .     S
C141   C143    1.413   .     A
C142   C144    1.412   .     A
C142   H172    1.075   .     S
C143   C540    1.548   1_554 S
C144   C539    1.548   .     S
C145   C147    1.412   .     S
C145   O181    1.295   .     A
C145   O179    1.288   .     A
C146   O180    1.287   .     A
C146   C148    1.412   .     S
C146   O182    1.295   .     A
C148   C15     1.335   1_655 S
C148   H30     1.087   1_655 S
C149   H163    1.083   .     S
C149   C159    1.398   .     A
C149   C151    1.378   .     A
C150   H164    1.083   .     S
C150   C160    1.398   .     A
C150   C152    1.380   .     A
C151   C153    1.398   .     A
C151   H165    1.081   .     S
C152   H166    1.083   .     S
C152   C154    1.401   .     A
C153   C155    1.398   .     A
C154   C156    1.399   .     A
C155   H167    1.084   .     S
C155   C157    1.382   .     A
C156   H168    1.082   .     S
C156   C158    1.380   .     A
C157   C159    1.401   .     A
C157   H169    1.083   .     S
C158   C160    1.400   .     A
C158   H170    1.083   .     S
C159   C358    1.445   1_545 S
C160   C357    1.445   .     S
H161   C15     1.087   1_655 S
N173   Zn184   2.034   .     S
N174   Zn183   2.034   .     S
O175   Zn183   1.997   .     S
O176   Zn184   1.997   .     S
O177   Zn184   2.006   .     S
O178   Zn183   2.006   .     S
O179   Zn183   1.979   .     S
O180   Zn184   1.979   .     S
O181   Zn184   1.993   .     S
O182   Zn183   1.993   .     S
S187   O188    1.504   .     D
S187   O189    1.504   .     D
S187   O190    1.670   .     S
O190   H191    0.991   .     S
S192   O195    1.670   .     S
S192   O194    1.504   .     D
S192   O193    1.504   .     D
O195   H196    0.991   .     S
C199   C219    1.436   .     S
C199   O243    1.298   .     A
C199   O241    1.297   .     A
C200   C220    1.441   .     S
C200   O244    1.301   .     A
C200   O242    1.297   .     A
C201   Br251   1.936   .     S
C201   C209    1.408   .     A
C201   C203    1.427   .     A
C202   C204    1.428   .     A
C202   C210    1.409   .     A
C202   Br252   1.936   .     S
C203   S253    1.806   .     S
C203   N239    1.398   .     A
C204   N240    1.399   .     A
C204   S258    1.806   .     S
C205   Br263   1.912   .     S
C205   C207    1.404   .     A
C205   N239    1.366   .     A
C206   Br264   1.910   .     S
C206   C208    1.404   .     A
C206   N240    1.366   .     A
C207   H237    1.075   .     S
C207   C209    1.413   .     A
C208   C210    1.412   .     A
C208   H238    1.075   .     S
C209   C606    1.548   1_554 S
C210   C605    1.548   .     S
C211   C213    1.412   .     S
C211   O247    1.295   .     A
C211   O245    1.288   .     A
C212   O246    1.287   .     A
C212   C214    1.412   .     S
C212   O248    1.295   .     A
C213   C346    1.335   1_455 S
C213   H359    1.087   1_455 S
C214   C279    1.335   .     S
C214   H294    1.087   .     S
C215   H229    1.083   .     S
C215   C225    1.398   .     A
C215   C217    1.378   .     A
C216   H230    1.083   .     S
C216   C226    1.398   .     A
C216   C218    1.380   .     A
C217   C219    1.398   .     A
C217   H231    1.081   .     S
C218   H232    1.083   .     S
C218   C220    1.401   .     A
C219   C221    1.398   .     A
C220   C222    1.399   .     A
C221   H233    1.084   .     S
C221   C223    1.382   .     A
C222   H234    1.082   .     S
C222   C224    1.380   .     A
C223   C225    1.401   .     A
C223   H235    1.083   .     S
C224   C226    1.400   .     A
C224   H236    1.083   .     S
C226   C27     1.445   1_565 S
H227   C279    1.087   .     S
H228   C346    1.087   1_455 S
N239   Zn250   2.034   .     S
N240   Zn249   2.034   .     S
O241   Zn249   1.997   .     S
O242   Zn250   1.997   .     S
O243   Zn250   2.006   .     S
O244   Zn249   2.006   .     S
O245   Zn249   1.979   .     S
O246   Zn250   1.979   .     S
O247   Zn250   1.993   .     S
O248   Zn249   1.993   .     S
S253   O254    1.504   .     D
S253   O255    1.504   .     D
S253   O256    1.670   .     S
O256   H257    0.991   .     S
S258   O261    1.670   .     S
S258   O260    1.504   .     D
S258   O259    1.504   .     D
O261   H262    0.991   .     S
C265   C285    1.436   .     S
C265   O309    1.298   .     A
C265   O307    1.297   .     A
C266   C286    1.441   .     S
C266   O310    1.301   .     A
C266   O308    1.297   .     A
C267   Br317   1.936   .     S
C267   C275    1.408   .     A
C267   C269    1.427   .     A
C268   C270    1.428   .     A
C268   C276    1.409   .     A
C268   Br318   1.936   .     S
C269   S319    1.806   .     S
C269   N305    1.398   .     A
C270   N306    1.399   .     A
C270   S324    1.806   .     S
C271   Br329   1.912   .     S
C271   C273    1.404   .     A
C271   N305    1.366   .     A
C272   Br330   1.910   .     S
C272   C274    1.404   .     A
C272   N306    1.366   .     A
C273   H303    1.075   .     S
C273   C275    1.413   .     A
C274   C276    1.412   .     A
C274   H304    1.075   .     S
C275   C672    1.548   1_554 S
C276   C671    1.548   .     S
C277   C279    1.412   .     S
C277   O313    1.295   .     A
C277   O311    1.288   .     A
C278   O312    1.287   .     A
C278   C280    1.412   .     S
C278   O314    1.295   .     A
C280   C345    1.335   .     S
C280   H360    1.087   .     S
C281   H295    1.083   .     S
C281   C291    1.398   .     A
C281   C283    1.378   .     A
C282   H296    1.083   .     S
C282   C292    1.398   .     A
C282   C284    1.380   .     A
C283   C285    1.398   .     A
C283   H297    1.081   .     S
C284   H298    1.083   .     S
C284   C286    1.401   .     A
C285   C287    1.398   .     A
C286   C288    1.399   .     A
C287   H299    1.084   .     S
C287   C289    1.382   .     A
C288   H300    1.082   .     S
C288   C290    1.380   .     A
C289   C291    1.401   .     A
C289   H301    1.083   .     S
C290   C292    1.400   .     A
C290   H302    1.083   .     S
C292   C93     1.445   1_565 S
H293   C345    1.087   .     S
N305   Zn316   2.034   .     S
N306   Zn315   2.034   .     S
O307   Zn315   1.997   .     S
O308   Zn316   1.997   .     S
O309   Zn316   2.006   .     S
O310   Zn315   2.006   .     S
O311   Zn315   1.979   .     S
O312   Zn316   1.979   .     S
O313   Zn316   1.993   .     S
O314   Zn315   1.993   .     S
S319   O320    1.504   .     D
S319   O321    1.504   .     D
S319   O322    1.670   .     S
O322   H323    0.991   .     S
S324   O327    1.670   .     S
S324   O326    1.504   .     D
S324   O325    1.504   .     D
O327   H328    0.991   .     S
C331   C351    1.436   .     S
C331   O375    1.298   .     A
C331   O373    1.297   .     A
C332   C352    1.441   .     S
C332   O376    1.301   .     A
C332   O374    1.297   .     A
C333   Br383   1.936   .     S
C333   C341    1.408   .     A
C333   C335    1.427   .     A
C334   C336    1.428   .     A
C334   C342    1.409   .     A
C334   Br384   1.936   .     S
C335   S385    1.806   .     S
C335   N371    1.398   .     A
C336   N372    1.399   .     A
C336   S390    1.806   .     S
C337   Br395   1.912   .     S
C337   C339    1.404   .     A
C337   N371    1.366   .     A
C338   Br396   1.910   .     S
C338   C340    1.404   .     A
C338   N372    1.366   .     A
C339   H369    1.075   .     S
C339   C341    1.413   .     A
C340   C342    1.412   .     A
C340   H370    1.075   .     S
C341   C738    1.548   1_554 S
C342   C737    1.548   .     S
C343   C345    1.412   .     S
C343   O379    1.295   .     A
C343   O377    1.288   .     A
C344   O378    1.287   .     A
C344   C346    1.412   .     S
C344   O380    1.295   .     A
C346   C213    1.335   1_655 S
C346   H228    1.087   1_655 S
C347   H361    1.083   .     S
C347   C357    1.398   .     A
C347   C349    1.378   .     A
C348   H362    1.083   .     S
C348   C358    1.398   .     A
C348   C350    1.380   .     A
C349   C351    1.398   .     A
C349   H363    1.081   .     S
C350   H364    1.083   .     S
C350   C352    1.401   .     A
C351   C353    1.398   .     A
C352   C354    1.399   .     A
C353   H365    1.084   .     S
C353   C355    1.382   .     A
C354   H366    1.082   .     S
C354   C356    1.380   .     A
C355   C357    1.401   .     A
C355   H367    1.083   .     S
C356   C358    1.400   .     A
C356   H368    1.083   .     S
C358   C159    1.445   1_565 S
H359   C213    1.087   1_655 S
N371   Zn382   2.034   .     S
N372   Zn381   2.034   .     S
O373   Zn381   1.997   .     S
O374   Zn382   1.997   .     S
O375   Zn382   2.006   .     S
O376   Zn381   2.006   .     S
O377   Zn381   1.979   .     S
O378   Zn382   1.979   .     S
O379   Zn382   1.993   .     S
O380   Zn381   1.993   .     S
S385   O386    1.504   .     D
S385   O387    1.504   .     D
S385   O388    1.670   .     S
O388   H389    0.991   .     S
S390   O393    1.670   .     S
S390   O392    1.504   .     D
S390   O391    1.504   .     D
O393   H394    0.991   .     S
C397   C417    1.436   .     S
C397   O441    1.298   .     A
C397   O439    1.297   .     A
C398   C418    1.441   .     S
C398   O442    1.301   .     A
C398   O440    1.297   .     A
C399   Br449   1.936   .     S
C399   C407    1.408   .     A
C399   C401    1.427   .     A
C400   C402    1.428   .     A
C400   C408    1.409   .     A
C400   Br450   1.936   .     S
C401   S451    1.806   .     S
C401   N437    1.398   .     A
C402   N438    1.399   .     A
C402   S456    1.806   .     S
C403   Br461   1.912   .     S
C403   C405    1.404   .     A
C403   N437    1.366   .     A
C404   Br462   1.910   .     S
C404   C406    1.404   .     A
C404   N438    1.366   .     A
C405   H435    1.075   .     S
C405   C407    1.413   .     A
C406   C408    1.412   .     A
C406   H436    1.075   .     S
C408   C11     1.548   1_556 S
C409   C411    1.412   .     S
C409   O445    1.295   .     A
C409   O443    1.288   .     A
C410   O444    1.287   .     A
C410   C412    1.412   .     S
C410   O446    1.295   .     A
C411   C544    1.335   1_455 S
C411   H557    1.087   1_455 S
C412   C477    1.335   .     S
C412   H492    1.087   .     S
C413   H427    1.083   .     S
C413   C423    1.398   .     A
C413   C415    1.378   .     A
C414   H428    1.083   .     S
C414   C424    1.398   .     A
C414   C416    1.380   .     A
C415   C417    1.398   .     A
C415   H429    1.081   .     S
C416   H430    1.083   .     S
C416   C418    1.401   .     A
C417   C419    1.398   .     A
C418   C420    1.399   .     A
C419   H431    1.084   .     S
C419   C421    1.382   .     A
C420   H432    1.082   .     S
C420   C422    1.380   .     A
C421   C423    1.401   .     A
C421   H433    1.083   .     S
C422   C424    1.400   .     A
C422   H434    1.083   .     S
C423   C622    1.445   1_545 S
C424   C621    1.445   .     S
H425   C477    1.087   .     S
H426   C544    1.087   1_455 S
N437   Zn448   2.034   .     S
N438   Zn447   2.034   .     S
O439   Zn447   1.997   .     S
O440   Zn448   1.997   .     S
O441   Zn448   2.006   .     S
O442   Zn447   2.006   .     S
O443   Zn447   1.979   .     S
O444   Zn448   1.979   .     S
O445   Zn448   1.993   .     S
O446   Zn447   1.993   .     S
S451   O452    1.504   .     D
S451   O453    1.504   .     D
S451   O454    1.670   .     S
O454   H455    0.991   .     S
S456   O459    1.670   .     S
S456   O458    1.504   .     D
S456   O457    1.504   .     D
O459   H460    0.991   .     S
C463   C483    1.436   .     S
C463   O507    1.298   .     A
C463   O505    1.297   .     A
C464   C484    1.441   .     S
C464   O508    1.301   .     A
C464   O506    1.297   .     A
C465   Br515   1.936   .     S
C465   C473    1.408   .     A
C465   C467    1.427   .     A
C466   C468    1.428   .     A
C466   C474    1.409   .     A
C466   Br516   1.936   .     S
C467   S517    1.806   .     S
C467   N503    1.398   .     A
C468   N504    1.399   .     A
C468   S522    1.806   .     S
C469   Br527   1.912   .     S
C469   C471    1.404   .     A
C469   N503    1.366   .     A
C470   Br528   1.910   .     S
C470   C472    1.404   .     A
C470   N504    1.366   .     A
C471   H501    1.075   .     S
C471   C473    1.413   .     A
C472   C474    1.412   .     A
C472   H502    1.075   .     S
C474   C77     1.548   1_556 S
C475   C477    1.412   .     S
C475   O511    1.295   .     A
C475   O509    1.288   .     A
C476   O510    1.287   .     A
C476   C478    1.412   .     S
C476   O512    1.295   .     A
C478   C543    1.335   .     S
C478   H558    1.087   .     S
C479   H493    1.083   .     S
C479   C489    1.398   .     A
C479   C481    1.378   .     A
C480   H494    1.083   .     S
C480   C490    1.398   .     A
C480   C482    1.380   .     A
C481   C483    1.398   .     A
C481   H495    1.081   .     S
C482   H496    1.083   .     S
C482   C484    1.401   .     A
C483   C485    1.398   .     A
C484   C486    1.399   .     A
C485   H497    1.084   .     S
C485   C487    1.382   .     A
C486   H498    1.082   .     S
C486   C488    1.380   .     A
C487   C489    1.401   .     A
C487   H499    1.083   .     S
C488   C490    1.400   .     A
C488   H500    1.083   .     S
C489   C688    1.445   1_545 S
C490   C687    1.445   .     S
H491   C543    1.087   .     S
N503   Zn514   2.034   .     S
N504   Zn513   2.034   .     S
O505   Zn513   1.997   .     S
O506   Zn514   1.997   .     S
O507   Zn514   2.006   .     S
O508   Zn513   2.006   .     S
O509   Zn513   1.979   .     S
O510   Zn514   1.979   .     S
O511   Zn514   1.993   .     S
O512   Zn513   1.993   .     S
S517   O518    1.504   .     D
S517   O519    1.504   .     D
S517   O520    1.670   .     S
O520   H521    0.991   .     S
S522   O525    1.670   .     S
S522   O524    1.504   .     D
S522   O523    1.504   .     D
O525   H526    0.991   .     S
C529   C549    1.436   .     S
C529   O573    1.298   .     A
C529   O571    1.297   .     A
C530   C550    1.441   .     S
C530   O574    1.301   .     A
C530   O572    1.297   .     A
C531   Br581   1.936   .     S
C531   C539    1.408   .     A
C531   C533    1.427   .     A
C532   C534    1.428   .     A
C532   C540    1.409   .     A
C532   Br582   1.936   .     S
C533   S583    1.806   .     S
C533   N569    1.398   .     A
C534   N570    1.399   .     A
C534   S588    1.806   .     S
C535   Br593   1.912   .     S
C535   C537    1.404   .     A
C535   N569    1.366   .     A
C536   Br594   1.910   .     S
C536   C538    1.404   .     A
C536   N570    1.366   .     A
C537   H567    1.075   .     S
C537   C539    1.413   .     A
C538   C540    1.412   .     A
C538   H568    1.075   .     S
C540   C143    1.548   1_556 S
C541   C543    1.412   .     S
C541   O577    1.295   .     A
C541   O575    1.288   .     A
C542   O576    1.287   .     A
C542   C544    1.412   .     S
C542   O578    1.295   .     A
C544   C411    1.335   1_655 S
C544   H426    1.087   1_655 S
C545   H559    1.083   .     S
C545   C555    1.398   .     A
C545   C547    1.378   .     A
C546   H560    1.083   .     S
C546   C556    1.398   .     A
C546   C548    1.380   .     A
C547   C549    1.398   .     A
C547   H561    1.081   .     S
C548   H562    1.083   .     S
C548   C550    1.401   .     A
C549   C551    1.398   .     A
C550   C552    1.399   .     A
C551   H563    1.084   .     S
C551   C553    1.382   .     A
C552   H564    1.082   .     S
C552   C554    1.380   .     A
C553   C555    1.401   .     A
C553   H565    1.083   .     S
C554   C556    1.400   .     A
C554   H566    1.083   .     S
C555   C754    1.445   1_545 S
C556   C753    1.445   .     S
H557   C411    1.087   1_655 S
N569   Zn580   2.034   .     S
N570   Zn579   2.034   .     S
O571   Zn579   1.997   .     S
O572   Zn580   1.997   .     S
O573   Zn580   2.006   .     S
O574   Zn579   2.006   .     S
O575   Zn579   1.979   .     S
O576   Zn580   1.979   .     S
O577   Zn580   1.993   .     S
O578   Zn579   1.993   .     S
S583   O584    1.504   .     D
S583   O585    1.504   .     D
S583   O586    1.670   .     S
O586   H587    0.991   .     S
S588   O591    1.670   .     S
S588   O590    1.504   .     D
S588   O589    1.504   .     D
O591   H592    0.991   .     S
C595   C615    1.436   .     S
C595   O639    1.298   .     A
C595   O637    1.297   .     A
C596   C616    1.441   .     S
C596   O640    1.301   .     A
C596   O638    1.297   .     A
C597   Br647   1.936   .     S
C597   C605    1.408   .     A
C597   C599    1.427   .     A
C598   C600    1.428   .     A
C598   C606    1.409   .     A
C598   Br648   1.936   .     S
C599   S649    1.806   .     S
C599   N635    1.398   .     A
C600   N636    1.399   .     A
C600   S654    1.806   .     S
C601   Br659   1.912   .     S
C601   C603    1.404   .     A
C601   N635    1.366   .     A
C602   Br660   1.910   .     S
C602   C604    1.404   .     A
C602   N636    1.366   .     A
C603   H633    1.075   .     S
C603   C605    1.413   .     A
C604   C606    1.412   .     A
C604   H634    1.075   .     S
C606   C209    1.548   1_556 S
C607   C609    1.412   .     S
C607   O643    1.295   .     A
C607   O641    1.288   .     A
C608   O642    1.287   .     A
C608   C610    1.412   .     S
C608   O644    1.295   .     A
C609   C742    1.335   1_455 S
C609   H755    1.087   1_455 S
C610   C675    1.335   .     S
C610   H690    1.087   .     S
C611   H625    1.083   .     S
C611   C621    1.398   .     A
C611   C613    1.378   .     A
C612   H626    1.083   .     S
C612   C622    1.398   .     A
C612   C614    1.380   .     A
C613   C615    1.398   .     A
C613   H627    1.081   .     S
C614   H628    1.083   .     S
C614   C616    1.401   .     A
C615   C617    1.398   .     A
C616   C618    1.399   .     A
C617   H629    1.084   .     S
C617   C619    1.382   .     A
C618   H630    1.082   .     S
C618   C620    1.380   .     A
C619   C621    1.401   .     A
C619   H631    1.083   .     S
C620   C622    1.400   .     A
C620   H632    1.083   .     S
C622   C423    1.445   1_565 S
H623   C675    1.087   .     S
H624   C742    1.087   1_455 S
N635   Zn646   2.034   .     S
N636   Zn645   2.034   .     S
O637   Zn645   1.997   .     S
O638   Zn646   1.997   .     S
O639   Zn646   2.006   .     S
O640   Zn645   2.006   .     S
O641   Zn645   1.979   .     S
O642   Zn646   1.979   .     S
O643   Zn646   1.993   .     S
O644   Zn645   1.993   .     S
S649   O650    1.504   .     D
S649   O651    1.504   .     D
S649   O652    1.670   .     S
O652   H653    0.991   .     S
S654   O657    1.670   .     S
S654   O656    1.504   .     D
S654   O655    1.504   .     D
O657   H658    0.991   .     S
C661   C681    1.436   .     S
C661   O705    1.298   .     A
C661   O703    1.297   .     A
C662   C682    1.441   .     S
C662   O706    1.301   .     A
C662   O704    1.297   .     A
C663   Br713   1.936   .     S
C663   C671    1.408   .     A
C663   C665    1.427   .     A
C664   C666    1.428   .     A
C664   C672    1.409   .     A
C664   Br714   1.936   .     S
C665   S715    1.806   .     S
C665   N701    1.398   .     A
C666   N702    1.399   .     A
C666   S720    1.806   .     S
C667   Br725   1.912   .     S
C667   C669    1.404   .     A
C667   N701    1.366   .     A
C668   Br726   1.910   .     S
C668   C670    1.404   .     A
C668   N702    1.366   .     A
C669   H699    1.075   .     S
C669   C671    1.413   .     A
C670   C672    1.412   .     A
C670   H700    1.075   .     S
C672   C275    1.548   1_556 S
C673   C675    1.412   .     S
C673   O709    1.295   .     A
C673   O707    1.288   .     A
C674   O708    1.287   .     A
C674   C676    1.412   .     S
C674   O710    1.295   .     A
C676   C741    1.335   .     S
C676   H756    1.087   .     S
C677   H691    1.083   .     S
C677   C687    1.398   .     A
C677   C679    1.378   .     A
C678   H692    1.083   .     S
C678   C688    1.398   .     A
C678   C680    1.380   .     A
C679   C681    1.398   .     A
C679   H693    1.081   .     S
C680   H694    1.083   .     S
C680   C682    1.401   .     A
C681   C683    1.398   .     A
C682   C684    1.399   .     A
C683   H695    1.084   .     S
C683   C685    1.382   .     A
C684   H696    1.082   .     S
C684   C686    1.380   .     A
C685   C687    1.401   .     A
C685   H697    1.083   .     S
C686   C688    1.400   .     A
C686   H698    1.083   .     S
C688   C489    1.445   1_565 S
H689   C741    1.087   .     S
N701   Zn712   2.034   .     S
N702   Zn711   2.034   .     S
O703   Zn711   1.997   .     S
O704   Zn712   1.997   .     S
O705   Zn712   2.006   .     S
O706   Zn711   2.006   .     S
O707   Zn711   1.979   .     S
O708   Zn712   1.979   .     S
O709   Zn712   1.993   .     S
O710   Zn711   1.993   .     S
S715   O716    1.504   .     D
S715   O717    1.504   .     D
S715   O718    1.670   .     S
O718   H719    0.991   .     S
S720   O723    1.670   .     S
S720   O722    1.504   .     D
S720   O721    1.504   .     D
O723   H724    0.991   .     S
C727   C747    1.436   .     S
C727   O771    1.298   .     A
C727   O769    1.297   .     A
C728   C748    1.441   .     S
C728   O772    1.301   .     A
C728   O770    1.297   .     A
C729   Br779   1.936   .     S
C729   C737    1.408   .     A
C729   C731    1.427   .     A
C730   C732    1.428   .     A
C730   C738    1.409   .     A
C730   Br780   1.936   .     S
C731   S781    1.806   .     S
C731   N767    1.398   .     A
C732   N768    1.399   .     A
C732   S786    1.806   .     S
C733   Br791   1.912   .     S
C733   C735    1.404   .     A
C733   N767    1.366   .     A
C734   Br792   1.910   .     S
C734   C736    1.404   .     A
C734   N768    1.366   .     A
C735   H765    1.075   .     S
C735   C737    1.413   .     A
C736   C738    1.412   .     A
C736   H766    1.075   .     S
C738   C341    1.548   1_556 S
C739   C741    1.412   .     S
C739   O775    1.295   .     A
C739   O773    1.288   .     A
C740   O774    1.287   .     A
C740   C742    1.412   .     S
C740   O776    1.295   .     A
C742   C609    1.335   1_655 S
C742   H624    1.087   1_655 S
C743   H757    1.083   .     S
C743   C753    1.398   .     A
C743   C745    1.378   .     A
C744   H758    1.083   .     S
C744   C754    1.398   .     A
C744   C746    1.380   .     A
C745   C747    1.398   .     A
C745   H759    1.081   .     S
C746   H760    1.083   .     S
C746   C748    1.401   .     A
C747   C749    1.398   .     A
C748   C750    1.399   .     A
C749   H761    1.084   .     S
C749   C751    1.382   .     A
C750   H762    1.082   .     S
C750   C752    1.380   .     A
C751   C753    1.401   .     A
C751   H763    1.083   .     S
C752   C754    1.400   .     A
C752   H764    1.083   .     S
C754   C555    1.445   1_565 S
H755   C609    1.087   1_655 S
N767   Zn778   2.034   .     S
N768   Zn777   2.034   .     S
O769   Zn777   1.997   .     S
O770   Zn778   1.997   .     S
O771   Zn778   2.006   .     S
O772   Zn777   2.006   .     S
O773   Zn777   1.979   .     S
O774   Zn778   1.979   .     S
O775   Zn778   1.993   .     S
O776   Zn777   1.993   .     S
S781   O782    1.504   .     D
S781   O783    1.504   .     D
S781   O784    1.670   .     S
O784   H785    0.991   .     S
S786   O789    1.670   .     S
S786   O788    1.504   .     D
S786   O787    1.504   .     D
O789   H790    0.991   .     S
