data_str_m2_o10_o16_pcu_sym.95
_audit_creation_date              2020-01-03
_audit_creation_method            'Materials Studio'
_symmetry_space_group_name_H-M    'P1'
_symmetry_Int_Tables_number       1
_symmetry_cell_setting            triclinic
loop_
_symmetry_equiv_pos_as_xyz
  x,y,z
_cell_length_a                    22.2732
_cell_length_b                    26.0833
_cell_length_c                    26.8091
_cell_angle_alpha                 94.0224
_cell_angle_beta                  77.1463
_cell_angle_gamma                 103.1700
loop_
_atom_site_label
_atom_site_type_symbol
_atom_site_fract_x
_atom_site_fract_y
_atom_site_fract_z
_atom_site_U_iso_or_equiv
_atom_site_adp_type
_atom_site_occupancy
O1     O     0.12797   0.23807   0.24633   0.00000  Uiso   1.00
O2     O     0.22858   0.24755   0.25587   0.00000  Uiso   1.00
C3     C     0.18178   0.26674   0.25151   0.00000  Uiso   1.00
O4     O     0.09181   0.15960   0.31840   0.00000  Uiso   1.00
O5     O     0.19242   0.16908   0.32793   0.00000  Uiso   1.00
C6     C     0.13297   0.16575   0.34728   0.00000  Uiso   1.00
Cu7    Cu    0.10710   0.16105   0.24436   0.00000  Uiso   1.00
Cu8    Cu    0.22623   0.17228   0.25565   0.00000  Uiso   1.00
O9     O     0.10476   0.08578   0.24414   0.00000  Uiso   1.00
O10    O     0.20536   0.09526   0.25367   0.00000  Uiso   1.00
O11    O     0.14092   0.16425   0.17207   0.00000  Uiso   1.00
O12    O     0.24152   0.17373   0.18161   0.00000  Uiso   1.00
C13    C     0.15155   0.06659   0.24848   0.00000  Uiso   1.00
C14    C     0.20101   0.17079   0.15278   0.00000  Uiso   1.00
C15    C     0.29281   0.22774   0.02511   0.00000  Uiso   1.00
H16    H     0.30062   0.26182   0.43271   0.00000  Uiso   1.00
H17    H     0.00490   0.25227   0.00843   0.00000  Uiso   1.00
C18    C     0.22244   0.17950   0.09726   0.00000  Uiso   1.00
C19    C     0.05086   0.13569   0.42430   0.00000  Uiso   1.00
C20    C     0.03361   0.12371   0.47586   0.00000  Uiso   1.00
C21    C     0.07747   0.13777   0.00693   0.00000  Uiso   1.00
C22    C     0.13924   0.16731   0.48759   0.00000  Uiso   1.00
C23    C     0.15435   0.18405   0.43614   0.00000  Uiso   1.00
C24    C     0.18650   0.18107   0.01745   0.00000  Uiso   1.00
C25    C     0.24554   0.21425   0.49672   0.00000  Uiso   1.00
C26    C     0.25665   0.23468   0.44811   0.00000  Uiso   1.00
C27    C     0.21142   0.22063   0.41865   0.00000  Uiso   1.00
C28    C     0.17700   0.16308   0.06733   0.00000  Uiso   1.00
C29    C     0.28216   0.21054   0.07517   0.00000  Uiso   1.00
C30    C     0.11181   0.16396   0.40345   0.00000  Uiso   1.00
H31    H     0.13358   0.13700   0.08466   0.00000  Uiso   1.00
H32    H     0.01718   0.12096   0.40030   0.00000  Uiso   1.00
H33    H     0.06096   0.12552   0.04601   0.00000  Uiso   1.00
H34    H     0.31982   0.10160   0.49154   0.00000  Uiso   1.00
H35    H     0.22148   0.23970   0.38228   0.00000  Uiso   1.00
C36    C     0.19031   0.32270   0.25224   0.00000  Uiso   1.00
H37    H     0.23586   0.01317   0.25653   0.00000  Uiso   1.00
C38    C     0.14304   0.01063   0.24772   0.00000  Uiso   1.00
H39    H     0.09749   0.32015   0.24342   0.00000  Uiso   1.00
N40    N     0.31574   0.18074   0.26416   0.00000  Uiso   1.00
H41    H     0.00369   0.20602   0.28950   0.00000  Uiso   1.00
N42    N     0.01759   0.15259   0.23584   0.00000  Uiso   1.00
H43    H     0.32957   0.12720   0.21061   0.00000  Uiso   1.00
N44    N     0.33160   0.22662   0.10306   0.00000  Uiso   1.00
O45    O     0.02057   0.19117   0.12048   0.00000  Uiso   1.00
O46    O     0.03020   0.27519   0.10094   0.00000  Uiso   1.00
O47    O     0.46131   0.23807   0.24633   0.00000  Uiso   1.00
O48    O     0.56191   0.24755   0.25587   0.00000  Uiso   1.00
C49    C     0.51512   0.26674   0.25151   0.00000  Uiso   1.00
O50    O     0.42515   0.15960   0.31840   0.00000  Uiso   1.00
O51    O     0.52575   0.16908   0.32793   0.00000  Uiso   1.00
C52    C     0.46631   0.16575   0.34728   0.00000  Uiso   1.00
Cu53   Cu    0.44043   0.16105   0.24436   0.00000  Uiso   1.00
Cu54   Cu    0.55957   0.17228   0.25565   0.00000  Uiso   1.00
O55    O     0.43809   0.08578   0.24414   0.00000  Uiso   1.00
O56    O     0.53869   0.09526   0.25367   0.00000  Uiso   1.00
O57    O     0.47425   0.16425   0.17207   0.00000  Uiso   1.00
O58    O     0.57485   0.17373   0.18161   0.00000  Uiso   1.00
C59    C     0.48489   0.06659   0.24848   0.00000  Uiso   1.00
C60    C     0.53434   0.17079   0.15278   0.00000  Uiso   1.00
C61    C     0.62614   0.22774   0.02511   0.00000  Uiso   1.00
H62    H     0.63395   0.26182   0.43271   0.00000  Uiso   1.00
H63    H     0.33823   0.25227   0.00843   0.00000  Uiso   1.00
C64    C     0.55577   0.17950   0.09726   0.00000  Uiso   1.00
C65    C     0.38420   0.13569   0.42430   0.00000  Uiso   1.00
C66    C     0.36695   0.12371   0.47586   0.00000  Uiso   1.00
C67    C     0.41081   0.13777   0.00693   0.00000  Uiso   1.00
C68    C     0.47258   0.16731   0.48759   0.00000  Uiso   1.00
C69    C     0.48769   0.18405   0.43614   0.00000  Uiso   1.00
C70    C     0.51983   0.18107   0.01745   0.00000  Uiso   1.00
C71    C     0.57887   0.21425   0.49672   0.00000  Uiso   1.00
C72    C     0.58999   0.23468   0.44811   0.00000  Uiso   1.00
C73    C     0.54475   0.22063   0.41865   0.00000  Uiso   1.00
C74    C     0.51033   0.16308   0.06733   0.00000  Uiso   1.00
C75    C     0.61549   0.21054   0.07517   0.00000  Uiso   1.00
C76    C     0.44515   0.16396   0.40345   0.00000  Uiso   1.00
H77    H     0.46691   0.13700   0.08466   0.00000  Uiso   1.00
H78    H     0.35051   0.12096   0.40030   0.00000  Uiso   1.00
H79    H     0.39429   0.12552   0.04601   0.00000  Uiso   1.00
H80    H     0.65315   0.10160   0.49154   0.00000  Uiso   1.00
H81    H     0.55482   0.23970   0.38228   0.00000  Uiso   1.00
C82    C     0.52364   0.32270   0.25224   0.00000  Uiso   1.00
H83    H     0.56920   0.01317   0.25653   0.00000  Uiso   1.00
C84    C     0.47637   0.01063   0.24772   0.00000  Uiso   1.00
H85    H     0.43082   0.32015   0.24342   0.00000  Uiso   1.00
N86    N     0.64908   0.18074   0.26416   0.00000  Uiso   1.00
H87    H     0.33703   0.20602   0.28950   0.00000  Uiso   1.00
N88    N     0.35092   0.15259   0.23584   0.00000  Uiso   1.00
H89    H     0.66290   0.12720   0.21061   0.00000  Uiso   1.00
N90    N     0.66494   0.22662   0.10306   0.00000  Uiso   1.00
O91    O     0.35390   0.19117   0.12048   0.00000  Uiso   1.00
O92    O     0.36353   0.27519   0.10094   0.00000  Uiso   1.00
O93    O     0.79464   0.23807   0.24633   0.00000  Uiso   1.00
O94    O     0.89524   0.24755   0.25587   0.00000  Uiso   1.00
C95    C     0.84845   0.26674   0.25151   0.00000  Uiso   1.00
O96    O     0.75848   0.15960   0.31840   0.00000  Uiso   1.00
O97    O     0.85908   0.16908   0.32793   0.00000  Uiso   1.00
C98    C     0.79964   0.16575   0.34728   0.00000  Uiso   1.00
Cu99   Cu    0.77377   0.16105   0.24436   0.00000  Uiso   1.00
Cu100  Cu    0.89290   0.17228   0.25565   0.00000  Uiso   1.00
O101   O     0.77142   0.08578   0.24414   0.00000  Uiso   1.00
O102   O     0.87203   0.09526   0.25367   0.00000  Uiso   1.00
O103   O     0.80758   0.16425   0.17207   0.00000  Uiso   1.00
O104   O     0.90819   0.17373   0.18161   0.00000  Uiso   1.00
C105   C     0.81822   0.06659   0.24848   0.00000  Uiso   1.00
C106   C     0.86767   0.17079   0.15278   0.00000  Uiso   1.00
C107   C     0.95948   0.22774   0.02511   0.00000  Uiso   1.00
H108   H     0.96729   0.26182   0.43271   0.00000  Uiso   1.00
H109   H     0.67156   0.25227   0.00843   0.00000  Uiso   1.00
C110   C     0.88910   0.17950   0.09726   0.00000  Uiso   1.00
C111   C     0.71753   0.13569   0.42430   0.00000  Uiso   1.00
C112   C     0.70028   0.12371   0.47586   0.00000  Uiso   1.00
C113   C     0.74414   0.13777   0.00693   0.00000  Uiso   1.00
C114   C     0.80591   0.16731   0.48759   0.00000  Uiso   1.00
C115   C     0.82102   0.18405   0.43614   0.00000  Uiso   1.00
C116   C     0.85317   0.18107   0.01745   0.00000  Uiso   1.00
C117   C     0.91221   0.21425   0.49672   0.00000  Uiso   1.00
C118   C     0.92332   0.23468   0.44811   0.00000  Uiso   1.00
C119   C     0.87809   0.22063   0.41865   0.00000  Uiso   1.00
C120   C     0.84366   0.16308   0.06733   0.00000  Uiso   1.00
C121   C     0.94883   0.21054   0.07517   0.00000  Uiso   1.00
C122   C     0.77848   0.16396   0.40345   0.00000  Uiso   1.00
H123   H     0.80025   0.13700   0.08466   0.00000  Uiso   1.00
H124   H     0.68384   0.12096   0.40030   0.00000  Uiso   1.00
H125   H     0.72763   0.12552   0.04601   0.00000  Uiso   1.00
H126   H     0.98649   0.10160   0.49154   0.00000  Uiso   1.00
H127   H     0.88815   0.23970   0.38228   0.00000  Uiso   1.00
C128   C     0.85698   0.32270   0.25224   0.00000  Uiso   1.00
H129   H     0.90253   0.01317   0.25653   0.00000  Uiso   1.00
C130   C     0.80971   0.01063   0.24772   0.00000  Uiso   1.00
H131   H     0.76416   0.32015   0.24342   0.00000  Uiso   1.00
N132   N     0.98241   0.18074   0.26416   0.00000  Uiso   1.00
H133   H     0.67036   0.20602   0.28950   0.00000  Uiso   1.00
N134   N     0.68426   0.15259   0.23584   0.00000  Uiso   1.00
H135   H     0.99624   0.12720   0.21061   0.00000  Uiso   1.00
N136   N     0.99827   0.22662   0.10306   0.00000  Uiso   1.00
O137   O     0.68723   0.19117   0.12048   0.00000  Uiso   1.00
O138   O     0.69687   0.27519   0.10094   0.00000  Uiso   1.00
O139   O     0.12797   0.57141   0.24633   0.00000  Uiso   1.00
O140   O     0.22858   0.58089   0.25587   0.00000  Uiso   1.00
C141   C     0.18178   0.60007   0.25151   0.00000  Uiso   1.00
O142   O     0.09181   0.49293   0.31840   0.00000  Uiso   1.00
O143   O     0.19242   0.50241   0.32793   0.00000  Uiso   1.00
C144   C     0.13297   0.49909   0.34728   0.00000  Uiso   1.00
Cu145  Cu    0.10710   0.49439   0.24436   0.00000  Uiso   1.00
Cu146  Cu    0.22623   0.50561   0.25565   0.00000  Uiso   1.00
O147   O     0.10476   0.41911   0.24414   0.00000  Uiso   1.00
O148   O     0.20536   0.42859   0.25367   0.00000  Uiso   1.00
O149   O     0.14092   0.49759   0.17207   0.00000  Uiso   1.00
O150   O     0.24152   0.50707   0.18161   0.00000  Uiso   1.00
C151   C     0.15155   0.39992   0.24848   0.00000  Uiso   1.00
C152   C     0.20101   0.50412   0.15278   0.00000  Uiso   1.00
C153   C     0.29281   0.56107   0.02511   0.00000  Uiso   1.00
H154   H     0.30062   0.59515   0.43271   0.00000  Uiso   1.00
H155   H     0.00490   0.58560   0.00843   0.00000  Uiso   1.00
C156   C     0.22244   0.51284   0.09726   0.00000  Uiso   1.00
C157   C     0.05086   0.46903   0.42430   0.00000  Uiso   1.00
C158   C     0.03361   0.45705   0.47586   0.00000  Uiso   1.00
C159   C     0.07747   0.47110   0.00693   0.00000  Uiso   1.00
C160   C     0.13924   0.50065   0.48759   0.00000  Uiso   1.00
C161   C     0.15435   0.51738   0.43614   0.00000  Uiso   1.00
C162   C     0.18650   0.51441   0.01745   0.00000  Uiso   1.00
C163   C     0.24554   0.54759   0.49672   0.00000  Uiso   1.00
C164   C     0.25665   0.56801   0.44811   0.00000  Uiso   1.00
C165   C     0.21142   0.55397   0.41865   0.00000  Uiso   1.00
C166   C     0.17700   0.49641   0.06733   0.00000  Uiso   1.00
C167   C     0.28216   0.54388   0.07517   0.00000  Uiso   1.00
C168   C     0.11181   0.49729   0.40345   0.00000  Uiso   1.00
H169   H     0.13358   0.47034   0.08466   0.00000  Uiso   1.00
H170   H     0.01718   0.45430   0.40030   0.00000  Uiso   1.00
H171   H     0.06096   0.45885   0.04601   0.00000  Uiso   1.00
H172   H     0.31982   0.43494   0.49154   0.00000  Uiso   1.00
H173   H     0.22148   0.57303   0.38228   0.00000  Uiso   1.00
C174   C     0.19031   0.65603   0.25224   0.00000  Uiso   1.00
H175   H     0.23586   0.34651   0.25653   0.00000  Uiso   1.00
C176   C     0.14304   0.34397   0.24772   0.00000  Uiso   1.00
H177   H     0.09749   0.65349   0.24342   0.00000  Uiso   1.00
N178   N     0.31574   0.51407   0.26416   0.00000  Uiso   1.00
H179   H     0.00369   0.53936   0.28950   0.00000  Uiso   1.00
N180   N     0.01759   0.48593   0.23584   0.00000  Uiso   1.00
H181   H     0.32957   0.46053   0.21061   0.00000  Uiso   1.00
N182   N     0.33160   0.55996   0.10306   0.00000  Uiso   1.00
O183   O     0.02057   0.52450   0.12048   0.00000  Uiso   1.00
O184   O     0.03020   0.60852   0.10094   0.00000  Uiso   1.00
O185   O     0.46131   0.57141   0.24633   0.00000  Uiso   1.00
O186   O     0.56191   0.58089   0.25587   0.00000  Uiso   1.00
C187   C     0.51512   0.60007   0.25151   0.00000  Uiso   1.00
O188   O     0.42515   0.49293   0.31840   0.00000  Uiso   1.00
O189   O     0.52575   0.50241   0.32793   0.00000  Uiso   1.00
C190   C     0.46631   0.49909   0.34728   0.00000  Uiso   1.00
Cu191  Cu    0.44043   0.49439   0.24436   0.00000  Uiso   1.00
Cu192  Cu    0.55957   0.50561   0.25565   0.00000  Uiso   1.00
O193   O     0.43809   0.41911   0.24414   0.00000  Uiso   1.00
O194   O     0.53869   0.42859   0.25367   0.00000  Uiso   1.00
O195   O     0.47425   0.49759   0.17207   0.00000  Uiso   1.00
O196   O     0.57485   0.50707   0.18161   0.00000  Uiso   1.00
C197   C     0.48489   0.39992   0.24848   0.00000  Uiso   1.00
C198   C     0.53434   0.50412   0.15278   0.00000  Uiso   1.00
C199   C     0.62614   0.56107   0.02511   0.00000  Uiso   1.00
H200   H     0.63395   0.59515   0.43271   0.00000  Uiso   1.00
H201   H     0.33823   0.58560   0.00843   0.00000  Uiso   1.00
C202   C     0.55577   0.51284   0.09726   0.00000  Uiso   1.00
C203   C     0.38420   0.46903   0.42430   0.00000  Uiso   1.00
C204   C     0.36695   0.45705   0.47586   0.00000  Uiso   1.00
C205   C     0.41081   0.47110   0.00693   0.00000  Uiso   1.00
C206   C     0.47258   0.50065   0.48759   0.00000  Uiso   1.00
C207   C     0.48769   0.51738   0.43614   0.00000  Uiso   1.00
C208   C     0.51983   0.51441   0.01745   0.00000  Uiso   1.00
C209   C     0.57887   0.54759   0.49672   0.00000  Uiso   1.00
C210   C     0.58999   0.56801   0.44811   0.00000  Uiso   1.00
C211   C     0.54475   0.55397   0.41865   0.00000  Uiso   1.00
C212   C     0.51033   0.49641   0.06733   0.00000  Uiso   1.00
C213   C     0.61549   0.54388   0.07517   0.00000  Uiso   1.00
C214   C     0.44515   0.49729   0.40345   0.00000  Uiso   1.00
H215   H     0.46691   0.47034   0.08466   0.00000  Uiso   1.00
H216   H     0.35051   0.45430   0.40030   0.00000  Uiso   1.00
H217   H     0.39429   0.45885   0.04601   0.00000  Uiso   1.00
H218   H     0.65315   0.43494   0.49154   0.00000  Uiso   1.00
H219   H     0.55482   0.57303   0.38228   0.00000  Uiso   1.00
C220   C     0.52364   0.65603   0.25224   0.00000  Uiso   1.00
H221   H     0.56920   0.34651   0.25653   0.00000  Uiso   1.00
C222   C     0.47637   0.34397   0.24772   0.00000  Uiso   1.00
H223   H     0.43082   0.65349   0.24342   0.00000  Uiso   1.00
N224   N     0.64908   0.51407   0.26416   0.00000  Uiso   1.00
H225   H     0.33703   0.53936   0.28950   0.00000  Uiso   1.00
N226   N     0.35092   0.48593   0.23584   0.00000  Uiso   1.00
H227   H     0.66290   0.46053   0.21061   0.00000  Uiso   1.00
N228   N     0.66494   0.55996   0.10306   0.00000  Uiso   1.00
O229   O     0.35390   0.52450   0.12048   0.00000  Uiso   1.00
O230   O     0.36353   0.60852   0.10094   0.00000  Uiso   1.00
O231   O     0.79464   0.57141   0.24633   0.00000  Uiso   1.00
O232   O     0.89524   0.58089   0.25587   0.00000  Uiso   1.00
C233   C     0.84845   0.60007   0.25151   0.00000  Uiso   1.00
O234   O     0.75848   0.49293   0.31840   0.00000  Uiso   1.00
O235   O     0.85908   0.50241   0.32793   0.00000  Uiso   1.00
C236   C     0.79964   0.49909   0.34728   0.00000  Uiso   1.00
Cu237  Cu    0.77377   0.49439   0.24436   0.00000  Uiso   1.00
Cu238  Cu    0.89290   0.50561   0.25565   0.00000  Uiso   1.00
O239   O     0.77142   0.41911   0.24414   0.00000  Uiso   1.00
O240   O     0.87203   0.42859   0.25367   0.00000  Uiso   1.00
O241   O     0.80758   0.49759   0.17207   0.00000  Uiso   1.00
O242   O     0.90819   0.50707   0.18161   0.00000  Uiso   1.00
C243   C     0.81822   0.39992   0.24848   0.00000  Uiso   1.00
C244   C     0.86767   0.50412   0.15278   0.00000  Uiso   1.00
C245   C     0.95948   0.56107   0.02511   0.00000  Uiso   1.00
H246   H     0.96729   0.59515   0.43271   0.00000  Uiso   1.00
H247   H     0.67156   0.58560   0.00843   0.00000  Uiso   1.00
C248   C     0.88910   0.51284   0.09726   0.00000  Uiso   1.00
C249   C     0.71753   0.46903   0.42430   0.00000  Uiso   1.00
C250   C     0.70028   0.45705   0.47586   0.00000  Uiso   1.00
C251   C     0.74414   0.47110   0.00693   0.00000  Uiso   1.00
C252   C     0.80591   0.50065   0.48759   0.00000  Uiso   1.00
C253   C     0.82102   0.51738   0.43614   0.00000  Uiso   1.00
C254   C     0.85317   0.51441   0.01745   0.00000  Uiso   1.00
C255   C     0.91221   0.54759   0.49672   0.00000  Uiso   1.00
C256   C     0.92332   0.56801   0.44811   0.00000  Uiso   1.00
C257   C     0.87809   0.55397   0.41865   0.00000  Uiso   1.00
C258   C     0.84366   0.49641   0.06733   0.00000  Uiso   1.00
C259   C     0.94883   0.54388   0.07517   0.00000  Uiso   1.00
C260   C     0.77848   0.49729   0.40345   0.00000  Uiso   1.00
H261   H     0.80025   0.47034   0.08466   0.00000  Uiso   1.00
H262   H     0.68384   0.45430   0.40030   0.00000  Uiso   1.00
H263   H     0.72763   0.45885   0.04601   0.00000  Uiso   1.00
H264   H     0.98649   0.43494   0.49154   0.00000  Uiso   1.00
H265   H     0.88815   0.57303   0.38228   0.00000  Uiso   1.00
C266   C     0.85698   0.65603   0.25224   0.00000  Uiso   1.00
H267   H     0.90253   0.34651   0.25653   0.00000  Uiso   1.00
C268   C     0.80971   0.34397   0.24772   0.00000  Uiso   1.00
H269   H     0.76416   0.65349   0.24342   0.00000  Uiso   1.00
N270   N     0.98241   0.51407   0.26416   0.00000  Uiso   1.00
H271   H     0.67036   0.53936   0.28950   0.00000  Uiso   1.00
N272   N     0.68426   0.48593   0.23584   0.00000  Uiso   1.00
H273   H     0.99624   0.46053   0.21061   0.00000  Uiso   1.00
N274   N     0.99827   0.55996   0.10306   0.00000  Uiso   1.00
O275   O     0.68723   0.52450   0.12048   0.00000  Uiso   1.00
O276   O     0.69687   0.60852   0.10094   0.00000  Uiso   1.00
O277   O     0.12797   0.90474   0.24633   0.00000  Uiso   1.00
O278   O     0.22858   0.91422   0.25587   0.00000  Uiso   1.00
C279   C     0.18178   0.93341   0.25151   0.00000  Uiso   1.00
O280   O     0.09181   0.82627   0.31840   0.00000  Uiso   1.00
O281   O     0.19242   0.83575   0.32793   0.00000  Uiso   1.00
C282   C     0.13297   0.83242   0.34728   0.00000  Uiso   1.00
Cu283  Cu    0.10710   0.82772   0.24436   0.00000  Uiso   1.00
Cu284  Cu    0.22623   0.83895   0.25565   0.00000  Uiso   1.00
O285   O     0.10476   0.75245   0.24414   0.00000  Uiso   1.00
O286   O     0.20536   0.76193   0.25367   0.00000  Uiso   1.00
O287   O     0.14092   0.83092   0.17207   0.00000  Uiso   1.00
O288   O     0.24152   0.84040   0.18161   0.00000  Uiso   1.00
C289   C     0.15155   0.73326   0.24848   0.00000  Uiso   1.00
C290   C     0.20101   0.83745   0.15278   0.00000  Uiso   1.00
C291   C     0.29281   0.89440   0.02511   0.00000  Uiso   1.00
H292   H     0.30062   0.92848   0.43271   0.00000  Uiso   1.00
H293   H     0.00490   0.91893   0.00843   0.00000  Uiso   1.00
C294   C     0.22244   0.84617   0.09726   0.00000  Uiso   1.00
C295   C     0.05086   0.80236   0.42430   0.00000  Uiso   1.00
C296   C     0.03361   0.79038   0.47586   0.00000  Uiso   1.00
C297   C     0.07747   0.80444   0.00693   0.00000  Uiso   1.00
C298   C     0.13924   0.83398   0.48759   0.00000  Uiso   1.00
C299   C     0.15435   0.85072   0.43614   0.00000  Uiso   1.00
C300   C     0.18650   0.84774   0.01745   0.00000  Uiso   1.00
C301   C     0.24554   0.88092   0.49672   0.00000  Uiso   1.00
C302   C     0.25665   0.90135   0.44811   0.00000  Uiso   1.00
C303   C     0.21142   0.88730   0.41865   0.00000  Uiso   1.00
C304   C     0.17700   0.82974   0.06733   0.00000  Uiso   1.00
C305   C     0.28216   0.87721   0.07517   0.00000  Uiso   1.00
C306   C     0.11181   0.83062   0.40345   0.00000  Uiso   1.00
H307   H     0.13358   0.80367   0.08466   0.00000  Uiso   1.00
H308   H     0.01718   0.78763   0.40030   0.00000  Uiso   1.00
H309   H     0.06096   0.79219   0.04601   0.00000  Uiso   1.00
H310   H     0.31982   0.76827   0.49154   0.00000  Uiso   1.00
H311   H     0.22148   0.90636   0.38228   0.00000  Uiso   1.00
C312   C     0.19031   0.98936   0.25224   0.00000  Uiso   1.00
H313   H     0.23586   0.67984   0.25653   0.00000  Uiso   1.00
C314   C     0.14304   0.67730   0.24772   0.00000  Uiso   1.00
H315   H     0.09749   0.98682   0.24342   0.00000  Uiso   1.00
N316   N     0.31574   0.84741   0.26416   0.00000  Uiso   1.00
H317   H     0.00369   0.87269   0.28950   0.00000  Uiso   1.00
N318   N     0.01759   0.81926   0.23584   0.00000  Uiso   1.00
H319   H     0.32957   0.79387   0.21061   0.00000  Uiso   1.00
N320   N     0.33160   0.89329   0.10306   0.00000  Uiso   1.00
O321   O     0.02057   0.85783   0.12048   0.00000  Uiso   1.00
O322   O     0.03020   0.94186   0.10094   0.00000  Uiso   1.00
O323   O     0.46131   0.90474   0.24633   0.00000  Uiso   1.00
O324   O     0.56191   0.91422   0.25587   0.00000  Uiso   1.00
C325   C     0.51512   0.93341   0.25151   0.00000  Uiso   1.00
O326   O     0.42515   0.82627   0.31840   0.00000  Uiso   1.00
O327   O     0.52575   0.83575   0.32793   0.00000  Uiso   1.00
C328   C     0.46631   0.83242   0.34728   0.00000  Uiso   1.00
Cu329  Cu    0.44043   0.82772   0.24436   0.00000  Uiso   1.00
Cu330  Cu    0.55957   0.83895   0.25565   0.00000  Uiso   1.00
O331   O     0.43809   0.75245   0.24414   0.00000  Uiso   1.00
O332   O     0.53869   0.76193   0.25367   0.00000  Uiso   1.00
O333   O     0.47425   0.83092   0.17207   0.00000  Uiso   1.00
O334   O     0.57485   0.84040   0.18161   0.00000  Uiso   1.00
C335   C     0.48489   0.73326   0.24848   0.00000  Uiso   1.00
C336   C     0.53434   0.83745   0.15278   0.00000  Uiso   1.00
C337   C     0.62614   0.89440   0.02511   0.00000  Uiso   1.00
H338   H     0.63395   0.92848   0.43271   0.00000  Uiso   1.00
H339   H     0.33823   0.91893   0.00843   0.00000  Uiso   1.00
C340   C     0.55577   0.84617   0.09726   0.00000  Uiso   1.00
C341   C     0.38420   0.80236   0.42430   0.00000  Uiso   1.00
C342   C     0.36695   0.79038   0.47586   0.00000  Uiso   1.00
C343   C     0.41081   0.80444   0.00693   0.00000  Uiso   1.00
C344   C     0.47258   0.83398   0.48759   0.00000  Uiso   1.00
C345   C     0.48769   0.85072   0.43614   0.00000  Uiso   1.00
C346   C     0.51983   0.84774   0.01745   0.00000  Uiso   1.00
C347   C     0.57887   0.88092   0.49672   0.00000  Uiso   1.00
C348   C     0.58999   0.90135   0.44811   0.00000  Uiso   1.00
C349   C     0.54475   0.88730   0.41865   0.00000  Uiso   1.00
C350   C     0.51033   0.82974   0.06733   0.00000  Uiso   1.00
C351   C     0.61549   0.87721   0.07517   0.00000  Uiso   1.00
C352   C     0.44515   0.83062   0.40345   0.00000  Uiso   1.00
H353   H     0.46691   0.80367   0.08466   0.00000  Uiso   1.00
H354   H     0.35051   0.78763   0.40030   0.00000  Uiso   1.00
H355   H     0.39429   0.79219   0.04601   0.00000  Uiso   1.00
H356   H     0.65315   0.76827   0.49154   0.00000  Uiso   1.00
H357   H     0.55482   0.90636   0.38228   0.00000  Uiso   1.00
C358   C     0.52364   0.98936   0.25224   0.00000  Uiso   1.00
H359   H     0.56920   0.67984   0.25653   0.00000  Uiso   1.00
C360   C     0.47637   0.67730   0.24772   0.00000  Uiso   1.00
H361   H     0.43082   0.98682   0.24342   0.00000  Uiso   1.00
N362   N     0.64908   0.84741   0.26416   0.00000  Uiso   1.00
H363   H     0.33703   0.87269   0.28950   0.00000  Uiso   1.00
N364   N     0.35092   0.81926   0.23584   0.00000  Uiso   1.00
H365   H     0.66290   0.79387   0.21061   0.00000  Uiso   1.00
N366   N     0.66494   0.89329   0.10306   0.00000  Uiso   1.00
O367   O     0.35390   0.85783   0.12048   0.00000  Uiso   1.00
O368   O     0.36353   0.94186   0.10094   0.00000  Uiso   1.00
O369   O     0.79464   0.90474   0.24633   0.00000  Uiso   1.00
O370   O     0.89524   0.91422   0.25587   0.00000  Uiso   1.00
C371   C     0.84845   0.93341   0.25151   0.00000  Uiso   1.00
O372   O     0.75848   0.82627   0.31840   0.00000  Uiso   1.00
O373   O     0.85908   0.83575   0.32793   0.00000  Uiso   1.00
C374   C     0.79964   0.83242   0.34728   0.00000  Uiso   1.00
Cu375  Cu    0.77377   0.82772   0.24436   0.00000  Uiso   1.00
Cu376  Cu    0.89290   0.83895   0.25565   0.00000  Uiso   1.00
O377   O     0.77142   0.75245   0.24414   0.00000  Uiso   1.00
O378   O     0.87203   0.76193   0.25367   0.00000  Uiso   1.00
O379   O     0.80758   0.83092   0.17207   0.00000  Uiso   1.00
O380   O     0.90819   0.84040   0.18161   0.00000  Uiso   1.00
C381   C     0.81822   0.73326   0.24848   0.00000  Uiso   1.00
C382   C     0.86767   0.83745   0.15278   0.00000  Uiso   1.00
C383   C     0.95948   0.89440   0.02511   0.00000  Uiso   1.00
H384   H     0.96729   0.92848   0.43271   0.00000  Uiso   1.00
H385   H     0.67156   0.91893   0.00843   0.00000  Uiso   1.00
C386   C     0.88910   0.84617   0.09726   0.00000  Uiso   1.00
C387   C     0.71753   0.80236   0.42430   0.00000  Uiso   1.00
C388   C     0.70028   0.79038   0.47586   0.00000  Uiso   1.00
C389   C     0.74414   0.80444   0.00693   0.00000  Uiso   1.00
C390   C     0.80591   0.83398   0.48759   0.00000  Uiso   1.00
C391   C     0.82102   0.85072   0.43614   0.00000  Uiso   1.00
C392   C     0.85317   0.84774   0.01745   0.00000  Uiso   1.00
C393   C     0.91221   0.88092   0.49672   0.00000  Uiso   1.00
C394   C     0.92332   0.90135   0.44811   0.00000  Uiso   1.00
C395   C     0.87809   0.88730   0.41865   0.00000  Uiso   1.00
C396   C     0.84366   0.82974   0.06733   0.00000  Uiso   1.00
C397   C     0.94883   0.87721   0.07517   0.00000  Uiso   1.00
C398   C     0.77848   0.83062   0.40345   0.00000  Uiso   1.00
H399   H     0.80025   0.80367   0.08466   0.00000  Uiso   1.00
H400   H     0.68384   0.78763   0.40030   0.00000  Uiso   1.00
H401   H     0.72763   0.79219   0.04601   0.00000  Uiso   1.00
H402   H     0.98649   0.76827   0.49154   0.00000  Uiso   1.00
H403   H     0.88815   0.90636   0.38228   0.00000  Uiso   1.00
C404   C     0.85698   0.98936   0.25224   0.00000  Uiso   1.00
H405   H     0.90253   0.67984   0.25653   0.00000  Uiso   1.00
C406   C     0.80971   0.67730   0.24772   0.00000  Uiso   1.00
H407   H     0.76416   0.98682   0.24342   0.00000  Uiso   1.00
N408   N     0.98241   0.84741   0.26416   0.00000  Uiso   1.00
H409   H     0.67036   0.87269   0.28950   0.00000  Uiso   1.00
N410   N     0.68426   0.81926   0.23584   0.00000  Uiso   1.00
H411   H     0.99624   0.79387   0.21061   0.00000  Uiso   1.00
N412   N     0.99827   0.89329   0.10306   0.00000  Uiso   1.00
O413   O     0.68723   0.85783   0.12048   0.00000  Uiso   1.00
O414   O     0.69687   0.94186   0.10094   0.00000  Uiso   1.00
O415   O     0.12797   0.23807   0.74633   0.00000  Uiso   1.00
O416   O     0.22858   0.24755   0.75587   0.00000  Uiso   1.00
C417   C     0.18178   0.26674   0.75151   0.00000  Uiso   1.00
O418   O     0.09181   0.15960   0.81840   0.00000  Uiso   1.00
O419   O     0.19242   0.16908   0.82793   0.00000  Uiso   1.00
C420   C     0.13297   0.16575   0.84728   0.00000  Uiso   1.00
Cu421  Cu    0.10710   0.16105   0.74436   0.00000  Uiso   1.00
Cu422  Cu    0.22623   0.17228   0.75565   0.00000  Uiso   1.00
O423   O     0.10476   0.08578   0.74414   0.00000  Uiso   1.00
O424   O     0.20536   0.09526   0.75367   0.00000  Uiso   1.00
O425   O     0.14092   0.16425   0.67207   0.00000  Uiso   1.00
O426   O     0.24152   0.17373   0.68161   0.00000  Uiso   1.00
C427   C     0.15155   0.06659   0.74848   0.00000  Uiso   1.00
C428   C     0.20101   0.17079   0.65278   0.00000  Uiso   1.00
C429   C     0.29281   0.22774   0.52511   0.00000  Uiso   1.00
H430   H     0.30062   0.26182   0.93271   0.00000  Uiso   1.00
H431   H     0.00490   0.25227   0.50843   0.00000  Uiso   1.00
C432   C     0.22244   0.17950   0.59726   0.00000  Uiso   1.00
C433   C     0.05086   0.13569   0.92430   0.00000  Uiso   1.00
C434   C     0.03361   0.12371   0.97586   0.00000  Uiso   1.00
C435   C     0.07747   0.13777   0.50693   0.00000  Uiso   1.00
C436   C     0.13924   0.16731   0.98759   0.00000  Uiso   1.00
C437   C     0.15435   0.18405   0.93614   0.00000  Uiso   1.00
C438   C     0.18650   0.18107   0.51745   0.00000  Uiso   1.00
C439   C     0.24554   0.21425   0.99672   0.00000  Uiso   1.00
C440   C     0.25665   0.23468   0.94811   0.00000  Uiso   1.00
C441   C     0.21142   0.22063   0.91865   0.00000  Uiso   1.00
C442   C     0.17700   0.16308   0.56733   0.00000  Uiso   1.00
C443   C     0.28216   0.21054   0.57517   0.00000  Uiso   1.00
C444   C     0.11181   0.16396   0.90345   0.00000  Uiso   1.00
H445   H     0.13358   0.13700   0.58466   0.00000  Uiso   1.00
H446   H     0.01718   0.12096   0.90030   0.00000  Uiso   1.00
H447   H     0.06096   0.12552   0.54601   0.00000  Uiso   1.00
H448   H     0.31982   0.10160   0.99154   0.00000  Uiso   1.00
H449   H     0.22148   0.23970   0.88228   0.00000  Uiso   1.00
C450   C     0.19031   0.32270   0.75224   0.00000  Uiso   1.00
H451   H     0.23586   0.01317   0.75653   0.00000  Uiso   1.00
C452   C     0.14304   0.01063   0.74772   0.00000  Uiso   1.00
H453   H     0.09749   0.32015   0.74342   0.00000  Uiso   1.00
N454   N     0.31574   0.18074   0.76416   0.00000  Uiso   1.00
H455   H     0.00369   0.20602   0.78950   0.00000  Uiso   1.00
N456   N     0.01759   0.15259   0.73584   0.00000  Uiso   1.00
H457   H     0.32957   0.12720   0.71061   0.00000  Uiso   1.00
N458   N     0.33160   0.22662   0.60306   0.00000  Uiso   1.00
O459   O     0.02057   0.19117   0.62048   0.00000  Uiso   1.00
O460   O     0.03020   0.27519   0.60094   0.00000  Uiso   1.00
O461   O     0.46131   0.23807   0.74633   0.00000  Uiso   1.00
O462   O     0.56191   0.24755   0.75587   0.00000  Uiso   1.00
C463   C     0.51512   0.26674   0.75151   0.00000  Uiso   1.00
O464   O     0.42515   0.15960   0.81840   0.00000  Uiso   1.00
O465   O     0.52575   0.16908   0.82793   0.00000  Uiso   1.00
C466   C     0.46631   0.16575   0.84728   0.00000  Uiso   1.00
Cu467  Cu    0.44043   0.16105   0.74436   0.00000  Uiso   1.00
Cu468  Cu    0.55957   0.17228   0.75565   0.00000  Uiso   1.00
O469   O     0.43809   0.08578   0.74414   0.00000  Uiso   1.00
O470   O     0.53869   0.09526   0.75367   0.00000  Uiso   1.00
O471   O     0.47425   0.16425   0.67207   0.00000  Uiso   1.00
O472   O     0.57485   0.17373   0.68161   0.00000  Uiso   1.00
C473   C     0.48489   0.06659   0.74848   0.00000  Uiso   1.00
C474   C     0.53434   0.17079   0.65278   0.00000  Uiso   1.00
C475   C     0.62614   0.22774   0.52511   0.00000  Uiso   1.00
H476   H     0.63395   0.26182   0.93271   0.00000  Uiso   1.00
H477   H     0.33823   0.25227   0.50843   0.00000  Uiso   1.00
C478   C     0.55577   0.17950   0.59726   0.00000  Uiso   1.00
C479   C     0.38420   0.13569   0.92430   0.00000  Uiso   1.00
C480   C     0.36695   0.12371   0.97586   0.00000  Uiso   1.00
C481   C     0.41081   0.13777   0.50693   0.00000  Uiso   1.00
C482   C     0.47258   0.16731   0.98759   0.00000  Uiso   1.00
C483   C     0.48769   0.18405   0.93614   0.00000  Uiso   1.00
C484   C     0.51983   0.18107   0.51745   0.00000  Uiso   1.00
C485   C     0.57887   0.21425   0.99672   0.00000  Uiso   1.00
C486   C     0.58999   0.23468   0.94811   0.00000  Uiso   1.00
C487   C     0.54475   0.22063   0.91865   0.00000  Uiso   1.00
C488   C     0.51033   0.16308   0.56733   0.00000  Uiso   1.00
C489   C     0.61549   0.21054   0.57517   0.00000  Uiso   1.00
C490   C     0.44515   0.16396   0.90345   0.00000  Uiso   1.00
H491   H     0.46691   0.13700   0.58466   0.00000  Uiso   1.00
H492   H     0.35051   0.12096   0.90030   0.00000  Uiso   1.00
H493   H     0.39429   0.12552   0.54601   0.00000  Uiso   1.00
H494   H     0.65315   0.10160   0.99154   0.00000  Uiso   1.00
H495   H     0.55482   0.23970   0.88228   0.00000  Uiso   1.00
C496   C     0.52364   0.32270   0.75224   0.00000  Uiso   1.00
H497   H     0.56920   0.01317   0.75653   0.00000  Uiso   1.00
C498   C     0.47637   0.01063   0.74772   0.00000  Uiso   1.00
H499   H     0.43082   0.32015   0.74342   0.00000  Uiso   1.00
N500   N     0.64908   0.18074   0.76416   0.00000  Uiso   1.00
H501   H     0.33703   0.20602   0.78950   0.00000  Uiso   1.00
N502   N     0.35092   0.15259   0.73584   0.00000  Uiso   1.00
H503   H     0.66290   0.12720   0.71061   0.00000  Uiso   1.00
N504   N     0.66494   0.22662   0.60306   0.00000  Uiso   1.00
O505   O     0.35390   0.19117   0.62048   0.00000  Uiso   1.00
O506   O     0.36353   0.27519   0.60094   0.00000  Uiso   1.00
O507   O     0.79464   0.23807   0.74633   0.00000  Uiso   1.00
O508   O     0.89524   0.24755   0.75587   0.00000  Uiso   1.00
C509   C     0.84845   0.26674   0.75151   0.00000  Uiso   1.00
O510   O     0.75848   0.15960   0.81840   0.00000  Uiso   1.00
O511   O     0.85908   0.16908   0.82793   0.00000  Uiso   1.00
C512   C     0.79964   0.16575   0.84728   0.00000  Uiso   1.00
Cu513  Cu    0.77377   0.16105   0.74436   0.00000  Uiso   1.00
Cu514  Cu    0.89290   0.17228   0.75565   0.00000  Uiso   1.00
O515   O     0.77142   0.08578   0.74414   0.00000  Uiso   1.00
O516   O     0.87203   0.09526   0.75367   0.00000  Uiso   1.00
O517   O     0.80758   0.16425   0.67207   0.00000  Uiso   1.00
O518   O     0.90819   0.17373   0.68161   0.00000  Uiso   1.00
C519   C     0.81822   0.06659   0.74848   0.00000  Uiso   1.00
C520   C     0.86767   0.17079   0.65278   0.00000  Uiso   1.00
C521   C     0.95948   0.22774   0.52511   0.00000  Uiso   1.00
H522   H     0.96729   0.26182   0.93271   0.00000  Uiso   1.00
H523   H     0.67156   0.25227   0.50843   0.00000  Uiso   1.00
C524   C     0.88910   0.17950   0.59726   0.00000  Uiso   1.00
C525   C     0.71753   0.13569   0.92430   0.00000  Uiso   1.00
C526   C     0.70028   0.12371   0.97586   0.00000  Uiso   1.00
C527   C     0.74414   0.13777   0.50693   0.00000  Uiso   1.00
C528   C     0.80591   0.16731   0.98759   0.00000  Uiso   1.00
C529   C     0.82102   0.18405   0.93614   0.00000  Uiso   1.00
C530   C     0.85317   0.18107   0.51745   0.00000  Uiso   1.00
C531   C     0.91221   0.21425   0.99672   0.00000  Uiso   1.00
C532   C     0.92332   0.23468   0.94811   0.00000  Uiso   1.00
C533   C     0.87809   0.22063   0.91865   0.00000  Uiso   1.00
C534   C     0.84366   0.16308   0.56733   0.00000  Uiso   1.00
C535   C     0.94883   0.21054   0.57517   0.00000  Uiso   1.00
C536   C     0.77848   0.16396   0.90345   0.00000  Uiso   1.00
H537   H     0.80025   0.13700   0.58466   0.00000  Uiso   1.00
H538   H     0.68384   0.12096   0.90030   0.00000  Uiso   1.00
H539   H     0.72763   0.12552   0.54601   0.00000  Uiso   1.00
H540   H     0.98649   0.10160   0.99154   0.00000  Uiso   1.00
H541   H     0.88815   0.23970   0.88228   0.00000  Uiso   1.00
C542   C     0.85698   0.32270   0.75224   0.00000  Uiso   1.00
H543   H     0.90253   0.01317   0.75653   0.00000  Uiso   1.00
C544   C     0.80971   0.01063   0.74772   0.00000  Uiso   1.00
H545   H     0.76416   0.32015   0.74342   0.00000  Uiso   1.00
N546   N     0.98241   0.18074   0.76416   0.00000  Uiso   1.00
H547   H     0.67036   0.20602   0.78950   0.00000  Uiso   1.00
N548   N     0.68426   0.15259   0.73584   0.00000  Uiso   1.00
H549   H     0.99624   0.12720   0.71061   0.00000  Uiso   1.00
N550   N     0.99827   0.22662   0.60306   0.00000  Uiso   1.00
O551   O     0.68723   0.19117   0.62048   0.00000  Uiso   1.00
O552   O     0.69687   0.27519   0.60094   0.00000  Uiso   1.00
O553   O     0.12797   0.57141   0.74633   0.00000  Uiso   1.00
O554   O     0.22858   0.58089   0.75587   0.00000  Uiso   1.00
C555   C     0.18178   0.60007   0.75151   0.00000  Uiso   1.00
O556   O     0.09181   0.49293   0.81840   0.00000  Uiso   1.00
O557   O     0.19242   0.50241   0.82793   0.00000  Uiso   1.00
C558   C     0.13297   0.49909   0.84728   0.00000  Uiso   1.00
Cu559  Cu    0.10710   0.49439   0.74436   0.00000  Uiso   1.00
Cu560  Cu    0.22623   0.50561   0.75565   0.00000  Uiso   1.00
O561   O     0.10476   0.41911   0.74414   0.00000  Uiso   1.00
O562   O     0.20536   0.42859   0.75367   0.00000  Uiso   1.00
O563   O     0.14092   0.49759   0.67207   0.00000  Uiso   1.00
O564   O     0.24152   0.50707   0.68161   0.00000  Uiso   1.00
C565   C     0.15155   0.39992   0.74848   0.00000  Uiso   1.00
C566   C     0.20101   0.50412   0.65278   0.00000  Uiso   1.00
C567   C     0.29281   0.56107   0.52511   0.00000  Uiso   1.00
H568   H     0.30062   0.59515   0.93271   0.00000  Uiso   1.00
H569   H     0.00490   0.58560   0.50843   0.00000  Uiso   1.00
C570   C     0.22244   0.51284   0.59726   0.00000  Uiso   1.00
C571   C     0.05086   0.46903   0.92430   0.00000  Uiso   1.00
C572   C     0.03361   0.45705   0.97586   0.00000  Uiso   1.00
C573   C     0.07747   0.47110   0.50693   0.00000  Uiso   1.00
C574   C     0.13924   0.50065   0.98759   0.00000  Uiso   1.00
C575   C     0.15435   0.51738   0.93614   0.00000  Uiso   1.00
C576   C     0.18650   0.51441   0.51745   0.00000  Uiso   1.00
C577   C     0.24554   0.54759   0.99672   0.00000  Uiso   1.00
C578   C     0.25665   0.56801   0.94811   0.00000  Uiso   1.00
C579   C     0.21142   0.55397   0.91865   0.00000  Uiso   1.00
C580   C     0.17700   0.49641   0.56733   0.00000  Uiso   1.00
C581   C     0.28216   0.54388   0.57517   0.00000  Uiso   1.00
C582   C     0.11181   0.49729   0.90345   0.00000  Uiso   1.00
H583   H     0.13358   0.47034   0.58466   0.00000  Uiso   1.00
H584   H     0.01718   0.45430   0.90030   0.00000  Uiso   1.00
H585   H     0.06096   0.45885   0.54601   0.00000  Uiso   1.00
H586   H     0.31982   0.43494   0.99154   0.00000  Uiso   1.00
H587   H     0.22148   0.57303   0.88228   0.00000  Uiso   1.00
C588   C     0.19031   0.65603   0.75224   0.00000  Uiso   1.00
H589   H     0.23586   0.34651   0.75653   0.00000  Uiso   1.00
C590   C     0.14304   0.34397   0.74772   0.00000  Uiso   1.00
H591   H     0.09749   0.65349   0.74342   0.00000  Uiso   1.00
N592   N     0.31574   0.51407   0.76416   0.00000  Uiso   1.00
H593   H     0.00369   0.53936   0.78950   0.00000  Uiso   1.00
N594   N     0.01759   0.48593   0.73584   0.00000  Uiso   1.00
H595   H     0.32957   0.46053   0.71061   0.00000  Uiso   1.00
N596   N     0.33160   0.55996   0.60306   0.00000  Uiso   1.00
O597   O     0.02057   0.52450   0.62048   0.00000  Uiso   1.00
O598   O     0.03020   0.60852   0.60094   0.00000  Uiso   1.00
O599   O     0.46131   0.57141   0.74633   0.00000  Uiso   1.00
O600   O     0.56191   0.58089   0.75587   0.00000  Uiso   1.00
C601   C     0.51512   0.60007   0.75151   0.00000  Uiso   1.00
O602   O     0.42515   0.49293   0.81840   0.00000  Uiso   1.00
O603   O     0.52575   0.50241   0.82793   0.00000  Uiso   1.00
C604   C     0.46631   0.49909   0.84728   0.00000  Uiso   1.00
Cu605  Cu    0.44043   0.49439   0.74436   0.00000  Uiso   1.00
Cu606  Cu    0.55957   0.50561   0.75565   0.00000  Uiso   1.00
O607   O     0.43809   0.41911   0.74414   0.00000  Uiso   1.00
O608   O     0.53869   0.42859   0.75367   0.00000  Uiso   1.00
O609   O     0.47425   0.49759   0.67207   0.00000  Uiso   1.00
O610   O     0.57485   0.50707   0.68161   0.00000  Uiso   1.00
C611   C     0.48489   0.39992   0.74848   0.00000  Uiso   1.00
C612   C     0.53434   0.50412   0.65278   0.00000  Uiso   1.00
C613   C     0.62614   0.56107   0.52511   0.00000  Uiso   1.00
H614   H     0.63395   0.59515   0.93271   0.00000  Uiso   1.00
H615   H     0.33823   0.58560   0.50843   0.00000  Uiso   1.00
C616   C     0.55577   0.51284   0.59726   0.00000  Uiso   1.00
C617   C     0.38420   0.46903   0.92430   0.00000  Uiso   1.00
C618   C     0.36695   0.45705   0.97586   0.00000  Uiso   1.00
C619   C     0.41081   0.47110   0.50693   0.00000  Uiso   1.00
C620   C     0.47258   0.50065   0.98759   0.00000  Uiso   1.00
C621   C     0.48769   0.51738   0.93614   0.00000  Uiso   1.00
C622   C     0.51983   0.51441   0.51745   0.00000  Uiso   1.00
C623   C     0.57887   0.54759   0.99672   0.00000  Uiso   1.00
C624   C     0.58999   0.56801   0.94811   0.00000  Uiso   1.00
C625   C     0.54475   0.55397   0.91865   0.00000  Uiso   1.00
C626   C     0.51033   0.49641   0.56733   0.00000  Uiso   1.00
C627   C     0.61549   0.54388   0.57517   0.00000  Uiso   1.00
C628   C     0.44515   0.49729   0.90345   0.00000  Uiso   1.00
H629   H     0.46691   0.47034   0.58466   0.00000  Uiso   1.00
H630   H     0.35051   0.45430   0.90030   0.00000  Uiso   1.00
H631   H     0.39429   0.45885   0.54601   0.00000  Uiso   1.00
H632   H     0.65315   0.43494   0.99154   0.00000  Uiso   1.00
H633   H     0.55482   0.57303   0.88228   0.00000  Uiso   1.00
C634   C     0.52364   0.65603   0.75224   0.00000  Uiso   1.00
H635   H     0.56920   0.34651   0.75653   0.00000  Uiso   1.00
C636   C     0.47637   0.34397   0.74772   0.00000  Uiso   1.00
H637   H     0.43082   0.65349   0.74342   0.00000  Uiso   1.00
N638   N     0.64908   0.51407   0.76416   0.00000  Uiso   1.00
H639   H     0.33703   0.53936   0.78950   0.00000  Uiso   1.00
N640   N     0.35092   0.48593   0.73584   0.00000  Uiso   1.00
H641   H     0.66290   0.46053   0.71061   0.00000  Uiso   1.00
N642   N     0.66494   0.55996   0.60306   0.00000  Uiso   1.00
O643   O     0.35390   0.52450   0.62048   0.00000  Uiso   1.00
O644   O     0.36353   0.60852   0.60094   0.00000  Uiso   1.00
O645   O     0.79464   0.57141   0.74633   0.00000  Uiso   1.00
O646   O     0.89524   0.58089   0.75587   0.00000  Uiso   1.00
C647   C     0.84845   0.60007   0.75151   0.00000  Uiso   1.00
O648   O     0.75848   0.49293   0.81840   0.00000  Uiso   1.00
O649   O     0.85908   0.50241   0.82793   0.00000  Uiso   1.00
C650   C     0.79964   0.49909   0.84728   0.00000  Uiso   1.00
Cu651  Cu    0.77377   0.49439   0.74436   0.00000  Uiso   1.00
Cu652  Cu    0.89290   0.50561   0.75565   0.00000  Uiso   1.00
O653   O     0.77142   0.41911   0.74414   0.00000  Uiso   1.00
O654   O     0.87203   0.42859   0.75367   0.00000  Uiso   1.00
O655   O     0.80758   0.49759   0.67207   0.00000  Uiso   1.00
O656   O     0.90819   0.50707   0.68161   0.00000  Uiso   1.00
C657   C     0.81822   0.39992   0.74848   0.00000  Uiso   1.00
C658   C     0.86767   0.50412   0.65278   0.00000  Uiso   1.00
C659   C     0.95948   0.56107   0.52511   0.00000  Uiso   1.00
H660   H     0.96729   0.59515   0.93271   0.00000  Uiso   1.00
H661   H     0.67156   0.58560   0.50843   0.00000  Uiso   1.00
C662   C     0.88910   0.51284   0.59726   0.00000  Uiso   1.00
C663   C     0.71753   0.46903   0.92430   0.00000  Uiso   1.00
C664   C     0.70028   0.45705   0.97586   0.00000  Uiso   1.00
C665   C     0.74414   0.47110   0.50693   0.00000  Uiso   1.00
C666   C     0.80591   0.50065   0.98759   0.00000  Uiso   1.00
C667   C     0.82102   0.51738   0.93614   0.00000  Uiso   1.00
C668   C     0.85317   0.51441   0.51745   0.00000  Uiso   1.00
C669   C     0.91221   0.54759   0.99672   0.00000  Uiso   1.00
C670   C     0.92332   0.56801   0.94811   0.00000  Uiso   1.00
C671   C     0.87809   0.55397   0.91865   0.00000  Uiso   1.00
C672   C     0.84366   0.49641   0.56733   0.00000  Uiso   1.00
C673   C     0.94883   0.54388   0.57517   0.00000  Uiso   1.00
C674   C     0.77848   0.49729   0.90345   0.00000  Uiso   1.00
H675   H     0.80025   0.47034   0.58466   0.00000  Uiso   1.00
H676   H     0.68384   0.45430   0.90030   0.00000  Uiso   1.00
H677   H     0.72763   0.45885   0.54601   0.00000  Uiso   1.00
H678   H     0.98649   0.43494   0.99154   0.00000  Uiso   1.00
H679   H     0.88815   0.57303   0.88228   0.00000  Uiso   1.00
C680   C     0.85698   0.65603   0.75224   0.00000  Uiso   1.00
H681   H     0.90253   0.34651   0.75653   0.00000  Uiso   1.00
C682   C     0.80971   0.34397   0.74772   0.00000  Uiso   1.00
H683   H     0.76416   0.65349   0.74342   0.00000  Uiso   1.00
N684   N     0.98241   0.51407   0.76416   0.00000  Uiso   1.00
H685   H     0.67036   0.53936   0.78950   0.00000  Uiso   1.00
N686   N     0.68426   0.48593   0.73584   0.00000  Uiso   1.00
H687   H     0.99624   0.46053   0.71061   0.00000  Uiso   1.00
N688   N     0.99827   0.55996   0.60306   0.00000  Uiso   1.00
O689   O     0.68723   0.52450   0.62048   0.00000  Uiso   1.00
O690   O     0.69687   0.60852   0.60094   0.00000  Uiso   1.00
O691   O     0.12797   0.90474   0.74633   0.00000  Uiso   1.00
O692   O     0.22858   0.91422   0.75587   0.00000  Uiso   1.00
C693   C     0.18178   0.93341   0.75151   0.00000  Uiso   1.00
O694   O     0.09181   0.82627   0.81840   0.00000  Uiso   1.00
O695   O     0.19242   0.83575   0.82793   0.00000  Uiso   1.00
C696   C     0.13297   0.83242   0.84728   0.00000  Uiso   1.00
Cu697  Cu    0.10710   0.82772   0.74436   0.00000  Uiso   1.00
Cu698  Cu    0.22623   0.83895   0.75565   0.00000  Uiso   1.00
O699   O     0.10476   0.75245   0.74414   0.00000  Uiso   1.00
O700   O     0.20536   0.76193   0.75367   0.00000  Uiso   1.00
O701   O     0.14092   0.83092   0.67207   0.00000  Uiso   1.00
O702   O     0.24152   0.84040   0.68161   0.00000  Uiso   1.00
C703   C     0.15155   0.73326   0.74848   0.00000  Uiso   1.00
C704   C     0.20101   0.83745   0.65278   0.00000  Uiso   1.00
C705   C     0.29281   0.89440   0.52511   0.00000  Uiso   1.00
H706   H     0.30062   0.92848   0.93271   0.00000  Uiso   1.00
H707   H     0.00490   0.91893   0.50843   0.00000  Uiso   1.00
C708   C     0.22244   0.84617   0.59726   0.00000  Uiso   1.00
C709   C     0.05086   0.80236   0.92430   0.00000  Uiso   1.00
C710   C     0.03361   0.79038   0.97586   0.00000  Uiso   1.00
C711   C     0.07747   0.80444   0.50693   0.00000  Uiso   1.00
C712   C     0.13924   0.83398   0.98759   0.00000  Uiso   1.00
C713   C     0.15435   0.85072   0.93614   0.00000  Uiso   1.00
C714   C     0.18650   0.84774   0.51745   0.00000  Uiso   1.00
C715   C     0.24554   0.88092   0.99672   0.00000  Uiso   1.00
C716   C     0.25665   0.90135   0.94811   0.00000  Uiso   1.00
C717   C     0.21142   0.88730   0.91865   0.00000  Uiso   1.00
C718   C     0.17700   0.82974   0.56733   0.00000  Uiso   1.00
C719   C     0.28216   0.87721   0.57517   0.00000  Uiso   1.00
C720   C     0.11181   0.83062   0.90345   0.00000  Uiso   1.00
H721   H     0.13358   0.80367   0.58466   0.00000  Uiso   1.00
H722   H     0.01718   0.78763   0.90030   0.00000  Uiso   1.00
H723   H     0.06096   0.79219   0.54601   0.00000  Uiso   1.00
H724   H     0.31982   0.76827   0.99154   0.00000  Uiso   1.00
H725   H     0.22148   0.90636   0.88228   0.00000  Uiso   1.00
C726   C     0.19031   0.98936   0.75224   0.00000  Uiso   1.00
H727   H     0.23586   0.67984   0.75653   0.00000  Uiso   1.00
C728   C     0.14304   0.67730   0.74772   0.00000  Uiso   1.00
H729   H     0.09749   0.98682   0.74342   0.00000  Uiso   1.00
N730   N     0.31574   0.84741   0.76416   0.00000  Uiso   1.00
H731   H     0.00369   0.87269   0.78950   0.00000  Uiso   1.00
N732   N     0.01759   0.81926   0.73584   0.00000  Uiso   1.00
H733   H     0.32957   0.79387   0.71061   0.00000  Uiso   1.00
N734   N     0.33160   0.89329   0.60306   0.00000  Uiso   1.00
O735   O     0.02057   0.85783   0.62048   0.00000  Uiso   1.00
O736   O     0.03020   0.94186   0.60094   0.00000  Uiso   1.00
O737   O     0.46131   0.90474   0.74633   0.00000  Uiso   1.00
O738   O     0.56191   0.91422   0.75587   0.00000  Uiso   1.00
C739   C     0.51512   0.93341   0.75151   0.00000  Uiso   1.00
O740   O     0.42515   0.82627   0.81840   0.00000  Uiso   1.00
O741   O     0.52575   0.83575   0.82793   0.00000  Uiso   1.00
C742   C     0.46631   0.83242   0.84728   0.00000  Uiso   1.00
Cu743  Cu    0.44043   0.82772   0.74436   0.00000  Uiso   1.00
Cu744  Cu    0.55957   0.83895   0.75565   0.00000  Uiso   1.00
O745   O     0.43809   0.75245   0.74414   0.00000  Uiso   1.00
O746   O     0.53869   0.76193   0.75367   0.00000  Uiso   1.00
O747   O     0.47425   0.83092   0.67207   0.00000  Uiso   1.00
O748   O     0.57485   0.84040   0.68161   0.00000  Uiso   1.00
C749   C     0.48489   0.73326   0.74848   0.00000  Uiso   1.00
C750   C     0.53434   0.83745   0.65278   0.00000  Uiso   1.00
C751   C     0.62614   0.89440   0.52511   0.00000  Uiso   1.00
H752   H     0.63395   0.92848   0.93271   0.00000  Uiso   1.00
H753   H     0.33823   0.91893   0.50843   0.00000  Uiso   1.00
C754   C     0.55577   0.84617   0.59726   0.00000  Uiso   1.00
C755   C     0.38420   0.80236   0.92430   0.00000  Uiso   1.00
C756   C     0.36695   0.79038   0.97586   0.00000  Uiso   1.00
C757   C     0.41081   0.80444   0.50693   0.00000  Uiso   1.00
C758   C     0.47258   0.83398   0.98759   0.00000  Uiso   1.00
C759   C     0.48769   0.85072   0.93614   0.00000  Uiso   1.00
C760   C     0.51983   0.84774   0.51745   0.00000  Uiso   1.00
C761   C     0.57887   0.88092   0.99672   0.00000  Uiso   1.00
C762   C     0.58999   0.90135   0.94811   0.00000  Uiso   1.00
C763   C     0.54475   0.88730   0.91865   0.00000  Uiso   1.00
C764   C     0.51033   0.82974   0.56733   0.00000  Uiso   1.00
C765   C     0.61549   0.87721   0.57517   0.00000  Uiso   1.00
C766   C     0.44515   0.83062   0.90345   0.00000  Uiso   1.00
H767   H     0.46691   0.80367   0.58466   0.00000  Uiso   1.00
H768   H     0.35051   0.78763   0.90030   0.00000  Uiso   1.00
H769   H     0.39429   0.79219   0.54601   0.00000  Uiso   1.00
H770   H     0.65315   0.76827   0.99154   0.00000  Uiso   1.00
H771   H     0.55482   0.90636   0.88228   0.00000  Uiso   1.00
C772   C     0.52364   0.98936   0.75224   0.00000  Uiso   1.00
H773   H     0.56920   0.67984   0.75653   0.00000  Uiso   1.00
C774   C     0.47637   0.67730   0.74772   0.00000  Uiso   1.00
H775   H     0.43082   0.98682   0.74342   0.00000  Uiso   1.00
N776   N     0.64908   0.84741   0.76416   0.00000  Uiso   1.00
H777   H     0.33703   0.87269   0.78950   0.00000  Uiso   1.00
N778   N     0.35092   0.81926   0.73584   0.00000  Uiso   1.00
H779   H     0.66290   0.79387   0.71061   0.00000  Uiso   1.00
N780   N     0.66494   0.89329   0.60306   0.00000  Uiso   1.00
O781   O     0.35390   0.85783   0.62048   0.00000  Uiso   1.00
O782   O     0.36353   0.94186   0.60094   0.00000  Uiso   1.00
O783   O     0.79464   0.90474   0.74633   0.00000  Uiso   1.00
O784   O     0.89524   0.91422   0.75587   0.00000  Uiso   1.00
C785   C     0.84845   0.93341   0.75151   0.00000  Uiso   1.00
O786   O     0.75848   0.82627   0.81840   0.00000  Uiso   1.00
O787   O     0.85908   0.83575   0.82793   0.00000  Uiso   1.00
C788   C     0.79964   0.83242   0.84728   0.00000  Uiso   1.00
Cu789  Cu    0.77377   0.82772   0.74436   0.00000  Uiso   1.00
Cu790  Cu    0.89290   0.83895   0.75565   0.00000  Uiso   1.00
O791   O     0.77142   0.75245   0.74414   0.00000  Uiso   1.00
O792   O     0.87203   0.76193   0.75367   0.00000  Uiso   1.00
O793   O     0.80758   0.83092   0.67207   0.00000  Uiso   1.00
O794   O     0.90819   0.84040   0.68161   0.00000  Uiso   1.00
C795   C     0.81822   0.73326   0.74848   0.00000  Uiso   1.00
C796   C     0.86767   0.83745   0.65278   0.00000  Uiso   1.00
C797   C     0.95948   0.89440   0.52511   0.00000  Uiso   1.00
H798   H     0.96729   0.92848   0.93271   0.00000  Uiso   1.00
H799   H     0.67156   0.91893   0.50843   0.00000  Uiso   1.00
C800   C     0.88910   0.84617   0.59726   0.00000  Uiso   1.00
C801   C     0.71753   0.80236   0.92430   0.00000  Uiso   1.00
C802   C     0.70028   0.79038   0.97586   0.00000  Uiso   1.00
C803   C     0.74414   0.80444   0.50693   0.00000  Uiso   1.00
C804   C     0.80591   0.83398   0.98759   0.00000  Uiso   1.00
C805   C     0.82102   0.85072   0.93614   0.00000  Uiso   1.00
C806   C     0.85317   0.84774   0.51745   0.00000  Uiso   1.00
C807   C     0.91221   0.88092   0.99672   0.00000  Uiso   1.00
C808   C     0.92332   0.90135   0.94811   0.00000  Uiso   1.00
C809   C     0.87809   0.88730   0.91865   0.00000  Uiso   1.00
C810   C     0.84366   0.82974   0.56733   0.00000  Uiso   1.00
C811   C     0.94883   0.87721   0.57517   0.00000  Uiso   1.00
C812   C     0.77848   0.83062   0.90345   0.00000  Uiso   1.00
H813   H     0.80025   0.80367   0.58466   0.00000  Uiso   1.00
H814   H     0.68384   0.78763   0.90030   0.00000  Uiso   1.00
H815   H     0.72763   0.79219   0.54601   0.00000  Uiso   1.00
H816   H     0.98649   0.76827   0.99154   0.00000  Uiso   1.00
H817   H     0.88815   0.90636   0.88228   0.00000  Uiso   1.00
C818   C     0.85698   0.98936   0.75224   0.00000  Uiso   1.00
H819   H     0.90253   0.67984   0.75653   0.00000  Uiso   1.00
C820   C     0.80971   0.67730   0.74772   0.00000  Uiso   1.00
H821   H     0.76416   0.98682   0.74342   0.00000  Uiso   1.00
N822   N     0.98241   0.84741   0.76416   0.00000  Uiso   1.00
H823   H     0.67036   0.87269   0.78950   0.00000  Uiso   1.00
N824   N     0.68426   0.81926   0.73584   0.00000  Uiso   1.00
H825   H     0.99624   0.79387   0.71061   0.00000  Uiso   1.00
N826   N     0.99827   0.89329   0.60306   0.00000  Uiso   1.00
O827   O     0.68723   0.85783   0.62048   0.00000  Uiso   1.00
O828   O     0.69687   0.94186   0.60094   0.00000  Uiso   1.00
loop_
_geom_bond_atom_site_label_1
_geom_bond_atom_site_label_2
_geom_bond_distance
_geom_bond_site_symmetry_2
_ccdc_geom_bond_type
O1     Cu7     1.956   .     S
O1     C3      1.291   .     A
O2     C3      1.285   .     A
O2     Cu8     1.952   .     S
C3     C36     1.428   .     S
O4     Cu7     1.939   .     S
O4     C6      1.303   .     A
O5     Cu8     1.917   .     S
O5     C6      1.295   .     A
C6     C30     1.475   .     S
Cu7    Cu8     2.685   .     S
Cu7    O11     1.917   .     S
Cu7    N42     2.018   .     S
Cu7    O9      1.952   .     S
Cu8    O12     1.939   .     S
Cu8    O10     1.956   .     S
Cu8    N40     2.018   .     S
O9     C13     1.285   .     A
O10    C13     1.291   .     A
O11    C14     1.299   .     A
O12    C14     1.299   .     A
C13    C38     1.428   .     S
C14    C18     1.475   .     S
C15    C29     1.398   .     A
C15    H63     1.085   .     S
C15    C439    1.401   1_554 S
H16    C26     1.084   .     S
H17    C107    1.085   1_455 S
C18    C29     1.415   .     A
C18    C28     1.403   .     A
C19    C20     1.388   .     A
C19    H32     1.083   .     S
C19    C30     1.401   .     A
C20    C435    1.392   .     S
C20    H126    1.083   1_455 S
C21    H33     1.076   .     S
C21    C434    1.392   1_554 S
C21    C436    1.418   1_554 S
C22    C23     1.420   .     A
C22    C435    1.418   .     S
C22    C438    1.428   .     S
C23    C27     1.411   .     A
C23    C30     1.421   .     A
C24    C28     1.404   .     A
C24    C436    1.428   1_554 S
C24    C439    1.418   1_554 S
C25    C26     1.392   .     A
C25    C438    1.418   .     S
C25    C429    1.401   .     S
C26    C27     1.385   .     A
C27    H35     1.081   .     S
C28    H31     1.076   .     S
C29    N44     1.435   .     S
H34    C66     1.083   .     S
C36    H175    1.088   .     S
C36    C176    1.328   .     S
H37    C312    1.088   1_545 S
C38    C312    1.328   1_545 S
C38    H315    1.088   1_545 S
H39    C176    1.088   .     S
N40    H87     1.029   .     S
N40    N88     1.284   .     S
H41    N132    1.029   1_455 S
N42    N132    1.284   1_455 S
N42    H135    1.029   1_455 S
H43    N88     1.029   .     S
N44    O91     1.301   .     S
N44    O92     1.302   .     S
O45    N136    1.301   1_455 S
O46    N136    1.302   1_455 S
O47    Cu53    1.956   .     S
O47    C49     1.291   .     A
O48    C49     1.285   .     A
O48    Cu54    1.952   .     S
C49    C82     1.428   .     S
O50    Cu53    1.939   .     S
O50    C52     1.303   .     A
O51    Cu54    1.917   .     S
O51    C52     1.295   .     A
C52    C76     1.475   .     S
Cu53   Cu54    2.685   .     S
Cu53   O57     1.917   .     S
Cu53   N88     2.018   .     S
Cu53   O55     1.952   .     S
Cu54   O58     1.939   .     S
Cu54   O56     1.956   .     S
Cu54   N86     2.018   .     S
O55    C59     1.285   .     A
O56    C59     1.291   .     A
O57    C60     1.299   .     A
O58    C60     1.299   .     A
C59    C84     1.428   .     S
C60    C64     1.475   .     S
C61    C75     1.398   .     A
C61    H109    1.085   .     S
C61    C485    1.401   1_554 S
H62    C72     1.084   .     S
C64    C75     1.415   .     A
C64    C74     1.403   .     A
C65    C66     1.388   .     A
C65    H78     1.083   .     S
C65    C76     1.401   .     A
C66    C481    1.392   .     S
C67    H79     1.076   .     S
C67    C480    1.392   1_554 S
C67    C482    1.418   1_554 S
C68    C69     1.420   .     A
C68    C481    1.418   .     S
C68    C484    1.428   .     S
C69    C73     1.411   .     A
C69    C76     1.421   .     A
C70    C74     1.404   .     A
C70    C482    1.428   1_554 S
C70    C485    1.418   1_554 S
C71    C72     1.392   .     A
C71    C484    1.418   .     S
C71    C475    1.401   .     S
C72    C73     1.385   .     A
C73    H81     1.081   .     S
C74    H77     1.076   .     S
C75    N90     1.435   .     S
H80    C112    1.083   .     S
C82    H221    1.088   .     S
C82    C222    1.328   .     S
H83    C358    1.088   1_545 S
C84    C358    1.328   1_545 S
C84    H361    1.088   1_545 S
H85    C222    1.088   .     S
N86    H133    1.029   .     S
N86    N134    1.284   .     S
H89    N134    1.029   .     S
N90    O137    1.301   .     S
N90    O138    1.302   .     S
O93    Cu99    1.956   .     S
O93    C95     1.291   .     A
O94    C95     1.285   .     A
O94    Cu100   1.952   .     S
C95    C128    1.428   .     S
O96    Cu99    1.939   .     S
O96    C98     1.303   .     A
O97    Cu100   1.917   .     S
O97    C98     1.295   .     A
C98    C122    1.475   .     S
Cu99   Cu100   2.685   .     S
Cu99   O103    1.917   .     S
Cu99   N134    2.018   .     S
Cu99   O101    1.952   .     S
Cu100  O104    1.939   .     S
Cu100  O102    1.956   .     S
Cu100  N132    2.018   .     S
O101   C105    1.285   .     A
O102   C105    1.291   .     A
O103   C106    1.299   .     A
O104   C106    1.299   .     A
C105   C130    1.428   .     S
C106   C110    1.475   .     S
C107   C121    1.398   .     A
C107   H17     1.085   1_655 S
C107   C531    1.401   1_554 S
H108   C118    1.084   .     S
C110   C121    1.415   .     A
C110   C120    1.403   .     A
C111   C112    1.388   .     A
C111   H124    1.083   .     S
C111   C122    1.401   .     A
C112   C527    1.392   .     S
C113   H125    1.076   .     S
C113   C526    1.392   1_554 S
C113   C528    1.418   1_554 S
C114   C115    1.420   .     A
C114   C527    1.418   .     S
C114   C530    1.428   .     S
C115   C119    1.411   .     A
C115   C122    1.421   .     A
C116   C120    1.404   .     A
C116   C528    1.428   1_554 S
C116   C531    1.418   1_554 S
C117   C118    1.392   .     A
C117   C530    1.418   .     S
C117   C521    1.401   .     S
C118   C119    1.385   .     A
C119   H127    1.081   .     S
C120   H123    1.076   .     S
C121   N136    1.435   .     S
H126   C20     1.083   1_655 S
C128   H267    1.088   .     S
C128   C268    1.328   .     S
H129   C404    1.088   1_545 S
C130   C404    1.328   1_545 S
C130   H407    1.088   1_545 S
H131   C268    1.088   .     S
N132   H41     1.029   1_655 S
N132   N42     1.284   1_655 S
H135   N42     1.029   1_655 S
N136   O45     1.301   1_655 S
N136   O46     1.302   1_655 S
O139   Cu145   1.956   .     S
O139   C141    1.291   .     A
O140   C141    1.285   .     A
O140   Cu146   1.952   .     S
C141   C174    1.428   .     S
O142   Cu145   1.939   .     S
O142   C144    1.303   .     A
O143   Cu146   1.917   .     S
O143   C144    1.295   .     A
C144   C168    1.475   .     S
Cu145  Cu146   2.685   .     S
Cu145  O149    1.917   .     S
Cu145  N180    2.018   .     S
Cu145  O147    1.952   .     S
Cu146  O150    1.939   .     S
Cu146  O148    1.956   .     S
Cu146  N178    2.018   .     S
O147   C151    1.285   .     A
O148   C151    1.291   .     A
O149   C152    1.299   .     A
O150   C152    1.299   .     A
C151   C176    1.428   .     S
C152   C156    1.475   .     S
C153   C167    1.398   .     A
C153   H201    1.085   .     S
C153   C577    1.401   1_554 S
H154   C164    1.084   .     S
H155   C245    1.085   1_455 S
C156   C167    1.415   .     A
C156   C166    1.403   .     A
C157   C158    1.388   .     A
C157   H170    1.083   .     S
C157   C168    1.401   .     A
C158   C573    1.392   .     S
C158   H264    1.083   1_455 S
C159   H171    1.076   .     S
C159   C572    1.392   1_554 S
C159   C574    1.418   1_554 S
C160   C161    1.420   .     A
C160   C573    1.418   .     S
C160   C576    1.428   .     S
C161   C165    1.411   .     A
C161   C168    1.421   .     A
C162   C166    1.404   .     A
C162   C574    1.428   1_554 S
C162   C577    1.418   1_554 S
C163   C164    1.392   .     A
C163   C576    1.418   .     S
C163   C567    1.401   .     S
C164   C165    1.385   .     A
C165   H173    1.081   .     S
C166   H169    1.076   .     S
C167   N182    1.435   .     S
H172   C204    1.083   .     S
C174   H313    1.088   .     S
C174   C314    1.328   .     S
H177   C314    1.088   .     S
N178   H225    1.029   .     S
N178   N226    1.284   .     S
H179   N270    1.029   1_455 S
N180   N270    1.284   1_455 S
N180   H273    1.029   1_455 S
H181   N226    1.029   .     S
N182   O229    1.301   .     S
N182   O230    1.302   .     S
O183   N274    1.301   1_455 S
O184   N274    1.302   1_455 S
O185   Cu191   1.956   .     S
O185   C187    1.291   .     A
O186   C187    1.285   .     A
O186   Cu192   1.952   .     S
C187   C220    1.428   .     S
O188   Cu191   1.939   .     S
O188   C190    1.303   .     A
O189   Cu192   1.917   .     S
O189   C190    1.295   .     A
C190   C214    1.475   .     S
Cu191  Cu192   2.685   .     S
Cu191  O195    1.917   .     S
Cu191  N226    2.018   .     S
Cu191  O193    1.952   .     S
Cu192  O196    1.939   .     S
Cu192  O194    1.956   .     S
Cu192  N224    2.018   .     S
O193   C197    1.285   .     A
O194   C197    1.291   .     A
O195   C198    1.299   .     A
O196   C198    1.299   .     A
C197   C222    1.428   .     S
C198   C202    1.475   .     S
C199   C213    1.398   .     A
C199   H247    1.085   .     S
C199   C623    1.401   1_554 S
H200   C210    1.084   .     S
C202   C213    1.415   .     A
C202   C212    1.403   .     A
C203   C204    1.388   .     A
C203   H216    1.083   .     S
C203   C214    1.401   .     A
C204   C619    1.392   .     S
C205   H217    1.076   .     S
C205   C618    1.392   1_554 S
C205   C620    1.418   1_554 S
C206   C207    1.420   .     A
C206   C619    1.418   .     S
C206   C622    1.428   .     S
C207   C211    1.411   .     A
C207   C214    1.421   .     A
C208   C212    1.404   .     A
C208   C620    1.428   1_554 S
C208   C623    1.418   1_554 S
C209   C210    1.392   .     A
C209   C622    1.418   .     S
C209   C613    1.401   .     S
C210   C211    1.385   .     A
C211   H219    1.081   .     S
C212   H215    1.076   .     S
C213   N228    1.435   .     S
H218   C250    1.083   .     S
C220   H359    1.088   .     S
C220   C360    1.328   .     S
H223   C360    1.088   .     S
N224   H271    1.029   .     S
N224   N272    1.284   .     S
H227   N272    1.029   .     S
N228   O275    1.301   .     S
N228   O276    1.302   .     S
O231   Cu237   1.956   .     S
O231   C233    1.291   .     A
O232   C233    1.285   .     A
O232   Cu238   1.952   .     S
C233   C266    1.428   .     S
O234   Cu237   1.939   .     S
O234   C236    1.303   .     A
O235   Cu238   1.917   .     S
O235   C236    1.295   .     A
C236   C260    1.475   .     S
Cu237  Cu238   2.685   .     S
Cu237  O241    1.917   .     S
Cu237  N272    2.018   .     S
Cu237  O239    1.952   .     S
Cu238  O242    1.939   .     S
Cu238  O240    1.956   .     S
Cu238  N270    2.018   .     S
O239   C243    1.285   .     A
O240   C243    1.291   .     A
O241   C244    1.299   .     A
O242   C244    1.299   .     A
C243   C268    1.428   .     S
C244   C248    1.475   .     S
C245   C259    1.398   .     A
C245   H155    1.085   1_655 S
C245   C669    1.401   1_554 S
H246   C256    1.084   .     S
C248   C259    1.415   .     A
C248   C258    1.403   .     A
C249   C250    1.388   .     A
C249   H262    1.083   .     S
C249   C260    1.401   .     A
C250   C665    1.392   .     S
C251   H263    1.076   .     S
C251   C664    1.392   1_554 S
C251   C666    1.418   1_554 S
C252   C253    1.420   .     A
C252   C665    1.418   .     S
C252   C668    1.428   .     S
C253   C257    1.411   .     A
C253   C260    1.421   .     A
C254   C258    1.404   .     A
C254   C666    1.428   1_554 S
C254   C669    1.418   1_554 S
C255   C256    1.392   .     A
C255   C668    1.418   .     S
C255   C659    1.401   .     S
C256   C257    1.385   .     A
C257   H265    1.081   .     S
C258   H261    1.076   .     S
C259   N274    1.435   .     S
H264   C158    1.083   1_655 S
C266   H405    1.088   .     S
C266   C406    1.328   .     S
H269   C406    1.088   .     S
N270   H179    1.029   1_655 S
N270   N180    1.284   1_655 S
H273   N180    1.029   1_655 S
N274   O183    1.301   1_655 S
N274   O184    1.302   1_655 S
O277   Cu283   1.956   .     S
O277   C279    1.291   .     A
O278   C279    1.285   .     A
O278   Cu284   1.952   .     S
C279   C312    1.428   .     S
O280   Cu283   1.939   .     S
O280   C282    1.303   .     A
O281   Cu284   1.917   .     S
O281   C282    1.295   .     A
C282   C306    1.475   .     S
Cu283  Cu284   2.685   .     S
Cu283  O287    1.917   .     S
Cu283  N318    2.018   .     S
Cu283  O285    1.952   .     S
Cu284  O288    1.939   .     S
Cu284  O286    1.956   .     S
Cu284  N316    2.018   .     S
O285   C289    1.285   .     A
O286   C289    1.291   .     A
O287   C290    1.299   .     A
O288   C290    1.299   .     A
C289   C314    1.428   .     S
C290   C294    1.475   .     S
C291   C305    1.398   .     A
C291   H339    1.085   .     S
C291   C715    1.401   1_554 S
H292   C302    1.084   .     S
H293   C383    1.085   1_455 S
C294   C305    1.415   .     A
C294   C304    1.403   .     A
C295   C296    1.388   .     A
C295   H308    1.083   .     S
C295   C306    1.401   .     A
C296   C711    1.392   .     S
C296   H402    1.083   1_455 S
C297   H309    1.076   .     S
C297   C710    1.392   1_554 S
C297   C712    1.418   1_554 S
C298   C299    1.420   .     A
C298   C711    1.418   .     S
C298   C714    1.428   .     S
C299   C303    1.411   .     A
C299   C306    1.421   .     A
C300   C304    1.404   .     A
C300   C712    1.428   1_554 S
C300   C715    1.418   1_554 S
C301   C302    1.392   .     A
C301   C714    1.418   .     S
C301   C705    1.401   .     S
C302   C303    1.385   .     A
C303   H311    1.081   .     S
C304   H307    1.076   .     S
C305   N320    1.435   .     S
H310   C342    1.083   .     S
C312   H37     1.088   1_565 S
C312   C38     1.328   1_565 S
H315   C38     1.088   1_565 S
N316   H363    1.029   .     S
N316   N364    1.284   .     S
H317   N408    1.029   1_455 S
N318   N408    1.284   1_455 S
N318   H411    1.029   1_455 S
H319   N364    1.029   .     S
N320   O367    1.301   .     S
N320   O368    1.302   .     S
O321   N412    1.301   1_455 S
O322   N412    1.302   1_455 S
O323   Cu329   1.956   .     S
O323   C325    1.291   .     A
O324   C325    1.285   .     A
O324   Cu330   1.952   .     S
C325   C358    1.428   .     S
O326   Cu329   1.939   .     S
O326   C328    1.303   .     A
O327   Cu330   1.917   .     S
O327   C328    1.295   .     A
C328   C352    1.475   .     S
Cu329  Cu330   2.685   .     S
Cu329  O333    1.917   .     S
Cu329  N364    2.018   .     S
Cu329  O331    1.952   .     S
Cu330  O334    1.939   .     S
Cu330  O332    1.956   .     S
Cu330  N362    2.018   .     S
O331   C335    1.285   .     A
O332   C335    1.291   .     A
O333   C336    1.299   .     A
O334   C336    1.299   .     A
C335   C360    1.428   .     S
C336   C340    1.475   .     S
C337   C351    1.398   .     A
C337   H385    1.085   .     S
C337   C761    1.401   1_554 S
H338   C348    1.084   .     S
C340   C351    1.415   .     A
C340   C350    1.403   .     A
C341   C342    1.388   .     A
C341   H354    1.083   .     S
C341   C352    1.401   .     A
C342   C757    1.392   .     S
C343   H355    1.076   .     S
C343   C756    1.392   1_554 S
C343   C758    1.418   1_554 S
C344   C345    1.420   .     A
C344   C757    1.418   .     S
C344   C760    1.428   .     S
C345   C349    1.411   .     A
C345   C352    1.421   .     A
C346   C350    1.404   .     A
C346   C758    1.428   1_554 S
C346   C761    1.418   1_554 S
C347   C348    1.392   .     A
C347   C760    1.418   .     S
C347   C751    1.401   .     S
C348   C349    1.385   .     A
C349   H357    1.081   .     S
C350   H353    1.076   .     S
C351   N366    1.435   .     S
H356   C388    1.083   .     S
C358   H83     1.088   1_565 S
C358   C84     1.328   1_565 S
H361   C84     1.088   1_565 S
N362   H409    1.029   .     S
N362   N410    1.284   .     S
H365   N410    1.029   .     S
N366   O413    1.301   .     S
N366   O414    1.302   .     S
O369   Cu375   1.956   .     S
O369   C371    1.291   .     A
O370   C371    1.285   .     A
O370   Cu376   1.952   .     S
C371   C404    1.428   .     S
O372   Cu375   1.939   .     S
O372   C374    1.303   .     A
O373   Cu376   1.917   .     S
O373   C374    1.295   .     A
C374   C398    1.475   .     S
Cu375  Cu376   2.685   .     S
Cu375  O379    1.917   .     S
Cu375  N410    2.018   .     S
Cu375  O377    1.952   .     S
Cu376  O380    1.939   .     S
Cu376  O378    1.956   .     S
Cu376  N408    2.018   .     S
O377   C381    1.285   .     A
O378   C381    1.291   .     A
O379   C382    1.299   .     A
O380   C382    1.299   .     A
C381   C406    1.428   .     S
C382   C386    1.475   .     S
C383   C397    1.398   .     A
C383   H293    1.085   1_655 S
C383   C807    1.401   1_554 S
H384   C394    1.084   .     S
C386   C397    1.415   .     A
C386   C396    1.403   .     A
C387   C388    1.388   .     A
C387   H400    1.083   .     S
C387   C398    1.401   .     A
C388   C803    1.392   .     S
C389   H401    1.076   .     S
C389   C802    1.392   1_554 S
C389   C804    1.418   1_554 S
C390   C391    1.420   .     A
C390   C803    1.418   .     S
C390   C806    1.428   .     S
C391   C395    1.411   .     A
C391   C398    1.421   .     A
C392   C396    1.404   .     A
C392   C804    1.428   1_554 S
C392   C807    1.418   1_554 S
C393   C394    1.392   .     A
C393   C806    1.418   .     S
C393   C797    1.401   .     S
C394   C395    1.385   .     A
C395   H403    1.081   .     S
C396   H399    1.076   .     S
C397   N412    1.435   .     S
H402   C296    1.083   1_655 S
C404   H129    1.088   1_565 S
C404   C130    1.328   1_565 S
H407   C130    1.088   1_565 S
N408   H317    1.029   1_655 S
N408   N318    1.284   1_655 S
H411   N318    1.029   1_655 S
N412   O321    1.301   1_655 S
N412   O322    1.302   1_655 S
O415   Cu421   1.956   .     S
O415   C417    1.291   .     A
O416   C417    1.285   .     A
O416   Cu422   1.952   .     S
C417   C450    1.428   .     S
O418   Cu421   1.939   .     S
O418   C420    1.303   .     A
O419   Cu422   1.917   .     S
O419   C420    1.295   .     A
C420   C444    1.475   .     S
Cu421  Cu422   2.685   .     S
Cu421  O425    1.917   .     S
Cu421  N456    2.018   .     S
Cu421  O423    1.952   .     S
Cu422  O426    1.939   .     S
Cu422  O424    1.956   .     S
Cu422  N454    2.018   .     S
O423   C427    1.285   .     A
O424   C427    1.291   .     A
O425   C428    1.299   .     A
O426   C428    1.299   .     A
C427   C452    1.428   .     S
C428   C432    1.475   .     S
C429   C443    1.398   .     A
C429   H477    1.085   .     S
H430   C440    1.084   .     S
H431   C521    1.085   1_455 S
C432   C443    1.415   .     A
C432   C442    1.403   .     A
C433   C434    1.388   .     A
C433   H446    1.083   .     S
C433   C444    1.401   .     A
C434   C21     1.392   1_556 S
C434   H540    1.083   1_455 S
C435   H447    1.076   .     S
C436   C437    1.420   .     A
C436   C21     1.418   1_556 S
C436   C24     1.428   1_556 S
C437   C441    1.411   .     A
C437   C444    1.421   .     A
C438   C442    1.404   .     A
C439   C440    1.392   .     A
C439   C24     1.418   1_556 S
C439   C15     1.401   1_556 S
C440   C441    1.385   .     A
C441   H449    1.081   .     S
C442   H445    1.076   .     S
C443   N458    1.435   .     S
H448   C480    1.083   .     S
C450   H589    1.088   .     S
C450   C590    1.328   .     S
H451   C726    1.088   1_545 S
C452   C726    1.328   1_545 S
C452   H729    1.088   1_545 S
H453   C590    1.088   .     S
N454   H501    1.029   .     S
N454   N502    1.284   .     S
H455   N546    1.029   1_455 S
N456   N546    1.284   1_455 S
N456   H549    1.029   1_455 S
H457   N502    1.029   .     S
N458   O505    1.301   .     S
N458   O506    1.302   .     S
O459   N550    1.301   1_455 S
O460   N550    1.302   1_455 S
O461   Cu467   1.956   .     S
O461   C463    1.291   .     A
O462   C463    1.285   .     A
O462   Cu468   1.952   .     S
C463   C496    1.428   .     S
O464   Cu467   1.939   .     S
O464   C466    1.303   .     A
O465   Cu468   1.917   .     S
O465   C466    1.295   .     A
C466   C490    1.475   .     S
Cu467  Cu468   2.685   .     S
Cu467  O471    1.917   .     S
Cu467  N502    2.018   .     S
Cu467  O469    1.952   .     S
Cu468  O472    1.939   .     S
Cu468  O470    1.956   .     S
Cu468  N500    2.018   .     S
O469   C473    1.285   .     A
O470   C473    1.291   .     A
O471   C474    1.299   .     A
O472   C474    1.299   .     A
C473   C498    1.428   .     S
C474   C478    1.475   .     S
C475   C489    1.398   .     A
C475   H523    1.085   .     S
H476   C486    1.084   .     S
C478   C489    1.415   .     A
C478   C488    1.403   .     A
C479   C480    1.388   .     A
C479   H492    1.083   .     S
C479   C490    1.401   .     A
C480   C67     1.392   1_556 S
C481   H493    1.076   .     S
C482   C483    1.420   .     A
C482   C67     1.418   1_556 S
C482   C70     1.428   1_556 S
C483   C487    1.411   .     A
C483   C490    1.421   .     A
C484   C488    1.404   .     A
C485   C486    1.392   .     A
C485   C70     1.418   1_556 S
C485   C61     1.401   1_556 S
C486   C487    1.385   .     A
C487   H495    1.081   .     S
C488   H491    1.076   .     S
C489   N504    1.435   .     S
H494   C526    1.083   .     S
C496   H635    1.088   .     S
C496   C636    1.328   .     S
H497   C772    1.088   1_545 S
C498   C772    1.328   1_545 S
C498   H775    1.088   1_545 S
H499   C636    1.088   .     S
N500   H547    1.029   .     S
N500   N548    1.284   .     S
H503   N548    1.029   .     S
N504   O551    1.301   .     S
N504   O552    1.302   .     S
O507   Cu513   1.956   .     S
O507   C509    1.291   .     A
O508   C509    1.285   .     A
O508   Cu514   1.952   .     S
C509   C542    1.428   .     S
O510   Cu513   1.939   .     S
O510   C512    1.303   .     A
O511   Cu514   1.917   .     S
O511   C512    1.295   .     A
C512   C536    1.475   .     S
Cu513  Cu514   2.685   .     S
Cu513  O517    1.917   .     S
Cu513  N548    2.018   .     S
Cu513  O515    1.952   .     S
Cu514  O518    1.939   .     S
Cu514  O516    1.956   .     S
Cu514  N546    2.018   .     S
O515   C519    1.285   .     A
O516   C519    1.291   .     A
O517   C520    1.299   .     A
O518   C520    1.299   .     A
C519   C544    1.428   .     S
C520   C524    1.475   .     S
C521   C535    1.398   .     A
C521   H431    1.085   1_655 S
H522   C532    1.084   .     S
C524   C535    1.415   .     A
C524   C534    1.403   .     A
C525   C526    1.388   .     A
C525   H538    1.083   .     S
C525   C536    1.401   .     A
C526   C113    1.392   1_556 S
C527   H539    1.076   .     S
C528   C529    1.420   .     A
C528   C113    1.418   1_556 S
C528   C116    1.428   1_556 S
C529   C533    1.411   .     A
C529   C536    1.421   .     A
C530   C534    1.404   .     A
C531   C532    1.392   .     A
C531   C116    1.418   1_556 S
C531   C107    1.401   1_556 S
C532   C533    1.385   .     A
C533   H541    1.081   .     S
C534   H537    1.076   .     S
C535   N550    1.435   .     S
H540   C434    1.083   1_655 S
C542   H681    1.088   .     S
C542   C682    1.328   .     S
H543   C818    1.088   1_545 S
C544   C818    1.328   1_545 S
C544   H821    1.088   1_545 S
H545   C682    1.088   .     S
N546   H455    1.029   1_655 S
N546   N456    1.284   1_655 S
H549   N456    1.029   1_655 S
N550   O459    1.301   1_655 S
N550   O460    1.302   1_655 S
O553   Cu559   1.956   .     S
O553   C555    1.291   .     A
O554   C555    1.285   .     A
O554   Cu560   1.952   .     S
C555   C588    1.428   .     S
O556   Cu559   1.939   .     S
O556   C558    1.303   .     A
O557   Cu560   1.917   .     S
O557   C558    1.295   .     A
C558   C582    1.475   .     S
Cu559  Cu560   2.685   .     S
Cu559  O563    1.917   .     S
Cu559  N594    2.018   .     S
Cu559  O561    1.952   .     S
Cu560  O564    1.939   .     S
Cu560  O562    1.956   .     S
Cu560  N592    2.018   .     S
O561   C565    1.285   .     A
O562   C565    1.291   .     A
O563   C566    1.299   .     A
O564   C566    1.299   .     A
C565   C590    1.428   .     S
C566   C570    1.475   .     S
C567   C581    1.398   .     A
C567   H615    1.085   .     S
H568   C578    1.084   .     S
H569   C659    1.085   1_455 S
C570   C581    1.415   .     A
C570   C580    1.403   .     A
C571   C572    1.388   .     A
C571   H584    1.083   .     S
C571   C582    1.401   .     A
C572   C159    1.392   1_556 S
C572   H678    1.083   1_455 S
C573   H585    1.076   .     S
C574   C575    1.420   .     A
C574   C159    1.418   1_556 S
C574   C162    1.428   1_556 S
C575   C579    1.411   .     A
C575   C582    1.421   .     A
C576   C580    1.404   .     A
C577   C578    1.392   .     A
C577   C162    1.418   1_556 S
C577   C153    1.401   1_556 S
C578   C579    1.385   .     A
C579   H587    1.081   .     S
C580   H583    1.076   .     S
C581   N596    1.435   .     S
H586   C618    1.083   .     S
C588   H727    1.088   .     S
C588   C728    1.328   .     S
H591   C728    1.088   .     S
N592   H639    1.029   .     S
N592   N640    1.284   .     S
H593   N684    1.029   1_455 S
N594   N684    1.284   1_455 S
N594   H687    1.029   1_455 S
H595   N640    1.029   .     S
N596   O643    1.301   .     S
N596   O644    1.302   .     S
O597   N688    1.301   1_455 S
O598   N688    1.302   1_455 S
O599   Cu605   1.956   .     S
O599   C601    1.291   .     A
O600   C601    1.285   .     A
O600   Cu606   1.952   .     S
C601   C634    1.428   .     S
O602   Cu605   1.939   .     S
O602   C604    1.303   .     A
O603   Cu606   1.917   .     S
O603   C604    1.295   .     A
C604   C628    1.475   .     S
Cu605  Cu606   2.685   .     S
Cu605  O609    1.917   .     S
Cu605  N640    2.018   .     S
Cu605  O607    1.952   .     S
Cu606  O610    1.939   .     S
Cu606  O608    1.956   .     S
Cu606  N638    2.018   .     S
O607   C611    1.285   .     A
O608   C611    1.291   .     A
O609   C612    1.299   .     A
O610   C612    1.299   .     A
C611   C636    1.428   .     S
C612   C616    1.475   .     S
C613   C627    1.398   .     A
C613   H661    1.085   .     S
H614   C624    1.084   .     S
C616   C627    1.415   .     A
C616   C626    1.403   .     A
C617   C618    1.388   .     A
C617   H630    1.083   .     S
C617   C628    1.401   .     A
C618   C205    1.392   1_556 S
C619   H631    1.076   .     S
C620   C621    1.420   .     A
C620   C205    1.418   1_556 S
C620   C208    1.428   1_556 S
C621   C625    1.411   .     A
C621   C628    1.421   .     A
C622   C626    1.404   .     A
C623   C624    1.392   .     A
C623   C208    1.418   1_556 S
C623   C199    1.401   1_556 S
C624   C625    1.385   .     A
C625   H633    1.081   .     S
C626   H629    1.076   .     S
C627   N642    1.435   .     S
H632   C664    1.083   .     S
C634   H773    1.088   .     S
C634   C774    1.328   .     S
H637   C774    1.088   .     S
N638   H685    1.029   .     S
N638   N686    1.284   .     S
H641   N686    1.029   .     S
N642   O689    1.301   .     S
N642   O690    1.302   .     S
O645   Cu651   1.956   .     S
O645   C647    1.291   .     A
O646   C647    1.285   .     A
O646   Cu652   1.952   .     S
C647   C680    1.428   .     S
O648   Cu651   1.939   .     S
O648   C650    1.303   .     A
O649   Cu652   1.917   .     S
O649   C650    1.295   .     A
C650   C674    1.475   .     S
Cu651  Cu652   2.685   .     S
Cu651  O655    1.917   .     S
Cu651  N686    2.018   .     S
Cu651  O653    1.952   .     S
Cu652  O656    1.939   .     S
Cu652  O654    1.956   .     S
Cu652  N684    2.018   .     S
O653   C657    1.285   .     A
O654   C657    1.291   .     A
O655   C658    1.299   .     A
O656   C658    1.299   .     A
C657   C682    1.428   .     S
C658   C662    1.475   .     S
C659   C673    1.398   .     A
C659   H569    1.085   1_655 S
H660   C670    1.084   .     S
C662   C673    1.415   .     A
C662   C672    1.403   .     A
C663   C664    1.388   .     A
C663   H676    1.083   .     S
C663   C674    1.401   .     A
C664   C251    1.392   1_556 S
C665   H677    1.076   .     S
C666   C667    1.420   .     A
C666   C251    1.418   1_556 S
C666   C254    1.428   1_556 S
C667   C671    1.411   .     A
C667   C674    1.421   .     A
C668   C672    1.404   .     A
C669   C670    1.392   .     A
C669   C254    1.418   1_556 S
C669   C245    1.401   1_556 S
C670   C671    1.385   .     A
C671   H679    1.081   .     S
C672   H675    1.076   .     S
C673   N688    1.435   .     S
H678   C572    1.083   1_655 S
C680   H819    1.088   .     S
C680   C820    1.328   .     S
H683   C820    1.088   .     S
N684   H593    1.029   1_655 S
N684   N594    1.284   1_655 S
H687   N594    1.029   1_655 S
N688   O597    1.301   1_655 S
N688   O598    1.302   1_655 S
O691   Cu697   1.956   .     S
O691   C693    1.291   .     A
O692   C693    1.285   .     A
O692   Cu698   1.952   .     S
C693   C726    1.428   .     S
O694   Cu697   1.939   .     S
O694   C696    1.303   .     A
O695   Cu698   1.917   .     S
O695   C696    1.295   .     A
C696   C720    1.475   .     S
Cu697  Cu698   2.685   .     S
Cu697  O701    1.917   .     S
Cu697  N732    2.018   .     S
Cu697  O699    1.952   .     S
Cu698  O702    1.939   .     S
Cu698  O700    1.956   .     S
Cu698  N730    2.018   .     S
O699   C703    1.285   .     A
O700   C703    1.291   .     A
O701   C704    1.299   .     A
O702   C704    1.299   .     A
C703   C728    1.428   .     S
C704   C708    1.475   .     S
C705   C719    1.398   .     A
C705   H753    1.085   .     S
H706   C716    1.084   .     S
H707   C797    1.085   1_455 S
C708   C719    1.415   .     A
C708   C718    1.403   .     A
C709   C710    1.388   .     A
C709   H722    1.083   .     S
C709   C720    1.401   .     A
C710   C297    1.392   1_556 S
C710   H816    1.083   1_455 S
C711   H723    1.076   .     S
C712   C713    1.420   .     A
C712   C297    1.418   1_556 S
C712   C300    1.428   1_556 S
C713   C717    1.411   .     A
C713   C720    1.421   .     A
C714   C718    1.404   .     A
C715   C716    1.392   .     A
C715   C300    1.418   1_556 S
C715   C291    1.401   1_556 S
C716   C717    1.385   .     A
C717   H725    1.081   .     S
C718   H721    1.076   .     S
C719   N734    1.435   .     S
H724   C756    1.083   .     S
C726   H451    1.088   1_565 S
C726   C452    1.328   1_565 S
H729   C452    1.088   1_565 S
N730   H777    1.029   .     S
N730   N778    1.284   .     S
H731   N822    1.029   1_455 S
N732   N822    1.284   1_455 S
N732   H825    1.029   1_455 S
H733   N778    1.029   .     S
N734   O781    1.301   .     S
N734   O782    1.302   .     S
O735   N826    1.301   1_455 S
O736   N826    1.302   1_455 S
O737   Cu743   1.956   .     S
O737   C739    1.291   .     A
O738   C739    1.285   .     A
O738   Cu744   1.952   .     S
C739   C772    1.428   .     S
O740   Cu743   1.939   .     S
O740   C742    1.303   .     A
O741   Cu744   1.917   .     S
O741   C742    1.295   .     A
C742   C766    1.475   .     S
Cu743  Cu744   2.685   .     S
Cu743  O747    1.917   .     S
Cu743  N778    2.018   .     S
Cu743  O745    1.952   .     S
Cu744  O748    1.939   .     S
Cu744  O746    1.956   .     S
Cu744  N776    2.018   .     S
O745   C749    1.285   .     A
O746   C749    1.291   .     A
O747   C750    1.299   .     A
O748   C750    1.299   .     A
C749   C774    1.428   .     S
C750   C754    1.475   .     S
C751   C765    1.398   .     A
C751   H799    1.085   .     S
H752   C762    1.084   .     S
C754   C765    1.415   .     A
C754   C764    1.403   .     A
C755   C756    1.388   .     A
C755   H768    1.083   .     S
C755   C766    1.401   .     A
C756   C343    1.392   1_556 S
C757   H769    1.076   .     S
C758   C759    1.420   .     A
C758   C343    1.418   1_556 S
C758   C346    1.428   1_556 S
C759   C763    1.411   .     A
C759   C766    1.421   .     A
C760   C764    1.404   .     A
C761   C762    1.392   .     A
C761   C346    1.418   1_556 S
C761   C337    1.401   1_556 S
C762   C763    1.385   .     A
C763   H771    1.081   .     S
C764   H767    1.076   .     S
C765   N780    1.435   .     S
H770   C802    1.083   .     S
C772   H497    1.088   1_565 S
C772   C498    1.328   1_565 S
H775   C498    1.088   1_565 S
N776   H823    1.029   .     S
N776   N824    1.284   .     S
H779   N824    1.029   .     S
N780   O827    1.301   .     S
N780   O828    1.302   .     S
O783   Cu789   1.956   .     S
O783   C785    1.291   .     A
O784   C785    1.285   .     A
O784   Cu790   1.952   .     S
C785   C818    1.428   .     S
O786   Cu789   1.939   .     S
O786   C788    1.303   .     A
O787   Cu790   1.917   .     S
O787   C788    1.295   .     A
C788   C812    1.475   .     S
Cu789  Cu790   2.685   .     S
Cu789  O793    1.917   .     S
Cu789  N824    2.018   .     S
Cu789  O791    1.952   .     S
Cu790  O794    1.939   .     S
Cu790  O792    1.956   .     S
Cu790  N822    2.018   .     S
O791   C795    1.285   .     A
O792   C795    1.291   .     A
O793   C796    1.299   .     A
O794   C796    1.299   .     A
C795   C820    1.428   .     S
C796   C800    1.475   .     S
C797   C811    1.398   .     A
C797   H707    1.085   1_655 S
H798   C808    1.084   .     S
C800   C811    1.415   .     A
C800   C810    1.403   .     A
C801   C802    1.388   .     A
C801   H814    1.083   .     S
C801   C812    1.401   .     A
C802   C389    1.392   1_556 S
C803   H815    1.076   .     S
C804   C805    1.420   .     A
C804   C389    1.418   1_556 S
C804   C392    1.428   1_556 S
C805   C809    1.411   .     A
C805   C812    1.421   .     A
C806   C810    1.404   .     A
C807   C808    1.392   .     A
C807   C392    1.418   1_556 S
C807   C383    1.401   1_556 S
C808   C809    1.385   .     A
C809   H817    1.081   .     S
C810   H813    1.076   .     S
C811   N826    1.435   .     S
H816   C710    1.083   1_655 S
C818   H543    1.088   1_565 S
C818   C544    1.328   1_565 S
H821   C544    1.088   1_565 S
N822   H731    1.029   1_655 S
N822   N732    1.284   1_655 S
H825   N732    1.029   1_655 S
N826   O735    1.301   1_655 S
N826   O736    1.302   1_655 S
