data_str_m3_o1_o16_pcu_sym.88
_audit_creation_date              2020-01-03
_audit_creation_method            'Materials Studio'
_symmetry_space_group_name_H-M    'P1'
_symmetry_Int_Tables_number       1
_symmetry_cell_setting            triclinic
loop_
_symmetry_equiv_pos_as_xyz
  x,y,z
_cell_length_a                    29.6165
_cell_length_b                    32.1451
_cell_length_c                    26.6356
_cell_angle_alpha                 90.4573
_cell_angle_beta                  71.6649
_cell_angle_gamma                 89.6895
loop_
_atom_site_label
_atom_site_type_symbol
_atom_site_fract_x
_atom_site_fract_y
_atom_site_fract_z
_atom_site_U_iso_or_equiv
_atom_site_adp_type
_atom_site_occupancy
C1     C     0.16655   0.24668   0.25021   0.00000  Uiso   1.00
C2     C     0.14726   0.18606   0.49000   0.00000  Uiso   1.00
C3     C     0.16121   0.18789   0.43443   0.00000  Uiso   1.00
C4     C     0.18315   0.17929   0.01410   0.00000  Uiso   1.00
C5     C     0.23093   0.17142   0.48249   0.00000  Uiso   1.00
C6     C     0.24446   0.18242   0.42946   0.00000  Uiso   1.00
C7     C     0.20999   0.19402   0.40723   0.00000  Uiso   1.00
C8     C     0.17296   0.17959   0.06851   0.00000  Uiso   1.00
C9     C     0.25251   0.15543   0.06064   0.00000  Uiso   1.00
C10    C     0.12632   0.18344   0.40818   0.00000  Uiso   1.00
C11    C     0.20360   0.31190   0.26113   0.00000  Uiso   1.00
C12    C     0.14095   0.17179   0.35125   0.00000  Uiso   1.00
C13    C     0.20379   0.02119   0.26086   0.00000  Uiso   1.00
C14    C     0.16674   0.04249   0.25004   0.00000  Uiso   1.00
C15    C     0.12947   0.02142   0.23955   0.00000  Uiso   1.00
C16    C     0.12928   0.31213   0.23981   0.00000  Uiso   1.00
C17    C     0.16641   0.29084   0.25049   0.00000  Uiso   1.00
C18    C     0.31650   0.13536   0.22566   0.00000  Uiso   1.00
C19    C     0.03119   0.13558   0.22522   0.00000  Uiso   1.00
C20    C     0.01610   0.19784   0.27510   0.00000  Uiso   1.00
C21    C     0.30232   0.19830   0.27326   0.00000  Uiso   1.00
C22    C     0.16674   0.08666   0.24995   0.00000  Uiso   1.00
C23    C     0.19251   0.16668   0.14867   0.00000  Uiso   1.00
C24    C     0.26444   0.15592   0.00585   0.00000  Uiso   1.00
C25    C     0.20709   0.16791   0.09166   0.00000  Uiso   1.00
C26    C     0.07773   0.18902   0.43793   0.00000  Uiso   1.00
C27    C     0.06458   0.19340   0.49261   0.00000  Uiso   1.00
C28    C     0.09822   0.18957   0.01871   0.00000  Uiso   1.00
H29    H     0.27815   0.14412   0.07882   0.00000  Uiso   1.00
H30    H     0.10074   0.03772   0.23082   0.00000  Uiso   1.00
H31    H     0.10048   0.29600   0.23125   0.00000  Uiso   1.00
H32    H     0.05503   0.11072   0.20531   0.00000  Uiso   1.00
H33    H     0.27883   0.22383   0.29142   0.00000  Uiso   1.00
H34    H     0.13870   0.18989   0.09384   0.00000  Uiso   1.00
H35    H     0.02743   0.19754   0.01539   0.00000  Uiso   1.00
H36    H     0.22214   0.20794   0.36879   0.00000  Uiso   1.00
N37    N     0.04760   0.16668   0.25002   0.00000  Uiso   1.00
N38    N     0.28573   0.16665   0.25001   0.00000  Uiso   1.00
O39    O     0.12846   0.22775   0.25001   0.00000  Uiso   1.00
O40    O     0.20490   0.22774   0.25001   0.00000  Uiso   1.00
O41    O     0.10947   0.16666   0.32681   0.00000  Uiso   1.00
O42    O     0.18591   0.16665   0.32681   0.00000  Uiso   1.00
O43    O     0.12843   0.10559   0.25000   0.00000  Uiso   1.00
O44    O     0.20488   0.10558   0.25000   0.00000  Uiso   1.00
O45    O     0.14742   0.16668   0.17319   0.00000  Uiso   1.00
O46    O     0.22387   0.16667   0.17319   0.00000  Uiso   1.00
Zn47   Zn    0.11562   0.16667   0.25000   0.00000  Uiso   1.00
Zn48   Zn    0.21771   0.16666   0.25000   0.00000  Uiso   1.00
H49    H     0.23260   0.03733   0.26942   0.00000  Uiso   1.00
H50    H     0.30413   0.11027   0.20619   0.00000  Uiso   1.00
O51    O     0.02869   0.22913   0.30332   0.00000  Uiso   1.00
H52    H     0.05485   0.21849   0.31510   0.00000  Uiso   1.00
H53    H     0.28154   0.18389   0.40567   0.00000  Uiso   1.00
O54    O     0.30751   0.13865   0.47701   0.00000  Uiso   1.00
H55    H     0.30495   0.12836   0.44287   0.00000  Uiso   1.00
O56    O     0.04256   0.19218   0.41469   0.00000  Uiso   1.00
H57    H     0.04110   0.16478   0.39815   0.00000  Uiso   1.00
H58    H     0.08437   0.18925   0.06123   0.00000  Uiso   1.00
H59    H     0.23232   0.29558   0.26988   0.00000  Uiso   1.00
C60    C     0.49988   0.24668   0.25021   0.00000  Uiso   1.00
C61    C     0.48059   0.18606   0.49000   0.00000  Uiso   1.00
C62    C     0.49454   0.18789   0.43443   0.00000  Uiso   1.00
C63    C     0.51648   0.17929   0.01410   0.00000  Uiso   1.00
C64    C     0.56426   0.17142   0.48249   0.00000  Uiso   1.00
C65    C     0.57780   0.18242   0.42946   0.00000  Uiso   1.00
C66    C     0.54332   0.19402   0.40723   0.00000  Uiso   1.00
C67    C     0.50629   0.17959   0.06851   0.00000  Uiso   1.00
C68    C     0.58584   0.15543   0.06064   0.00000  Uiso   1.00
C69    C     0.45965   0.18344   0.40818   0.00000  Uiso   1.00
C70    C     0.53694   0.31190   0.26113   0.00000  Uiso   1.00
C71    C     0.47429   0.17179   0.35125   0.00000  Uiso   1.00
C72    C     0.53712   0.02119   0.26086   0.00000  Uiso   1.00
C73    C     0.50007   0.04249   0.25004   0.00000  Uiso   1.00
C74    C     0.46280   0.02142   0.23955   0.00000  Uiso   1.00
C75    C     0.46262   0.31213   0.23981   0.00000  Uiso   1.00
C76    C     0.49974   0.29084   0.25049   0.00000  Uiso   1.00
C77    C     0.64984   0.13536   0.22566   0.00000  Uiso   1.00
C78    C     0.36452   0.13558   0.22522   0.00000  Uiso   1.00
C79    C     0.34943   0.19784   0.27510   0.00000  Uiso   1.00
C80    C     0.63566   0.19830   0.27326   0.00000  Uiso   1.00
C81    C     0.50007   0.08666   0.24995   0.00000  Uiso   1.00
C82    C     0.52584   0.16668   0.14867   0.00000  Uiso   1.00
C83    C     0.59777   0.15592   0.00585   0.00000  Uiso   1.00
C84    C     0.54043   0.16791   0.09166   0.00000  Uiso   1.00
C85    C     0.41106   0.18902   0.43793   0.00000  Uiso   1.00
C86    C     0.39791   0.19340   0.49261   0.00000  Uiso   1.00
C87    C     0.43155   0.18957   0.01871   0.00000  Uiso   1.00
H88    H     0.61148   0.14412   0.07882   0.00000  Uiso   1.00
H89    H     0.43407   0.03772   0.23082   0.00000  Uiso   1.00
H90    H     0.43381   0.29600   0.23125   0.00000  Uiso   1.00
H91    H     0.38836   0.11072   0.20531   0.00000  Uiso   1.00
H92    H     0.61217   0.22383   0.29142   0.00000  Uiso   1.00
H93    H     0.47204   0.18989   0.09384   0.00000  Uiso   1.00
H94    H     0.36076   0.19754   0.01539   0.00000  Uiso   1.00
H95    H     0.55547   0.20794   0.36879   0.00000  Uiso   1.00
N96    N     0.38093   0.16668   0.25002   0.00000  Uiso   1.00
N97    N     0.61906   0.16665   0.25001   0.00000  Uiso   1.00
O98    O     0.46179   0.22775   0.25001   0.00000  Uiso   1.00
O99    O     0.53823   0.22774   0.25001   0.00000  Uiso   1.00
O100   O     0.44280   0.16666   0.32681   0.00000  Uiso   1.00
O101   O     0.51924   0.16665   0.32681   0.00000  Uiso   1.00
O102   O     0.46177   0.10559   0.25000   0.00000  Uiso   1.00
O103   O     0.53821   0.10558   0.25000   0.00000  Uiso   1.00
O104   O     0.48076   0.16668   0.17319   0.00000  Uiso   1.00
O105   O     0.55720   0.16667   0.17319   0.00000  Uiso   1.00
Zn106  Zn    0.44896   0.16667   0.25000   0.00000  Uiso   1.00
Zn107  Zn    0.55104   0.16666   0.25000   0.00000  Uiso   1.00
H108   H     0.56593   0.03733   0.26942   0.00000  Uiso   1.00
H109   H     0.63747   0.11027   0.20619   0.00000  Uiso   1.00
O110   O     0.36202   0.22913   0.30332   0.00000  Uiso   1.00
H111   H     0.38819   0.21849   0.31510   0.00000  Uiso   1.00
H112   H     0.61488   0.18389   0.40567   0.00000  Uiso   1.00
O113   O     0.64085   0.13865   0.47701   0.00000  Uiso   1.00
H114   H     0.63828   0.12836   0.44287   0.00000  Uiso   1.00
O115   O     0.37590   0.19218   0.41469   0.00000  Uiso   1.00
H116   H     0.37443   0.16478   0.39815   0.00000  Uiso   1.00
H117   H     0.41770   0.18925   0.06123   0.00000  Uiso   1.00
H118   H     0.56565   0.29558   0.26988   0.00000  Uiso   1.00
C119   C     0.83321   0.24668   0.25021   0.00000  Uiso   1.00
C120   C     0.81393   0.18606   0.49000   0.00000  Uiso   1.00
C121   C     0.82788   0.18789   0.43443   0.00000  Uiso   1.00
C122   C     0.84981   0.17929   0.01410   0.00000  Uiso   1.00
C123   C     0.89759   0.17142   0.48249   0.00000  Uiso   1.00
C124   C     0.91113   0.18242   0.42946   0.00000  Uiso   1.00
C125   C     0.87666   0.19402   0.40723   0.00000  Uiso   1.00
C126   C     0.83963   0.17959   0.06851   0.00000  Uiso   1.00
C127   C     0.91917   0.15543   0.06064   0.00000  Uiso   1.00
C128   C     0.79298   0.18344   0.40818   0.00000  Uiso   1.00
C129   C     0.87027   0.31190   0.26113   0.00000  Uiso   1.00
C130   C     0.80762   0.17179   0.35125   0.00000  Uiso   1.00
C131   C     0.87046   0.02119   0.26086   0.00000  Uiso   1.00
C132   C     0.83340   0.04249   0.25004   0.00000  Uiso   1.00
C133   C     0.79613   0.02142   0.23955   0.00000  Uiso   1.00
C134   C     0.79595   0.31213   0.23981   0.00000  Uiso   1.00
C135   C     0.83307   0.29084   0.25049   0.00000  Uiso   1.00
C136   C     0.98317   0.13536   0.22566   0.00000  Uiso   1.00
C137   C     0.69785   0.13558   0.22522   0.00000  Uiso   1.00
C138   C     0.68276   0.19784   0.27510   0.00000  Uiso   1.00
C139   C     0.96899   0.19830   0.27326   0.00000  Uiso   1.00
C140   C     0.83341   0.08666   0.24995   0.00000  Uiso   1.00
C141   C     0.85917   0.16668   0.14867   0.00000  Uiso   1.00
C142   C     0.93110   0.15592   0.00585   0.00000  Uiso   1.00
C143   C     0.87376   0.16791   0.09166   0.00000  Uiso   1.00
C144   C     0.74439   0.18902   0.43793   0.00000  Uiso   1.00
C145   C     0.73124   0.19340   0.49261   0.00000  Uiso   1.00
C146   C     0.76489   0.18957   0.01871   0.00000  Uiso   1.00
H147   H     0.94481   0.14412   0.07882   0.00000  Uiso   1.00
H148   H     0.76740   0.03772   0.23082   0.00000  Uiso   1.00
H149   H     0.76714   0.29600   0.23125   0.00000  Uiso   1.00
H150   H     0.72170   0.11072   0.20531   0.00000  Uiso   1.00
H151   H     0.94550   0.22383   0.29142   0.00000  Uiso   1.00
H152   H     0.80537   0.18989   0.09384   0.00000  Uiso   1.00
H153   H     0.69410   0.19754   0.01539   0.00000  Uiso   1.00
H154   H     0.88881   0.20794   0.36879   0.00000  Uiso   1.00
N155   N     0.71426   0.16668   0.25002   0.00000  Uiso   1.00
N156   N     0.95239   0.16665   0.25001   0.00000  Uiso   1.00
O157   O     0.79512   0.22775   0.25001   0.00000  Uiso   1.00
O158   O     0.87157   0.22774   0.25001   0.00000  Uiso   1.00
O159   O     0.77613   0.16666   0.32681   0.00000  Uiso   1.00
O160   O     0.85258   0.16665   0.32681   0.00000  Uiso   1.00
O161   O     0.79510   0.10559   0.25000   0.00000  Uiso   1.00
O162   O     0.87154   0.10558   0.25000   0.00000  Uiso   1.00
O163   O     0.81409   0.16668   0.17319   0.00000  Uiso   1.00
O164   O     0.89053   0.16667   0.17319   0.00000  Uiso   1.00
Zn165  Zn    0.78229   0.16667   0.25000   0.00000  Uiso   1.00
Zn166  Zn    0.88438   0.16666   0.25000   0.00000  Uiso   1.00
H167   H     0.89926   0.03733   0.26942   0.00000  Uiso   1.00
H168   H     0.97080   0.11027   0.20619   0.00000  Uiso   1.00
O169   O     0.69536   0.22913   0.30332   0.00000  Uiso   1.00
H170   H     0.72152   0.21849   0.31510   0.00000  Uiso   1.00
H171   H     0.94821   0.18389   0.40567   0.00000  Uiso   1.00
O172   O     0.97418   0.13865   0.47701   0.00000  Uiso   1.00
H173   H     0.97161   0.12836   0.44287   0.00000  Uiso   1.00
O174   O     0.70923   0.19218   0.41469   0.00000  Uiso   1.00
H175   H     0.70777   0.16478   0.39815   0.00000  Uiso   1.00
H176   H     0.75104   0.18925   0.06123   0.00000  Uiso   1.00
H177   H     0.89898   0.29558   0.26988   0.00000  Uiso   1.00
C178   C     0.16655   0.58001   0.25021   0.00000  Uiso   1.00
C179   C     0.14726   0.51939   0.49000   0.00000  Uiso   1.00
C180   C     0.16121   0.52123   0.43443   0.00000  Uiso   1.00
C181   C     0.18315   0.51263   0.01410   0.00000  Uiso   1.00
C182   C     0.23093   0.50475   0.48249   0.00000  Uiso   1.00
C183   C     0.24446   0.51576   0.42946   0.00000  Uiso   1.00
C184   C     0.20999   0.52735   0.40723   0.00000  Uiso   1.00
C185   C     0.17296   0.51292   0.06851   0.00000  Uiso   1.00
C186   C     0.25251   0.48876   0.06064   0.00000  Uiso   1.00
C187   C     0.12632   0.51677   0.40818   0.00000  Uiso   1.00
C188   C     0.20360   0.64523   0.26113   0.00000  Uiso   1.00
C189   C     0.14095   0.50513   0.35125   0.00000  Uiso   1.00
C190   C     0.20379   0.35452   0.26086   0.00000  Uiso   1.00
C191   C     0.16674   0.37582   0.25004   0.00000  Uiso   1.00
C192   C     0.12947   0.35475   0.23955   0.00000  Uiso   1.00
C193   C     0.12928   0.64547   0.23981   0.00000  Uiso   1.00
C194   C     0.16641   0.62417   0.25049   0.00000  Uiso   1.00
C195   C     0.31650   0.46869   0.22566   0.00000  Uiso   1.00
C196   C     0.03119   0.46891   0.22522   0.00000  Uiso   1.00
C197   C     0.01610   0.53117   0.27510   0.00000  Uiso   1.00
C198   C     0.30232   0.53163   0.27326   0.00000  Uiso   1.00
C199   C     0.16674   0.41999   0.24995   0.00000  Uiso   1.00
C200   C     0.19251   0.50001   0.14867   0.00000  Uiso   1.00
C201   C     0.26444   0.48925   0.00585   0.00000  Uiso   1.00
C202   C     0.20709   0.50124   0.09166   0.00000  Uiso   1.00
C203   C     0.07773   0.52235   0.43793   0.00000  Uiso   1.00
C204   C     0.06458   0.52673   0.49261   0.00000  Uiso   1.00
C205   C     0.09822   0.52290   0.01871   0.00000  Uiso   1.00
H206   H     0.27815   0.47746   0.07882   0.00000  Uiso   1.00
H207   H     0.10074   0.37106   0.23082   0.00000  Uiso   1.00
H208   H     0.10048   0.62933   0.23125   0.00000  Uiso   1.00
H209   H     0.05503   0.44406   0.20531   0.00000  Uiso   1.00
H210   H     0.27883   0.55716   0.29142   0.00000  Uiso   1.00
H211   H     0.13870   0.52323   0.09384   0.00000  Uiso   1.00
H212   H     0.02743   0.53087   0.01539   0.00000  Uiso   1.00
H213   H     0.22214   0.54127   0.36879   0.00000  Uiso   1.00
N214   N     0.04760   0.50001   0.25002   0.00000  Uiso   1.00
N215   N     0.28573   0.49998   0.25001   0.00000  Uiso   1.00
O216   O     0.12846   0.56108   0.25001   0.00000  Uiso   1.00
O217   O     0.20490   0.56107   0.25001   0.00000  Uiso   1.00
O218   O     0.10947   0.50000   0.32681   0.00000  Uiso   1.00
O219   O     0.18591   0.49999   0.32681   0.00000  Uiso   1.00
O220   O     0.12843   0.43893   0.25000   0.00000  Uiso   1.00
O221   O     0.20488   0.43892   0.25000   0.00000  Uiso   1.00
O222   O     0.14742   0.50001   0.17319   0.00000  Uiso   1.00
O223   O     0.22387   0.50000   0.17319   0.00000  Uiso   1.00
Zn224  Zn    0.11562   0.50001   0.25000   0.00000  Uiso   1.00
Zn225  Zn    0.21771   0.49999   0.25000   0.00000  Uiso   1.00
H226   H     0.23260   0.37067   0.26942   0.00000  Uiso   1.00
H227   H     0.30413   0.44360   0.20619   0.00000  Uiso   1.00
O228   O     0.02869   0.56246   0.30332   0.00000  Uiso   1.00
H229   H     0.05485   0.55182   0.31510   0.00000  Uiso   1.00
H230   H     0.28154   0.51722   0.40567   0.00000  Uiso   1.00
O231   O     0.30751   0.47199   0.47701   0.00000  Uiso   1.00
H232   H     0.30495   0.46169   0.44287   0.00000  Uiso   1.00
O233   O     0.04256   0.52552   0.41469   0.00000  Uiso   1.00
H234   H     0.04110   0.49811   0.39815   0.00000  Uiso   1.00
H235   H     0.08437   0.52258   0.06123   0.00000  Uiso   1.00
H236   H     0.23232   0.62892   0.26988   0.00000  Uiso   1.00
C237   C     0.49988   0.58001   0.25021   0.00000  Uiso   1.00
C238   C     0.48059   0.51939   0.49000   0.00000  Uiso   1.00
C239   C     0.49454   0.52123   0.43443   0.00000  Uiso   1.00
C240   C     0.51648   0.51263   0.01410   0.00000  Uiso   1.00
C241   C     0.56426   0.50475   0.48249   0.00000  Uiso   1.00
C242   C     0.57780   0.51576   0.42946   0.00000  Uiso   1.00
C243   C     0.54332   0.52735   0.40723   0.00000  Uiso   1.00
C244   C     0.50629   0.51292   0.06851   0.00000  Uiso   1.00
C245   C     0.58584   0.48876   0.06064   0.00000  Uiso   1.00
C246   C     0.45965   0.51677   0.40818   0.00000  Uiso   1.00
C247   C     0.53694   0.64523   0.26113   0.00000  Uiso   1.00
C248   C     0.47429   0.50513   0.35125   0.00000  Uiso   1.00
C249   C     0.53712   0.35452   0.26086   0.00000  Uiso   1.00
C250   C     0.50007   0.37582   0.25004   0.00000  Uiso   1.00
C251   C     0.46280   0.35475   0.23955   0.00000  Uiso   1.00
C252   C     0.46262   0.64547   0.23981   0.00000  Uiso   1.00
C253   C     0.49974   0.62417   0.25049   0.00000  Uiso   1.00
C254   C     0.64984   0.46869   0.22566   0.00000  Uiso   1.00
C255   C     0.36452   0.46891   0.22522   0.00000  Uiso   1.00
C256   C     0.34943   0.53117   0.27510   0.00000  Uiso   1.00
C257   C     0.63566   0.53163   0.27326   0.00000  Uiso   1.00
C258   C     0.50007   0.41999   0.24995   0.00000  Uiso   1.00
C259   C     0.52584   0.50001   0.14867   0.00000  Uiso   1.00
C260   C     0.59777   0.48925   0.00585   0.00000  Uiso   1.00
C261   C     0.54043   0.50124   0.09166   0.00000  Uiso   1.00
C262   C     0.41106   0.52235   0.43793   0.00000  Uiso   1.00
C263   C     0.39791   0.52673   0.49261   0.00000  Uiso   1.00
C264   C     0.43155   0.52290   0.01871   0.00000  Uiso   1.00
H265   H     0.61148   0.47746   0.07882   0.00000  Uiso   1.00
H266   H     0.43407   0.37106   0.23082   0.00000  Uiso   1.00
H267   H     0.43381   0.62933   0.23125   0.00000  Uiso   1.00
H268   H     0.38836   0.44406   0.20531   0.00000  Uiso   1.00
H269   H     0.61217   0.55716   0.29142   0.00000  Uiso   1.00
H270   H     0.47204   0.52323   0.09384   0.00000  Uiso   1.00
H271   H     0.36076   0.53087   0.01539   0.00000  Uiso   1.00
H272   H     0.55547   0.54127   0.36879   0.00000  Uiso   1.00
N273   N     0.38093   0.50001   0.25002   0.00000  Uiso   1.00
N274   N     0.61906   0.49998   0.25001   0.00000  Uiso   1.00
O275   O     0.46179   0.56108   0.25001   0.00000  Uiso   1.00
O276   O     0.53823   0.56107   0.25001   0.00000  Uiso   1.00
O277   O     0.44280   0.50000   0.32681   0.00000  Uiso   1.00
O278   O     0.51924   0.49999   0.32681   0.00000  Uiso   1.00
O279   O     0.46177   0.43893   0.25000   0.00000  Uiso   1.00
O280   O     0.53821   0.43892   0.25000   0.00000  Uiso   1.00
O281   O     0.48076   0.50001   0.17319   0.00000  Uiso   1.00
O282   O     0.55720   0.50000   0.17319   0.00000  Uiso   1.00
Zn283  Zn    0.44896   0.50001   0.25000   0.00000  Uiso   1.00
Zn284  Zn    0.55104   0.49999   0.25000   0.00000  Uiso   1.00
H285   H     0.56593   0.37067   0.26942   0.00000  Uiso   1.00
H286   H     0.63747   0.44360   0.20619   0.00000  Uiso   1.00
O287   O     0.36202   0.56246   0.30332   0.00000  Uiso   1.00
H288   H     0.38819   0.55182   0.31510   0.00000  Uiso   1.00
H289   H     0.61488   0.51722   0.40567   0.00000  Uiso   1.00
O290   O     0.64085   0.47199   0.47701   0.00000  Uiso   1.00
H291   H     0.63828   0.46169   0.44287   0.00000  Uiso   1.00
O292   O     0.37590   0.52552   0.41469   0.00000  Uiso   1.00
H293   H     0.37443   0.49811   0.39815   0.00000  Uiso   1.00
H294   H     0.41770   0.52258   0.06123   0.00000  Uiso   1.00
H295   H     0.56565   0.62892   0.26988   0.00000  Uiso   1.00
C296   C     0.83321   0.58001   0.25021   0.00000  Uiso   1.00
C297   C     0.81393   0.51939   0.49000   0.00000  Uiso   1.00
C298   C     0.82788   0.52123   0.43443   0.00000  Uiso   1.00
C299   C     0.84981   0.51263   0.01410   0.00000  Uiso   1.00
C300   C     0.89759   0.50475   0.48249   0.00000  Uiso   1.00
C301   C     0.91113   0.51576   0.42946   0.00000  Uiso   1.00
C302   C     0.87666   0.52735   0.40723   0.00000  Uiso   1.00
C303   C     0.83963   0.51292   0.06851   0.00000  Uiso   1.00
C304   C     0.91917   0.48876   0.06064   0.00000  Uiso   1.00
C305   C     0.79298   0.51677   0.40818   0.00000  Uiso   1.00
C306   C     0.87027   0.64523   0.26113   0.00000  Uiso   1.00
C307   C     0.80762   0.50513   0.35125   0.00000  Uiso   1.00
C308   C     0.87046   0.35452   0.26086   0.00000  Uiso   1.00
C309   C     0.83340   0.37582   0.25004   0.00000  Uiso   1.00
C310   C     0.79613   0.35475   0.23955   0.00000  Uiso   1.00
C311   C     0.79595   0.64547   0.23981   0.00000  Uiso   1.00
C312   C     0.83307   0.62417   0.25049   0.00000  Uiso   1.00
C313   C     0.98317   0.46869   0.22566   0.00000  Uiso   1.00
C314   C     0.69785   0.46891   0.22522   0.00000  Uiso   1.00
C315   C     0.68276   0.53117   0.27510   0.00000  Uiso   1.00
C316   C     0.96899   0.53163   0.27326   0.00000  Uiso   1.00
C317   C     0.83341   0.41999   0.24995   0.00000  Uiso   1.00
C318   C     0.85917   0.50001   0.14867   0.00000  Uiso   1.00
C319   C     0.93110   0.48925   0.00585   0.00000  Uiso   1.00
C320   C     0.87376   0.50124   0.09166   0.00000  Uiso   1.00
C321   C     0.74439   0.52235   0.43793   0.00000  Uiso   1.00
C322   C     0.73124   0.52673   0.49261   0.00000  Uiso   1.00
C323   C     0.76489   0.52290   0.01871   0.00000  Uiso   1.00
H324   H     0.94481   0.47746   0.07882   0.00000  Uiso   1.00
H325   H     0.76740   0.37106   0.23082   0.00000  Uiso   1.00
H326   H     0.76714   0.62933   0.23125   0.00000  Uiso   1.00
H327   H     0.72170   0.44406   0.20531   0.00000  Uiso   1.00
H328   H     0.94550   0.55716   0.29142   0.00000  Uiso   1.00
H329   H     0.80537   0.52323   0.09384   0.00000  Uiso   1.00
H330   H     0.69410   0.53087   0.01539   0.00000  Uiso   1.00
H331   H     0.88881   0.54127   0.36879   0.00000  Uiso   1.00
N332   N     0.71426   0.50001   0.25002   0.00000  Uiso   1.00
N333   N     0.95239   0.49998   0.25001   0.00000  Uiso   1.00
O334   O     0.79512   0.56108   0.25001   0.00000  Uiso   1.00
O335   O     0.87157   0.56107   0.25001   0.00000  Uiso   1.00
O336   O     0.77613   0.50000   0.32681   0.00000  Uiso   1.00
O337   O     0.85258   0.49999   0.32681   0.00000  Uiso   1.00
O338   O     0.79510   0.43893   0.25000   0.00000  Uiso   1.00
O339   O     0.87154   0.43892   0.25000   0.00000  Uiso   1.00
O340   O     0.81409   0.50001   0.17319   0.00000  Uiso   1.00
O341   O     0.89053   0.50000   0.17319   0.00000  Uiso   1.00
Zn342  Zn    0.78229   0.50001   0.25000   0.00000  Uiso   1.00
Zn343  Zn    0.88438   0.49999   0.25000   0.00000  Uiso   1.00
H344   H     0.89926   0.37067   0.26942   0.00000  Uiso   1.00
H345   H     0.97080   0.44360   0.20619   0.00000  Uiso   1.00
O346   O     0.69536   0.56246   0.30332   0.00000  Uiso   1.00
H347   H     0.72152   0.55182   0.31510   0.00000  Uiso   1.00
H348   H     0.94821   0.51722   0.40567   0.00000  Uiso   1.00
O349   O     0.97418   0.47199   0.47701   0.00000  Uiso   1.00
H350   H     0.97161   0.46169   0.44287   0.00000  Uiso   1.00
O351   O     0.70923   0.52552   0.41469   0.00000  Uiso   1.00
H352   H     0.70777   0.49811   0.39815   0.00000  Uiso   1.00
H353   H     0.75104   0.52258   0.06123   0.00000  Uiso   1.00
H354   H     0.89898   0.62892   0.26988   0.00000  Uiso   1.00
C355   C     0.16655   0.91334   0.25021   0.00000  Uiso   1.00
C356   C     0.14726   0.85272   0.49000   0.00000  Uiso   1.00
C357   C     0.16121   0.85456   0.43443   0.00000  Uiso   1.00
C358   C     0.18315   0.84596   0.01410   0.00000  Uiso   1.00
C359   C     0.23093   0.83808   0.48249   0.00000  Uiso   1.00
C360   C     0.24446   0.84909   0.42946   0.00000  Uiso   1.00
C361   C     0.20999   0.86069   0.40723   0.00000  Uiso   1.00
C362   C     0.17296   0.84625   0.06851   0.00000  Uiso   1.00
C363   C     0.25251   0.82210   0.06064   0.00000  Uiso   1.00
C364   C     0.12632   0.85010   0.40818   0.00000  Uiso   1.00
C365   C     0.20360   0.97857   0.26113   0.00000  Uiso   1.00
C366   C     0.14095   0.83846   0.35125   0.00000  Uiso   1.00
C367   C     0.20379   0.68786   0.26086   0.00000  Uiso   1.00
C368   C     0.16674   0.70915   0.25004   0.00000  Uiso   1.00
C369   C     0.12947   0.68808   0.23955   0.00000  Uiso   1.00
C370   C     0.12928   0.97880   0.23981   0.00000  Uiso   1.00
C371   C     0.16641   0.95750   0.25049   0.00000  Uiso   1.00
C372   C     0.31650   0.80202   0.22566   0.00000  Uiso   1.00
C373   C     0.03119   0.80224   0.22522   0.00000  Uiso   1.00
C374   C     0.01610   0.86451   0.27510   0.00000  Uiso   1.00
C375   C     0.30232   0.86497   0.27326   0.00000  Uiso   1.00
C376   C     0.16674   0.75332   0.24995   0.00000  Uiso   1.00
C377   C     0.19251   0.83334   0.14867   0.00000  Uiso   1.00
C378   C     0.26444   0.82258   0.00585   0.00000  Uiso   1.00
C379   C     0.20709   0.83458   0.09166   0.00000  Uiso   1.00
C380   C     0.07773   0.85568   0.43793   0.00000  Uiso   1.00
C381   C     0.06458   0.86007   0.49261   0.00000  Uiso   1.00
C382   C     0.09822   0.85623   0.01871   0.00000  Uiso   1.00
H383   H     0.27815   0.81079   0.07882   0.00000  Uiso   1.00
H384   H     0.10074   0.70439   0.23082   0.00000  Uiso   1.00
H385   H     0.10048   0.96266   0.23125   0.00000  Uiso   1.00
H386   H     0.05503   0.77739   0.20531   0.00000  Uiso   1.00
H387   H     0.27883   0.89050   0.29142   0.00000  Uiso   1.00
H388   H     0.13870   0.85656   0.09384   0.00000  Uiso   1.00
H389   H     0.02743   0.86421   0.01539   0.00000  Uiso   1.00
H390   H     0.22214   0.87461   0.36879   0.00000  Uiso   1.00
N391   N     0.04760   0.83334   0.25002   0.00000  Uiso   1.00
N392   N     0.28573   0.83331   0.25001   0.00000  Uiso   1.00
O393   O     0.12846   0.89442   0.25001   0.00000  Uiso   1.00
O394   O     0.20490   0.89441   0.25001   0.00000  Uiso   1.00
O395   O     0.10947   0.83333   0.32681   0.00000  Uiso   1.00
O396   O     0.18591   0.83332   0.32681   0.00000  Uiso   1.00
O397   O     0.12843   0.77226   0.25000   0.00000  Uiso   1.00
O398   O     0.20488   0.77225   0.25000   0.00000  Uiso   1.00
O399   O     0.14742   0.83335   0.17319   0.00000  Uiso   1.00
O400   O     0.22387   0.83334   0.17319   0.00000  Uiso   1.00
Zn401  Zn    0.11562   0.83334   0.25000   0.00000  Uiso   1.00
Zn402  Zn    0.21771   0.83333   0.25000   0.00000  Uiso   1.00
H403   H     0.23260   0.70400   0.26942   0.00000  Uiso   1.00
H404   H     0.30413   0.77693   0.20619   0.00000  Uiso   1.00
O405   O     0.02869   0.89580   0.30332   0.00000  Uiso   1.00
H406   H     0.05485   0.88516   0.31510   0.00000  Uiso   1.00
H407   H     0.28154   0.85056   0.40567   0.00000  Uiso   1.00
O408   O     0.30751   0.80532   0.47701   0.00000  Uiso   1.00
H409   H     0.30495   0.79503   0.44287   0.00000  Uiso   1.00
O410   O     0.04256   0.85885   0.41469   0.00000  Uiso   1.00
H411   H     0.04110   0.83144   0.39815   0.00000  Uiso   1.00
H412   H     0.08437   0.85592   0.06123   0.00000  Uiso   1.00
H413   H     0.23232   0.96225   0.26988   0.00000  Uiso   1.00
C414   C     0.49988   0.91334   0.25021   0.00000  Uiso   1.00
C415   C     0.48059   0.85272   0.49000   0.00000  Uiso   1.00
C416   C     0.49454   0.85456   0.43443   0.00000  Uiso   1.00
C417   C     0.51648   0.84596   0.01410   0.00000  Uiso   1.00
C418   C     0.56426   0.83808   0.48249   0.00000  Uiso   1.00
C419   C     0.57780   0.84909   0.42946   0.00000  Uiso   1.00
C420   C     0.54332   0.86069   0.40723   0.00000  Uiso   1.00
C421   C     0.50629   0.84625   0.06851   0.00000  Uiso   1.00
C422   C     0.58584   0.82210   0.06064   0.00000  Uiso   1.00
C423   C     0.45965   0.85010   0.40818   0.00000  Uiso   1.00
C424   C     0.53694   0.97857   0.26113   0.00000  Uiso   1.00
C425   C     0.47429   0.83846   0.35125   0.00000  Uiso   1.00
C426   C     0.53712   0.68786   0.26086   0.00000  Uiso   1.00
C427   C     0.50007   0.70915   0.25004   0.00000  Uiso   1.00
C428   C     0.46280   0.68808   0.23955   0.00000  Uiso   1.00
C429   C     0.46262   0.97880   0.23981   0.00000  Uiso   1.00
C430   C     0.49974   0.95750   0.25049   0.00000  Uiso   1.00
C431   C     0.64984   0.80202   0.22566   0.00000  Uiso   1.00
C432   C     0.36452   0.80224   0.22522   0.00000  Uiso   1.00
C433   C     0.34943   0.86451   0.27510   0.00000  Uiso   1.00
C434   C     0.63566   0.86497   0.27326   0.00000  Uiso   1.00
C435   C     0.50007   0.75332   0.24995   0.00000  Uiso   1.00
C436   C     0.52584   0.83334   0.14867   0.00000  Uiso   1.00
C437   C     0.59777   0.82258   0.00585   0.00000  Uiso   1.00
C438   C     0.54043   0.83458   0.09166   0.00000  Uiso   1.00
C439   C     0.41106   0.85568   0.43793   0.00000  Uiso   1.00
C440   C     0.39791   0.86007   0.49261   0.00000  Uiso   1.00
C441   C     0.43155   0.85623   0.01871   0.00000  Uiso   1.00
H442   H     0.61148   0.81079   0.07882   0.00000  Uiso   1.00
H443   H     0.43407   0.70439   0.23082   0.00000  Uiso   1.00
H444   H     0.43381   0.96266   0.23125   0.00000  Uiso   1.00
H445   H     0.38836   0.77739   0.20531   0.00000  Uiso   1.00
H446   H     0.61217   0.89050   0.29142   0.00000  Uiso   1.00
H447   H     0.47204   0.85656   0.09384   0.00000  Uiso   1.00
H448   H     0.36076   0.86421   0.01539   0.00000  Uiso   1.00
H449   H     0.55547   0.87461   0.36879   0.00000  Uiso   1.00
N450   N     0.38093   0.83334   0.25002   0.00000  Uiso   1.00
N451   N     0.61906   0.83331   0.25001   0.00000  Uiso   1.00
O452   O     0.46179   0.89442   0.25001   0.00000  Uiso   1.00
O453   O     0.53823   0.89441   0.25001   0.00000  Uiso   1.00
O454   O     0.44280   0.83333   0.32681   0.00000  Uiso   1.00
O455   O     0.51924   0.83332   0.32681   0.00000  Uiso   1.00
O456   O     0.46177   0.77226   0.25000   0.00000  Uiso   1.00
O457   O     0.53821   0.77225   0.25000   0.00000  Uiso   1.00
O458   O     0.48076   0.83335   0.17319   0.00000  Uiso   1.00
O459   O     0.55720   0.83334   0.17319   0.00000  Uiso   1.00
Zn460  Zn    0.44896   0.83334   0.25000   0.00000  Uiso   1.00
Zn461  Zn    0.55104   0.83333   0.25000   0.00000  Uiso   1.00
H462   H     0.56593   0.70400   0.26942   0.00000  Uiso   1.00
H463   H     0.63747   0.77693   0.20619   0.00000  Uiso   1.00
O464   O     0.36202   0.89580   0.30332   0.00000  Uiso   1.00
H465   H     0.38819   0.88516   0.31510   0.00000  Uiso   1.00
H466   H     0.61488   0.85056   0.40567   0.00000  Uiso   1.00
O467   O     0.64085   0.80532   0.47701   0.00000  Uiso   1.00
H468   H     0.63828   0.79503   0.44287   0.00000  Uiso   1.00
O469   O     0.37590   0.85885   0.41469   0.00000  Uiso   1.00
H470   H     0.37443   0.83144   0.39815   0.00000  Uiso   1.00
H471   H     0.41770   0.85592   0.06123   0.00000  Uiso   1.00
H472   H     0.56565   0.96225   0.26988   0.00000  Uiso   1.00
C473   C     0.83321   0.91334   0.25021   0.00000  Uiso   1.00
C474   C     0.81393   0.85272   0.49000   0.00000  Uiso   1.00
C475   C     0.82788   0.85456   0.43443   0.00000  Uiso   1.00
C476   C     0.84981   0.84596   0.01410   0.00000  Uiso   1.00
C477   C     0.89759   0.83808   0.48249   0.00000  Uiso   1.00
C478   C     0.91113   0.84909   0.42946   0.00000  Uiso   1.00
C479   C     0.87666   0.86069   0.40723   0.00000  Uiso   1.00
C480   C     0.83963   0.84625   0.06851   0.00000  Uiso   1.00
C481   C     0.91917   0.82210   0.06064   0.00000  Uiso   1.00
C482   C     0.79298   0.85010   0.40818   0.00000  Uiso   1.00
C483   C     0.87027   0.97857   0.26113   0.00000  Uiso   1.00
C484   C     0.80762   0.83846   0.35125   0.00000  Uiso   1.00
C485   C     0.87046   0.68786   0.26086   0.00000  Uiso   1.00
C486   C     0.83340   0.70915   0.25004   0.00000  Uiso   1.00
C487   C     0.79613   0.68808   0.23955   0.00000  Uiso   1.00
C488   C     0.79595   0.97880   0.23981   0.00000  Uiso   1.00
C489   C     0.83307   0.95750   0.25049   0.00000  Uiso   1.00
C490   C     0.98317   0.80202   0.22566   0.00000  Uiso   1.00
C491   C     0.69785   0.80224   0.22522   0.00000  Uiso   1.00
C492   C     0.68276   0.86451   0.27510   0.00000  Uiso   1.00
C493   C     0.96899   0.86497   0.27326   0.00000  Uiso   1.00
C494   C     0.83341   0.75332   0.24995   0.00000  Uiso   1.00
C495   C     0.85917   0.83334   0.14867   0.00000  Uiso   1.00
C496   C     0.93110   0.82258   0.00585   0.00000  Uiso   1.00
C497   C     0.87376   0.83458   0.09166   0.00000  Uiso   1.00
C498   C     0.74439   0.85568   0.43793   0.00000  Uiso   1.00
C499   C     0.73124   0.86007   0.49261   0.00000  Uiso   1.00
C500   C     0.76489   0.85623   0.01871   0.00000  Uiso   1.00
H501   H     0.94481   0.81079   0.07882   0.00000  Uiso   1.00
H502   H     0.76740   0.70439   0.23082   0.00000  Uiso   1.00
H503   H     0.76714   0.96266   0.23125   0.00000  Uiso   1.00
H504   H     0.72170   0.77739   0.20531   0.00000  Uiso   1.00
H505   H     0.94550   0.89050   0.29142   0.00000  Uiso   1.00
H506   H     0.80537   0.85656   0.09384   0.00000  Uiso   1.00
H507   H     0.69410   0.86421   0.01539   0.00000  Uiso   1.00
H508   H     0.88881   0.87461   0.36879   0.00000  Uiso   1.00
N509   N     0.71426   0.83334   0.25002   0.00000  Uiso   1.00
N510   N     0.95239   0.83331   0.25001   0.00000  Uiso   1.00
O511   O     0.79512   0.89442   0.25001   0.00000  Uiso   1.00
O512   O     0.87157   0.89441   0.25001   0.00000  Uiso   1.00
O513   O     0.77613   0.83333   0.32681   0.00000  Uiso   1.00
O514   O     0.85258   0.83332   0.32681   0.00000  Uiso   1.00
O515   O     0.79510   0.77226   0.25000   0.00000  Uiso   1.00
O516   O     0.87154   0.77225   0.25000   0.00000  Uiso   1.00
O517   O     0.81409   0.83335   0.17319   0.00000  Uiso   1.00
O518   O     0.89053   0.83334   0.17319   0.00000  Uiso   1.00
Zn519  Zn    0.78229   0.83334   0.25000   0.00000  Uiso   1.00
Zn520  Zn    0.88438   0.83333   0.25000   0.00000  Uiso   1.00
H521   H     0.89926   0.70400   0.26942   0.00000  Uiso   1.00
H522   H     0.97080   0.77693   0.20619   0.00000  Uiso   1.00
O523   O     0.69536   0.89580   0.30332   0.00000  Uiso   1.00
H524   H     0.72152   0.88516   0.31510   0.00000  Uiso   1.00
H525   H     0.94821   0.85056   0.40567   0.00000  Uiso   1.00
O526   O     0.97418   0.80532   0.47701   0.00000  Uiso   1.00
H527   H     0.97161   0.79503   0.44287   0.00000  Uiso   1.00
O528   O     0.70923   0.85885   0.41469   0.00000  Uiso   1.00
H529   H     0.70777   0.83144   0.39815   0.00000  Uiso   1.00
H530   H     0.75104   0.85592   0.06123   0.00000  Uiso   1.00
H531   H     0.89898   0.96225   0.26988   0.00000  Uiso   1.00
C532   C     0.16655   0.24668   0.75021   0.00000  Uiso   1.00
C533   C     0.14726   0.18606   0.99000   0.00000  Uiso   1.00
C534   C     0.16121   0.18789   0.93443   0.00000  Uiso   1.00
C535   C     0.18315   0.17929   0.51410   0.00000  Uiso   1.00
C536   C     0.23093   0.17142   0.98249   0.00000  Uiso   1.00
C537   C     0.24446   0.18242   0.92946   0.00000  Uiso   1.00
C538   C     0.20999   0.19402   0.90723   0.00000  Uiso   1.00
C539   C     0.17296   0.17959   0.56851   0.00000  Uiso   1.00
C540   C     0.25251   0.15543   0.56064   0.00000  Uiso   1.00
C541   C     0.12632   0.18344   0.90818   0.00000  Uiso   1.00
C542   C     0.20360   0.31190   0.76113   0.00000  Uiso   1.00
C543   C     0.14095   0.17179   0.85125   0.00000  Uiso   1.00
C544   C     0.20379   0.02119   0.76086   0.00000  Uiso   1.00
C545   C     0.16674   0.04249   0.75004   0.00000  Uiso   1.00
C546   C     0.12947   0.02142   0.73955   0.00000  Uiso   1.00
C547   C     0.12928   0.31213   0.73981   0.00000  Uiso   1.00
C548   C     0.16641   0.29084   0.75049   0.00000  Uiso   1.00
C549   C     0.31650   0.13536   0.72566   0.00000  Uiso   1.00
C550   C     0.03119   0.13558   0.72522   0.00000  Uiso   1.00
C551   C     0.01610   0.19784   0.77510   0.00000  Uiso   1.00
C552   C     0.30232   0.19830   0.77326   0.00000  Uiso   1.00
C553   C     0.16674   0.08666   0.74995   0.00000  Uiso   1.00
C554   C     0.19251   0.16668   0.64867   0.00000  Uiso   1.00
C555   C     0.26444   0.15592   0.50585   0.00000  Uiso   1.00
C556   C     0.20709   0.16791   0.59166   0.00000  Uiso   1.00
C557   C     0.07773   0.18902   0.93793   0.00000  Uiso   1.00
C558   C     0.06458   0.19340   0.99261   0.00000  Uiso   1.00
C559   C     0.09822   0.18957   0.51871   0.00000  Uiso   1.00
H560   H     0.27815   0.14412   0.57882   0.00000  Uiso   1.00
H561   H     0.10074   0.03772   0.73082   0.00000  Uiso   1.00
H562   H     0.10048   0.29600   0.73125   0.00000  Uiso   1.00
H563   H     0.05503   0.11072   0.70531   0.00000  Uiso   1.00
H564   H     0.27883   0.22383   0.79142   0.00000  Uiso   1.00
H565   H     0.13870   0.18989   0.59384   0.00000  Uiso   1.00
H566   H     0.02743   0.19754   0.51539   0.00000  Uiso   1.00
H567   H     0.22214   0.20794   0.86879   0.00000  Uiso   1.00
N568   N     0.04760   0.16668   0.75002   0.00000  Uiso   1.00
N569   N     0.28573   0.16665   0.75001   0.00000  Uiso   1.00
O570   O     0.12846   0.22775   0.75001   0.00000  Uiso   1.00
O571   O     0.20490   0.22774   0.75001   0.00000  Uiso   1.00
O572   O     0.10947   0.16666   0.82681   0.00000  Uiso   1.00
O573   O     0.18591   0.16665   0.82681   0.00000  Uiso   1.00
O574   O     0.12843   0.10559   0.75000   0.00000  Uiso   1.00
O575   O     0.20488   0.10558   0.75000   0.00000  Uiso   1.00
O576   O     0.14742   0.16668   0.67319   0.00000  Uiso   1.00
O577   O     0.22387   0.16667   0.67319   0.00000  Uiso   1.00
Zn578  Zn    0.11562   0.16667   0.75000   0.00000  Uiso   1.00
Zn579  Zn    0.21771   0.16666   0.75000   0.00000  Uiso   1.00
H580   H     0.23260   0.03733   0.76942   0.00000  Uiso   1.00
H581   H     0.30413   0.11027   0.70619   0.00000  Uiso   1.00
O582   O     0.02869   0.22913   0.80332   0.00000  Uiso   1.00
H583   H     0.05485   0.21849   0.81510   0.00000  Uiso   1.00
H584   H     0.28154   0.18389   0.90567   0.00000  Uiso   1.00
O585   O     0.30751   0.13865   0.97701   0.00000  Uiso   1.00
H586   H     0.30495   0.12836   0.94287   0.00000  Uiso   1.00
O587   O     0.04256   0.19218   0.91469   0.00000  Uiso   1.00
H588   H     0.04110   0.16478   0.89815   0.00000  Uiso   1.00
H589   H     0.08437   0.18925   0.56123   0.00000  Uiso   1.00
H590   H     0.23232   0.29558   0.76988   0.00000  Uiso   1.00
C591   C     0.49988   0.24668   0.75021   0.00000  Uiso   1.00
C592   C     0.48059   0.18606   0.99000   0.00000  Uiso   1.00
C593   C     0.49454   0.18789   0.93443   0.00000  Uiso   1.00
C594   C     0.51648   0.17929   0.51410   0.00000  Uiso   1.00
C595   C     0.56426   0.17142   0.98249   0.00000  Uiso   1.00
C596   C     0.57780   0.18242   0.92946   0.00000  Uiso   1.00
C597   C     0.54332   0.19402   0.90723   0.00000  Uiso   1.00
C598   C     0.50629   0.17959   0.56851   0.00000  Uiso   1.00
C599   C     0.58584   0.15543   0.56064   0.00000  Uiso   1.00
C600   C     0.45965   0.18344   0.90818   0.00000  Uiso   1.00
C601   C     0.53694   0.31190   0.76113   0.00000  Uiso   1.00
C602   C     0.47429   0.17179   0.85125   0.00000  Uiso   1.00
C603   C     0.53712   0.02119   0.76086   0.00000  Uiso   1.00
C604   C     0.50007   0.04249   0.75004   0.00000  Uiso   1.00
C605   C     0.46280   0.02142   0.73955   0.00000  Uiso   1.00
C606   C     0.46262   0.31213   0.73981   0.00000  Uiso   1.00
C607   C     0.49974   0.29084   0.75049   0.00000  Uiso   1.00
C608   C     0.64984   0.13536   0.72566   0.00000  Uiso   1.00
C609   C     0.36452   0.13558   0.72522   0.00000  Uiso   1.00
C610   C     0.34943   0.19784   0.77510   0.00000  Uiso   1.00
C611   C     0.63566   0.19830   0.77326   0.00000  Uiso   1.00
C612   C     0.50007   0.08666   0.74995   0.00000  Uiso   1.00
C613   C     0.52584   0.16668   0.64867   0.00000  Uiso   1.00
C614   C     0.59777   0.15592   0.50585   0.00000  Uiso   1.00
C615   C     0.54043   0.16791   0.59166   0.00000  Uiso   1.00
C616   C     0.41106   0.18902   0.93793   0.00000  Uiso   1.00
C617   C     0.39791   0.19340   0.99261   0.00000  Uiso   1.00
C618   C     0.43155   0.18957   0.51871   0.00000  Uiso   1.00
H619   H     0.61148   0.14412   0.57882   0.00000  Uiso   1.00
H620   H     0.43407   0.03772   0.73082   0.00000  Uiso   1.00
H621   H     0.43381   0.29600   0.73125   0.00000  Uiso   1.00
H622   H     0.38836   0.11072   0.70531   0.00000  Uiso   1.00
H623   H     0.61217   0.22383   0.79142   0.00000  Uiso   1.00
H624   H     0.47204   0.18989   0.59384   0.00000  Uiso   1.00
H625   H     0.36076   0.19754   0.51539   0.00000  Uiso   1.00
H626   H     0.55547   0.20794   0.86879   0.00000  Uiso   1.00
N627   N     0.38093   0.16668   0.75002   0.00000  Uiso   1.00
N628   N     0.61906   0.16665   0.75001   0.00000  Uiso   1.00
O629   O     0.46179   0.22775   0.75001   0.00000  Uiso   1.00
O630   O     0.53823   0.22774   0.75001   0.00000  Uiso   1.00
O631   O     0.44280   0.16666   0.82681   0.00000  Uiso   1.00
O632   O     0.51924   0.16665   0.82681   0.00000  Uiso   1.00
O633   O     0.46177   0.10559   0.75000   0.00000  Uiso   1.00
O634   O     0.53821   0.10558   0.75000   0.00000  Uiso   1.00
O635   O     0.48076   0.16668   0.67319   0.00000  Uiso   1.00
O636   O     0.55720   0.16667   0.67319   0.00000  Uiso   1.00
Zn637  Zn    0.44896   0.16667   0.75000   0.00000  Uiso   1.00
Zn638  Zn    0.55104   0.16666   0.75000   0.00000  Uiso   1.00
H639   H     0.56593   0.03733   0.76942   0.00000  Uiso   1.00
H640   H     0.63747   0.11027   0.70619   0.00000  Uiso   1.00
O641   O     0.36202   0.22913   0.80332   0.00000  Uiso   1.00
H642   H     0.38819   0.21849   0.81510   0.00000  Uiso   1.00
H643   H     0.61488   0.18389   0.90567   0.00000  Uiso   1.00
O644   O     0.64085   0.13865   0.97701   0.00000  Uiso   1.00
H645   H     0.63828   0.12836   0.94287   0.00000  Uiso   1.00
O646   O     0.37590   0.19218   0.91469   0.00000  Uiso   1.00
H647   H     0.37443   0.16478   0.89815   0.00000  Uiso   1.00
H648   H     0.41770   0.18925   0.56123   0.00000  Uiso   1.00
H649   H     0.56565   0.29558   0.76988   0.00000  Uiso   1.00
C650   C     0.83321   0.24668   0.75021   0.00000  Uiso   1.00
C651   C     0.81393   0.18606   0.99000   0.00000  Uiso   1.00
C652   C     0.82788   0.18789   0.93443   0.00000  Uiso   1.00
C653   C     0.84981   0.17929   0.51410   0.00000  Uiso   1.00
C654   C     0.89759   0.17142   0.98249   0.00000  Uiso   1.00
C655   C     0.91113   0.18242   0.92946   0.00000  Uiso   1.00
C656   C     0.87666   0.19402   0.90723   0.00000  Uiso   1.00
C657   C     0.83963   0.17959   0.56851   0.00000  Uiso   1.00
C658   C     0.91917   0.15543   0.56064   0.00000  Uiso   1.00
C659   C     0.79298   0.18344   0.90818   0.00000  Uiso   1.00
C660   C     0.87027   0.31190   0.76113   0.00000  Uiso   1.00
C661   C     0.80762   0.17179   0.85125   0.00000  Uiso   1.00
C662   C     0.87046   0.02119   0.76086   0.00000  Uiso   1.00
C663   C     0.83340   0.04249   0.75004   0.00000  Uiso   1.00
C664   C     0.79613   0.02142   0.73955   0.00000  Uiso   1.00
C665   C     0.79595   0.31213   0.73981   0.00000  Uiso   1.00
C666   C     0.83307   0.29084   0.75049   0.00000  Uiso   1.00
C667   C     0.98317   0.13536   0.72566   0.00000  Uiso   1.00
C668   C     0.69785   0.13558   0.72522   0.00000  Uiso   1.00
C669   C     0.68276   0.19784   0.77510   0.00000  Uiso   1.00
C670   C     0.96899   0.19830   0.77326   0.00000  Uiso   1.00
C671   C     0.83341   0.08666   0.74995   0.00000  Uiso   1.00
C672   C     0.85917   0.16668   0.64867   0.00000  Uiso   1.00
C673   C     0.93110   0.15592   0.50585   0.00000  Uiso   1.00
C674   C     0.87376   0.16791   0.59166   0.00000  Uiso   1.00
C675   C     0.74439   0.18902   0.93793   0.00000  Uiso   1.00
C676   C     0.73124   0.19340   0.99261   0.00000  Uiso   1.00
C677   C     0.76489   0.18957   0.51871   0.00000  Uiso   1.00
H678   H     0.94481   0.14412   0.57882   0.00000  Uiso   1.00
H679   H     0.76740   0.03772   0.73082   0.00000  Uiso   1.00
H680   H     0.76714   0.29600   0.73125   0.00000  Uiso   1.00
H681   H     0.72170   0.11072   0.70531   0.00000  Uiso   1.00
H682   H     0.94550   0.22383   0.79142   0.00000  Uiso   1.00
H683   H     0.80537   0.18989   0.59384   0.00000  Uiso   1.00
H684   H     0.69410   0.19754   0.51539   0.00000  Uiso   1.00
H685   H     0.88881   0.20794   0.86879   0.00000  Uiso   1.00
N686   N     0.71426   0.16668   0.75002   0.00000  Uiso   1.00
N687   N     0.95239   0.16665   0.75001   0.00000  Uiso   1.00
O688   O     0.79512   0.22775   0.75001   0.00000  Uiso   1.00
O689   O     0.87157   0.22774   0.75001   0.00000  Uiso   1.00
O690   O     0.77613   0.16666   0.82681   0.00000  Uiso   1.00
O691   O     0.85258   0.16665   0.82681   0.00000  Uiso   1.00
O692   O     0.79510   0.10559   0.75000   0.00000  Uiso   1.00
O693   O     0.87154   0.10558   0.75000   0.00000  Uiso   1.00
O694   O     0.81409   0.16668   0.67319   0.00000  Uiso   1.00
O695   O     0.89053   0.16667   0.67319   0.00000  Uiso   1.00
Zn696  Zn    0.78229   0.16667   0.75000   0.00000  Uiso   1.00
Zn697  Zn    0.88438   0.16666   0.75000   0.00000  Uiso   1.00
H698   H     0.89926   0.03733   0.76942   0.00000  Uiso   1.00
H699   H     0.97080   0.11027   0.70619   0.00000  Uiso   1.00
O700   O     0.69536   0.22913   0.80332   0.00000  Uiso   1.00
H701   H     0.72152   0.21849   0.81510   0.00000  Uiso   1.00
H702   H     0.94821   0.18389   0.90567   0.00000  Uiso   1.00
O703   O     0.97418   0.13865   0.97701   0.00000  Uiso   1.00
H704   H     0.97161   0.12836   0.94287   0.00000  Uiso   1.00
O705   O     0.70923   0.19218   0.91469   0.00000  Uiso   1.00
H706   H     0.70777   0.16478   0.89815   0.00000  Uiso   1.00
H707   H     0.75104   0.18925   0.56123   0.00000  Uiso   1.00
H708   H     0.89898   0.29558   0.76988   0.00000  Uiso   1.00
C709   C     0.16655   0.58001   0.75021   0.00000  Uiso   1.00
C710   C     0.14726   0.51939   0.99000   0.00000  Uiso   1.00
C711   C     0.16121   0.52123   0.93443   0.00000  Uiso   1.00
C712   C     0.18315   0.51263   0.51410   0.00000  Uiso   1.00
C713   C     0.23093   0.50475   0.98249   0.00000  Uiso   1.00
C714   C     0.24446   0.51576   0.92946   0.00000  Uiso   1.00
C715   C     0.20999   0.52735   0.90723   0.00000  Uiso   1.00
C716   C     0.17296   0.51292   0.56851   0.00000  Uiso   1.00
C717   C     0.25251   0.48876   0.56064   0.00000  Uiso   1.00
C718   C     0.12632   0.51677   0.90818   0.00000  Uiso   1.00
C719   C     0.20360   0.64523   0.76113   0.00000  Uiso   1.00
C720   C     0.14095   0.50513   0.85125   0.00000  Uiso   1.00
C721   C     0.20379   0.35452   0.76086   0.00000  Uiso   1.00
C722   C     0.16674   0.37582   0.75004   0.00000  Uiso   1.00
C723   C     0.12947   0.35475   0.73955   0.00000  Uiso   1.00
C724   C     0.12928   0.64547   0.73981   0.00000  Uiso   1.00
C725   C     0.16641   0.62417   0.75049   0.00000  Uiso   1.00
C726   C     0.31650   0.46869   0.72566   0.00000  Uiso   1.00
C727   C     0.03119   0.46891   0.72522   0.00000  Uiso   1.00
C728   C     0.01610   0.53117   0.77510   0.00000  Uiso   1.00
C729   C     0.30232   0.53163   0.77326   0.00000  Uiso   1.00
C730   C     0.16674   0.41999   0.74995   0.00000  Uiso   1.00
C731   C     0.19251   0.50001   0.64867   0.00000  Uiso   1.00
C732   C     0.26444   0.48925   0.50585   0.00000  Uiso   1.00
C733   C     0.20709   0.50124   0.59166   0.00000  Uiso   1.00
C734   C     0.07773   0.52235   0.93793   0.00000  Uiso   1.00
C735   C     0.06458   0.52673   0.99261   0.00000  Uiso   1.00
C736   C     0.09822   0.52290   0.51871   0.00000  Uiso   1.00
H737   H     0.27815   0.47746   0.57882   0.00000  Uiso   1.00
H738   H     0.10074   0.37106   0.73082   0.00000  Uiso   1.00
H739   H     0.10048   0.62933   0.73125   0.00000  Uiso   1.00
H740   H     0.05503   0.44406   0.70531   0.00000  Uiso   1.00
H741   H     0.27883   0.55716   0.79142   0.00000  Uiso   1.00
H742   H     0.13870   0.52323   0.59384   0.00000  Uiso   1.00
H743   H     0.02743   0.53087   0.51539   0.00000  Uiso   1.00
H744   H     0.22214   0.54127   0.86879   0.00000  Uiso   1.00
N745   N     0.04760   0.50001   0.75002   0.00000  Uiso   1.00
N746   N     0.28573   0.49998   0.75001   0.00000  Uiso   1.00
O747   O     0.12846   0.56108   0.75001   0.00000  Uiso   1.00
O748   O     0.20490   0.56107   0.75001   0.00000  Uiso   1.00
O749   O     0.10947   0.50000   0.82681   0.00000  Uiso   1.00
O750   O     0.18591   0.49999   0.82681   0.00000  Uiso   1.00
O751   O     0.12843   0.43893   0.75000   0.00000  Uiso   1.00
O752   O     0.20488   0.43892   0.75000   0.00000  Uiso   1.00
O753   O     0.14742   0.50001   0.67319   0.00000  Uiso   1.00
O754   O     0.22387   0.50000   0.67319   0.00000  Uiso   1.00
Zn755  Zn    0.11562   0.50001   0.75000   0.00000  Uiso   1.00
Zn756  Zn    0.21771   0.49999   0.75000   0.00000  Uiso   1.00
H757   H     0.23260   0.37067   0.76942   0.00000  Uiso   1.00
H758   H     0.30413   0.44360   0.70619   0.00000  Uiso   1.00
O759   O     0.02869   0.56246   0.80332   0.00000  Uiso   1.00
H760   H     0.05485   0.55182   0.81510   0.00000  Uiso   1.00
H761   H     0.28154   0.51722   0.90567   0.00000  Uiso   1.00
O762   O     0.30751   0.47199   0.97701   0.00000  Uiso   1.00
H763   H     0.30495   0.46169   0.94287   0.00000  Uiso   1.00
O764   O     0.04256   0.52552   0.91469   0.00000  Uiso   1.00
H765   H     0.04110   0.49811   0.89815   0.00000  Uiso   1.00
H766   H     0.08437   0.52258   0.56123   0.00000  Uiso   1.00
H767   H     0.23232   0.62892   0.76988   0.00000  Uiso   1.00
C768   C     0.49988   0.58001   0.75021   0.00000  Uiso   1.00
C769   C     0.48059   0.51939   0.99000   0.00000  Uiso   1.00
C770   C     0.49454   0.52123   0.93443   0.00000  Uiso   1.00
C771   C     0.51648   0.51263   0.51410   0.00000  Uiso   1.00
C772   C     0.56426   0.50475   0.98249   0.00000  Uiso   1.00
C773   C     0.57780   0.51576   0.92946   0.00000  Uiso   1.00
C774   C     0.54332   0.52735   0.90723   0.00000  Uiso   1.00
C775   C     0.50629   0.51292   0.56851   0.00000  Uiso   1.00
C776   C     0.58584   0.48876   0.56064   0.00000  Uiso   1.00
C777   C     0.45965   0.51677   0.90818   0.00000  Uiso   1.00
C778   C     0.53694   0.64523   0.76113   0.00000  Uiso   1.00
C779   C     0.47429   0.50513   0.85125   0.00000  Uiso   1.00
C780   C     0.53712   0.35452   0.76086   0.00000  Uiso   1.00
C781   C     0.50007   0.37582   0.75004   0.00000  Uiso   1.00
C782   C     0.46280   0.35475   0.73955   0.00000  Uiso   1.00
C783   C     0.46262   0.64547   0.73981   0.00000  Uiso   1.00
C784   C     0.49974   0.62417   0.75049   0.00000  Uiso   1.00
C785   C     0.64984   0.46869   0.72566   0.00000  Uiso   1.00
C786   C     0.36452   0.46891   0.72522   0.00000  Uiso   1.00
C787   C     0.34943   0.53117   0.77510   0.00000  Uiso   1.00
C788   C     0.63566   0.53163   0.77326   0.00000  Uiso   1.00
C789   C     0.50007   0.41999   0.74995   0.00000  Uiso   1.00
C790   C     0.52584   0.50001   0.64867   0.00000  Uiso   1.00
C791   C     0.59777   0.48925   0.50585   0.00000  Uiso   1.00
C792   C     0.54043   0.50124   0.59166   0.00000  Uiso   1.00
C793   C     0.41106   0.52235   0.93793   0.00000  Uiso   1.00
C794   C     0.39791   0.52673   0.99261   0.00000  Uiso   1.00
C795   C     0.43155   0.52290   0.51871   0.00000  Uiso   1.00
H796   H     0.61148   0.47746   0.57882   0.00000  Uiso   1.00
H797   H     0.43407   0.37106   0.73082   0.00000  Uiso   1.00
H798   H     0.43381   0.62933   0.73125   0.00000  Uiso   1.00
H799   H     0.38836   0.44406   0.70531   0.00000  Uiso   1.00
H800   H     0.61217   0.55716   0.79142   0.00000  Uiso   1.00
H801   H     0.47204   0.52323   0.59384   0.00000  Uiso   1.00
H802   H     0.36076   0.53087   0.51539   0.00000  Uiso   1.00
H803   H     0.55547   0.54127   0.86879   0.00000  Uiso   1.00
N804   N     0.38093   0.50001   0.75002   0.00000  Uiso   1.00
N805   N     0.61906   0.49998   0.75001   0.00000  Uiso   1.00
O806   O     0.46179   0.56108   0.75001   0.00000  Uiso   1.00
O807   O     0.53823   0.56107   0.75001   0.00000  Uiso   1.00
O808   O     0.44280   0.50000   0.82681   0.00000  Uiso   1.00
O809   O     0.51924   0.49999   0.82681   0.00000  Uiso   1.00
O810   O     0.46177   0.43893   0.75000   0.00000  Uiso   1.00
O811   O     0.53821   0.43892   0.75000   0.00000  Uiso   1.00
O812   O     0.48076   0.50001   0.67319   0.00000  Uiso   1.00
O813   O     0.55720   0.50000   0.67319   0.00000  Uiso   1.00
Zn814  Zn    0.44896   0.50001   0.75000   0.00000  Uiso   1.00
Zn815  Zn    0.55104   0.49999   0.75000   0.00000  Uiso   1.00
H816   H     0.56593   0.37067   0.76942   0.00000  Uiso   1.00
H817   H     0.63747   0.44360   0.70619   0.00000  Uiso   1.00
O818   O     0.36202   0.56246   0.80332   0.00000  Uiso   1.00
H819   H     0.38819   0.55182   0.81510   0.00000  Uiso   1.00
H820   H     0.61488   0.51722   0.90567   0.00000  Uiso   1.00
O821   O     0.64085   0.47199   0.97701   0.00000  Uiso   1.00
H822   H     0.63828   0.46169   0.94287   0.00000  Uiso   1.00
O823   O     0.37590   0.52552   0.91469   0.00000  Uiso   1.00
H824   H     0.37443   0.49811   0.89815   0.00000  Uiso   1.00
H825   H     0.41770   0.52258   0.56123   0.00000  Uiso   1.00
H826   H     0.56565   0.62892   0.76988   0.00000  Uiso   1.00
C827   C     0.83321   0.58001   0.75021   0.00000  Uiso   1.00
C828   C     0.81393   0.51939   0.99000   0.00000  Uiso   1.00
C829   C     0.82788   0.52123   0.93443   0.00000  Uiso   1.00
C830   C     0.84981   0.51263   0.51410   0.00000  Uiso   1.00
C831   C     0.89759   0.50475   0.98249   0.00000  Uiso   1.00
C832   C     0.91113   0.51576   0.92946   0.00000  Uiso   1.00
C833   C     0.87666   0.52735   0.90723   0.00000  Uiso   1.00
C834   C     0.83963   0.51292   0.56851   0.00000  Uiso   1.00
C835   C     0.91917   0.48876   0.56064   0.00000  Uiso   1.00
C836   C     0.79298   0.51677   0.90818   0.00000  Uiso   1.00
C837   C     0.87027   0.64523   0.76113   0.00000  Uiso   1.00
C838   C     0.80762   0.50513   0.85125   0.00000  Uiso   1.00
C839   C     0.87046   0.35452   0.76086   0.00000  Uiso   1.00
C840   C     0.83340   0.37582   0.75004   0.00000  Uiso   1.00
C841   C     0.79613   0.35475   0.73955   0.00000  Uiso   1.00
C842   C     0.79595   0.64547   0.73981   0.00000  Uiso   1.00
C843   C     0.83307   0.62417   0.75049   0.00000  Uiso   1.00
C844   C     0.98317   0.46869   0.72566   0.00000  Uiso   1.00
C845   C     0.69785   0.46891   0.72522   0.00000  Uiso   1.00
C846   C     0.68276   0.53117   0.77510   0.00000  Uiso   1.00
C847   C     0.96899   0.53163   0.77326   0.00000  Uiso   1.00
C848   C     0.83341   0.41999   0.74995   0.00000  Uiso   1.00
C849   C     0.85917   0.50001   0.64867   0.00000  Uiso   1.00
C850   C     0.93110   0.48925   0.50585   0.00000  Uiso   1.00
C851   C     0.87376   0.50124   0.59166   0.00000  Uiso   1.00
C852   C     0.74439   0.52235   0.93793   0.00000  Uiso   1.00
C853   C     0.73124   0.52673   0.99261   0.00000  Uiso   1.00
C854   C     0.76489   0.52290   0.51871   0.00000  Uiso   1.00
H855   H     0.94481   0.47746   0.57882   0.00000  Uiso   1.00
H856   H     0.76740   0.37106   0.73082   0.00000  Uiso   1.00
H857   H     0.76714   0.62933   0.73125   0.00000  Uiso   1.00
H858   H     0.72170   0.44406   0.70531   0.00000  Uiso   1.00
H859   H     0.94550   0.55716   0.79142   0.00000  Uiso   1.00
H860   H     0.80537   0.52323   0.59384   0.00000  Uiso   1.00
H861   H     0.69410   0.53087   0.51539   0.00000  Uiso   1.00
H862   H     0.88881   0.54127   0.86879   0.00000  Uiso   1.00
N863   N     0.71426   0.50001   0.75002   0.00000  Uiso   1.00
N864   N     0.95239   0.49998   0.75001   0.00000  Uiso   1.00
O865   O     0.79512   0.56108   0.75001   0.00000  Uiso   1.00
O866   O     0.87157   0.56107   0.75001   0.00000  Uiso   1.00
O867   O     0.77613   0.50000   0.82681   0.00000  Uiso   1.00
O868   O     0.85258   0.49999   0.82681   0.00000  Uiso   1.00
O869   O     0.79510   0.43893   0.75000   0.00000  Uiso   1.00
O870   O     0.87154   0.43892   0.75000   0.00000  Uiso   1.00
O871   O     0.81409   0.50001   0.67319   0.00000  Uiso   1.00
O872   O     0.89053   0.50000   0.67319   0.00000  Uiso   1.00
Zn873  Zn    0.78229   0.50001   0.75000   0.00000  Uiso   1.00
Zn874  Zn    0.88438   0.49999   0.75000   0.00000  Uiso   1.00
H875   H     0.89926   0.37067   0.76942   0.00000  Uiso   1.00
H876   H     0.97080   0.44360   0.70619   0.00000  Uiso   1.00
O877   O     0.69536   0.56246   0.80332   0.00000  Uiso   1.00
H878   H     0.72152   0.55182   0.81510   0.00000  Uiso   1.00
H879   H     0.94821   0.51722   0.90567   0.00000  Uiso   1.00
O880   O     0.97418   0.47199   0.97701   0.00000  Uiso   1.00
H881   H     0.97161   0.46169   0.94287   0.00000  Uiso   1.00
O882   O     0.70923   0.52552   0.91469   0.00000  Uiso   1.00
H883   H     0.70777   0.49811   0.89815   0.00000  Uiso   1.00
H884   H     0.75104   0.52258   0.56123   0.00000  Uiso   1.00
H885   H     0.89898   0.62892   0.76988   0.00000  Uiso   1.00
C886   C     0.16655   0.91334   0.75021   0.00000  Uiso   1.00
C887   C     0.14726   0.85272   0.99000   0.00000  Uiso   1.00
C888   C     0.16121   0.85456   0.93443   0.00000  Uiso   1.00
C889   C     0.18315   0.84596   0.51410   0.00000  Uiso   1.00
C890   C     0.23093   0.83808   0.98249   0.00000  Uiso   1.00
C891   C     0.24446   0.84909   0.92946   0.00000  Uiso   1.00
C892   C     0.20999   0.86069   0.90723   0.00000  Uiso   1.00
C893   C     0.17296   0.84625   0.56851   0.00000  Uiso   1.00
C894   C     0.25251   0.82210   0.56064   0.00000  Uiso   1.00
C895   C     0.12632   0.85010   0.90818   0.00000  Uiso   1.00
C896   C     0.20360   0.97857   0.76113   0.00000  Uiso   1.00
C897   C     0.14095   0.83846   0.85125   0.00000  Uiso   1.00
C898   C     0.20379   0.68786   0.76086   0.00000  Uiso   1.00
C899   C     0.16674   0.70915   0.75004   0.00000  Uiso   1.00
C900   C     0.12947   0.68808   0.73955   0.00000  Uiso   1.00
C901   C     0.12928   0.97880   0.73981   0.00000  Uiso   1.00
C902   C     0.16641   0.95750   0.75049   0.00000  Uiso   1.00
C903   C     0.31650   0.80202   0.72566   0.00000  Uiso   1.00
C904   C     0.03119   0.80224   0.72522   0.00000  Uiso   1.00
C905   C     0.01610   0.86451   0.77510   0.00000  Uiso   1.00
C906   C     0.30232   0.86497   0.77326   0.00000  Uiso   1.00
C907   C     0.16674   0.75332   0.74995   0.00000  Uiso   1.00
C908   C     0.19251   0.83334   0.64867   0.00000  Uiso   1.00
C909   C     0.26444   0.82258   0.50585   0.00000  Uiso   1.00
C910   C     0.20709   0.83458   0.59166   0.00000  Uiso   1.00
C911   C     0.07773   0.85568   0.93793   0.00000  Uiso   1.00
C912   C     0.06458   0.86007   0.99261   0.00000  Uiso   1.00
C913   C     0.09822   0.85623   0.51871   0.00000  Uiso   1.00
H914   H     0.27815   0.81079   0.57882   0.00000  Uiso   1.00
H915   H     0.10074   0.70439   0.73082   0.00000  Uiso   1.00
H916   H     0.10048   0.96266   0.73125   0.00000  Uiso   1.00
H917   H     0.05503   0.77739   0.70531   0.00000  Uiso   1.00
H918   H     0.27883   0.89050   0.79142   0.00000  Uiso   1.00
H919   H     0.13870   0.85656   0.59384   0.00000  Uiso   1.00
H920   H     0.02743   0.86421   0.51539   0.00000  Uiso   1.00
H921   H     0.22214   0.87461   0.86879   0.00000  Uiso   1.00
N922   N     0.04760   0.83334   0.75002   0.00000  Uiso   1.00
N923   N     0.28573   0.83331   0.75001   0.00000  Uiso   1.00
O924   O     0.12846   0.89442   0.75001   0.00000  Uiso   1.00
O925   O     0.20490   0.89441   0.75001   0.00000  Uiso   1.00
O926   O     0.10947   0.83333   0.82681   0.00000  Uiso   1.00
O927   O     0.18591   0.83332   0.82681   0.00000  Uiso   1.00
O928   O     0.12843   0.77226   0.75000   0.00000  Uiso   1.00
O929   O     0.20488   0.77225   0.75000   0.00000  Uiso   1.00
O930   O     0.14742   0.83335   0.67319   0.00000  Uiso   1.00
O931   O     0.22387   0.83334   0.67319   0.00000  Uiso   1.00
Zn932  Zn    0.11562   0.83334   0.75000   0.00000  Uiso   1.00
Zn933  Zn    0.21771   0.83333   0.75000   0.00000  Uiso   1.00
H934   H     0.23260   0.70400   0.76942   0.00000  Uiso   1.00
H935   H     0.30413   0.77693   0.70619   0.00000  Uiso   1.00
O936   O     0.02869   0.89580   0.80332   0.00000  Uiso   1.00
H937   H     0.05485   0.88516   0.81510   0.00000  Uiso   1.00
H938   H     0.28154   0.85056   0.90567   0.00000  Uiso   1.00
O939   O     0.30751   0.80532   0.97701   0.00000  Uiso   1.00
H940   H     0.30495   0.79503   0.94287   0.00000  Uiso   1.00
O941   O     0.04256   0.85885   0.91469   0.00000  Uiso   1.00
H942   H     0.04110   0.83144   0.89815   0.00000  Uiso   1.00
H943   H     0.08437   0.85592   0.56123   0.00000  Uiso   1.00
H944   H     0.23232   0.96225   0.76988   0.00000  Uiso   1.00
C945   C     0.49988   0.91334   0.75021   0.00000  Uiso   1.00
C946   C     0.48059   0.85272   0.99000   0.00000  Uiso   1.00
C947   C     0.49454   0.85456   0.93443   0.00000  Uiso   1.00
C948   C     0.51648   0.84596   0.51410   0.00000  Uiso   1.00
C949   C     0.56426   0.83808   0.98249   0.00000  Uiso   1.00
C950   C     0.57780   0.84909   0.92946   0.00000  Uiso   1.00
C951   C     0.54332   0.86069   0.90723   0.00000  Uiso   1.00
C952   C     0.50629   0.84625   0.56851   0.00000  Uiso   1.00
C953   C     0.58584   0.82210   0.56064   0.00000  Uiso   1.00
C954   C     0.45965   0.85010   0.90818   0.00000  Uiso   1.00
C955   C     0.53694   0.97857   0.76113   0.00000  Uiso   1.00
C956   C     0.47429   0.83846   0.85125   0.00000  Uiso   1.00
C957   C     0.53712   0.68786   0.76086   0.00000  Uiso   1.00
C958   C     0.50007   0.70915   0.75004   0.00000  Uiso   1.00
C959   C     0.46280   0.68808   0.73955   0.00000  Uiso   1.00
C960   C     0.46262   0.97880   0.73981   0.00000  Uiso   1.00
C961   C     0.49974   0.95750   0.75049   0.00000  Uiso   1.00
C962   C     0.64984   0.80202   0.72566   0.00000  Uiso   1.00
C963   C     0.36452   0.80224   0.72522   0.00000  Uiso   1.00
C964   C     0.34943   0.86451   0.77510   0.00000  Uiso   1.00
C965   C     0.63566   0.86497   0.77326   0.00000  Uiso   1.00
C966   C     0.50007   0.75332   0.74995   0.00000  Uiso   1.00
C967   C     0.52584   0.83334   0.64867   0.00000  Uiso   1.00
C968   C     0.59777   0.82258   0.50585   0.00000  Uiso   1.00
C969   C     0.54043   0.83458   0.59166   0.00000  Uiso   1.00
C970   C     0.41106   0.85568   0.93793   0.00000  Uiso   1.00
C971   C     0.39791   0.86007   0.99261   0.00000  Uiso   1.00
C972   C     0.43155   0.85623   0.51871   0.00000  Uiso   1.00
H973   H     0.61148   0.81079   0.57882   0.00000  Uiso   1.00
H974   H     0.43407   0.70439   0.73082   0.00000  Uiso   1.00
H975   H     0.43381   0.96266   0.73125   0.00000  Uiso   1.00
H976   H     0.38836   0.77739   0.70531   0.00000  Uiso   1.00
H977   H     0.61217   0.89050   0.79142   0.00000  Uiso   1.00
H978   H     0.47204   0.85656   0.59384   0.00000  Uiso   1.00
H979   H     0.36076   0.86421   0.51539   0.00000  Uiso   1.00
H980   H     0.55547   0.87461   0.86879   0.00000  Uiso   1.00
N981   N     0.38093   0.83334   0.75002   0.00000  Uiso   1.00
N982   N     0.61906   0.83331   0.75001   0.00000  Uiso   1.00
O983   O     0.46179   0.89442   0.75001   0.00000  Uiso   1.00
O984   O     0.53823   0.89441   0.75001   0.00000  Uiso   1.00
O985   O     0.44280   0.83333   0.82681   0.00000  Uiso   1.00
O986   O     0.51924   0.83332   0.82681   0.00000  Uiso   1.00
O987   O     0.46177   0.77226   0.75000   0.00000  Uiso   1.00
O988   O     0.53821   0.77225   0.75000   0.00000  Uiso   1.00
O989   O     0.48076   0.83335   0.67319   0.00000  Uiso   1.00
O990   O     0.55720   0.83334   0.67319   0.00000  Uiso   1.00
Zn991  Zn    0.44896   0.83334   0.75000   0.00000  Uiso   1.00
Zn992  Zn    0.55104   0.83333   0.75000   0.00000  Uiso   1.00
H993   H     0.56593   0.70400   0.76942   0.00000  Uiso   1.00
H994   H     0.63747   0.77693   0.70619   0.00000  Uiso   1.00
O995   O     0.36202   0.89580   0.80332   0.00000  Uiso   1.00
H996   H     0.38819   0.88516   0.81510   0.00000  Uiso   1.00
H997   H     0.61488   0.85056   0.90567   0.00000  Uiso   1.00
O998   O     0.64085   0.80532   0.97701   0.00000  Uiso   1.00
H999   H     0.63828   0.79503   0.94287   0.00000  Uiso   1.00
O1000  O     0.37590   0.85885   0.91469   0.00000  Uiso   1.00
H1001  H     0.37443   0.83144   0.89815   0.00000  Uiso   1.00
H1002  H     0.41770   0.85592   0.56123   0.00000  Uiso   1.00
H1003  H     0.56565   0.96225   0.76988   0.00000  Uiso   1.00
C1004  C     0.83321   0.91334   0.75021   0.00000  Uiso   1.00
C1005  C     0.81393   0.85272   0.99000   0.00000  Uiso   1.00
C1006  C     0.82788   0.85456   0.93443   0.00000  Uiso   1.00
C1007  C     0.84981   0.84596   0.51410   0.00000  Uiso   1.00
C1008  C     0.89759   0.83808   0.98249   0.00000  Uiso   1.00
C1009  C     0.91113   0.84909   0.92946   0.00000  Uiso   1.00
C1010  C     0.87666   0.86069   0.90723   0.00000  Uiso   1.00
C1011  C     0.83963   0.84625   0.56851   0.00000  Uiso   1.00
C1012  C     0.91917   0.82210   0.56064   0.00000  Uiso   1.00
C1013  C     0.79298   0.85010   0.90818   0.00000  Uiso   1.00
C1014  C     0.87027   0.97857   0.76113   0.00000  Uiso   1.00
C1015  C     0.80762   0.83846   0.85125   0.00000  Uiso   1.00
C1016  C     0.87046   0.68786   0.76086   0.00000  Uiso   1.00
C1017  C     0.83340   0.70915   0.75004   0.00000  Uiso   1.00
C1018  C     0.79613   0.68808   0.73955   0.00000  Uiso   1.00
C1019  C     0.79595   0.97880   0.73981   0.00000  Uiso   1.00
C1020  C     0.83307   0.95750   0.75049   0.00000  Uiso   1.00
C1021  C     0.98317   0.80202   0.72566   0.00000  Uiso   1.00
C1022  C     0.69785   0.80224   0.72522   0.00000  Uiso   1.00
C1023  C     0.68276   0.86451   0.77510   0.00000  Uiso   1.00
C1024  C     0.96899   0.86497   0.77326   0.00000  Uiso   1.00
C1025  C     0.83341   0.75332   0.74995   0.00000  Uiso   1.00
C1026  C     0.85917   0.83334   0.64867   0.00000  Uiso   1.00
C1027  C     0.93110   0.82258   0.50585   0.00000  Uiso   1.00
C1028  C     0.87376   0.83458   0.59166   0.00000  Uiso   1.00
C1029  C     0.74439   0.85568   0.93793   0.00000  Uiso   1.00
C1030  C     0.73124   0.86007   0.99261   0.00000  Uiso   1.00
C1031  C     0.76489   0.85623   0.51871   0.00000  Uiso   1.00
H1032  H     0.94481   0.81079   0.57882   0.00000  Uiso   1.00
H1033  H     0.76740   0.70439   0.73082   0.00000  Uiso   1.00
H1034  H     0.76714   0.96266   0.73125   0.00000  Uiso   1.00
H1035  H     0.72170   0.77739   0.70531   0.00000  Uiso   1.00
H1036  H     0.94550   0.89050   0.79142   0.00000  Uiso   1.00
H1037  H     0.80537   0.85656   0.59384   0.00000  Uiso   1.00
H1038  H     0.69410   0.86421   0.51539   0.00000  Uiso   1.00
H1039  H     0.88881   0.87461   0.86879   0.00000  Uiso   1.00
N1040  N     0.71426   0.83334   0.75002   0.00000  Uiso   1.00
N1041  N     0.95239   0.83331   0.75001   0.00000  Uiso   1.00
O1042  O     0.79512   0.89442   0.75001   0.00000  Uiso   1.00
O1043  O     0.87157   0.89441   0.75001   0.00000  Uiso   1.00
O1044  O     0.77613   0.83333   0.82681   0.00000  Uiso   1.00
O1045  O     0.85258   0.83332   0.82681   0.00000  Uiso   1.00
O1046  O     0.79510   0.77226   0.75000   0.00000  Uiso   1.00
O1047  O     0.87154   0.77225   0.75000   0.00000  Uiso   1.00
O1048  O     0.81409   0.83335   0.67319   0.00000  Uiso   1.00
O1049  O     0.89053   0.83334   0.67319   0.00000  Uiso   1.00
Zn1050 Zn    0.78229   0.83334   0.75000   0.00000  Uiso   1.00
Zn1051 Zn    0.88438   0.83333   0.75000   0.00000  Uiso   1.00
H1052  H     0.89926   0.70400   0.76942   0.00000  Uiso   1.00
H1053  H     0.97080   0.77693   0.70619   0.00000  Uiso   1.00
O1054  O     0.69536   0.89580   0.80332   0.00000  Uiso   1.00
H1055  H     0.72152   0.88516   0.81510   0.00000  Uiso   1.00
H1056  H     0.94821   0.85056   0.90567   0.00000  Uiso   1.00
O1057  O     0.97418   0.80532   0.97701   0.00000  Uiso   1.00
H1058  H     0.97161   0.79503   0.94287   0.00000  Uiso   1.00
O1059  O     0.70923   0.85885   0.91469   0.00000  Uiso   1.00
H1060  H     0.70777   0.83144   0.89815   0.00000  Uiso   1.00
H1061  H     0.75104   0.85592   0.56123   0.00000  Uiso   1.00
H1062  H     0.89898   0.96225   0.76988   0.00000  Uiso   1.00
loop_
_geom_bond_atom_site_label_1
_geom_bond_atom_site_label_2
_geom_bond_distance
_geom_bond_site_symmetry_2
_ccdc_geom_bond_type
C1     C17     1.420   .     S
C1     O39     1.286   .     A
C1     O40     1.284   .     A
C2     C3      1.408   .     A
C2     C535    1.421   .     S
C2     C559    1.416   .     S
C3     C7      1.413   .     A
C3     C10     1.426   .     A
C4     C8      1.384   .     A
C4     C533    1.421   1_554 S
C4     C536    1.421   1_554 S
C5     C6      1.391   .     A
C5     C535    1.421   .     S
C5     C555    1.417   .     S
C6     C7      1.383   .     A
C6     H53     1.083   .     S
C7     H36     1.075   .     S
C8     C25     1.391   .     A
C8     H34     1.075   .     S
C9     C24     1.389   .     A
C9     H29     1.084   .     S
C9     C25     1.394   .     A
C10    C26     1.417   .     A
C10    C12     1.484   .     S
C11    H59     1.084   .     S
C11    C17     1.398   .     A
C11    C190    1.370   .     S
C12    O42     1.294   .     A
C12    O41     1.305   .     A
C13    C14     1.396   .     A
C13    H49     1.084   .     S
C13    C365    1.370   1_545 S
C14    C22     1.420   .     S
C14    C15     1.398   .     A
C15    H30     1.084   .     S
C15    C370    1.370   1_545 S
C16    H31     1.084   .     S
C16    C17     1.396   .     A
C16    C192    1.370   .     S
C18    N38     1.368   .     A
C18    H50     1.082   .     S
C18    C78     1.418   .     S
C19    H32     1.082   .     S
C19    N37     1.367   .     A
C19    C136    1.418   1_455 S
C20    N37     1.381   .     A
C20    O51     1.373   .     S
C20    C139    1.411   1_455 S
C21    H33     1.080   .     S
C21    N38     1.359   .     A
C21    C79     1.411   .     S
C22    O43     1.284   .     A
C22    O44     1.286   .     A
C23    O45     1.289   .     A
C23    O46     1.293   .     A
C23    C25     1.443   .     S
C24    C536    1.417   1_554 S
C24    O585    1.376   1_554 S
C26    C27     1.390   .     A
C26    O56     1.373   .     S
C27    C559    1.388   .     S
C27    H566    1.083   .     S
C28    H58     1.077   .     S
C28    C558    1.388   1_554 S
C28    C533    1.416   1_554 S
H35    C558    1.083   1_554 S
N37    Zn47    2.015   .     S
N38    Zn48    2.014   .     S
O39    Zn47    2.002   .     S
O40    Zn48    1.998   .     S
O41    Zn47    1.996   .     S
O42    Zn48    1.965   .     S
O43    Zn47    1.998   .     S
O44    Zn48    2.002   .     S
O45    Zn47    1.965   .     S
O46    Zn48    1.996   .     S
O51    H52     0.984   .     S
O54    H55     0.991   .     S
O54    C555    1.376   .     S
O56    H57     0.989   .     S
C60    C76     1.420   .     S
C60    O98     1.286   .     A
C60    O99     1.284   .     A
C61    C62     1.408   .     A
C61    C594    1.421   .     S
C61    C618    1.416   .     S
C62    C66     1.413   .     A
C62    C69     1.426   .     A
C63    C67     1.384   .     A
C63    C592    1.421   1_554 S
C63    C595    1.421   1_554 S
C64    C65     1.391   .     A
C64    C594    1.421   .     S
C64    C614    1.417   .     S
C65    C66     1.383   .     A
C65    H112    1.083   .     S
C66    H95     1.075   .     S
C67    C84     1.391   .     A
C67    H93     1.075   .     S
C68    C83     1.389   .     A
C68    H88     1.084   .     S
C68    C84     1.394   .     A
C69    C85     1.417   .     A
C69    C71     1.484   .     S
C70    H118    1.084   .     S
C70    C76     1.398   .     A
C70    C249    1.370   .     S
C71    O101    1.294   .     A
C71    O100    1.305   .     A
C72    C73     1.396   .     A
C72    H108    1.084   .     S
C72    C424    1.370   1_545 S
C73    C81     1.420   .     S
C73    C74     1.398   .     A
C74    H89     1.084   .     S
C74    C429    1.370   1_545 S
C75    H90     1.084   .     S
C75    C76     1.396   .     A
C75    C251    1.370   .     S
C77    N97     1.368   .     A
C77    H109    1.082   .     S
C77    C137    1.418   .     S
C78    H91     1.082   .     S
C78    N96     1.367   .     A
C79    N96     1.381   .     A
C79    O110    1.373   .     S
C80    H92     1.080   .     S
C80    N97     1.359   .     A
C80    C138    1.411   .     S
C81    O102    1.284   .     A
C81    O103    1.286   .     A
C82    O104    1.289   .     A
C82    O105    1.293   .     A
C82    C84     1.443   .     S
C83    C595    1.417   1_554 S
C83    O644    1.376   1_554 S
C85    C86     1.390   .     A
C85    O115    1.373   .     S
C86    C618    1.388   .     S
C86    H625    1.083   .     S
C87    H117    1.077   .     S
C87    C617    1.388   1_554 S
C87    C592    1.416   1_554 S
H94    C617    1.083   1_554 S
N96    Zn106   2.015   .     S
N97    Zn107   2.014   .     S
O98    Zn106   2.002   .     S
O99    Zn107   1.998   .     S
O100   Zn106   1.996   .     S
O101   Zn107   1.965   .     S
O102   Zn106   1.998   .     S
O103   Zn107   2.002   .     S
O104   Zn106   1.965   .     S
O105   Zn107   1.996   .     S
O110   H111    0.984   .     S
O113   H114    0.991   .     S
O113   C614    1.376   .     S
O115   H116    0.989   .     S
C119   C135    1.420   .     S
C119   O157    1.286   .     A
C119   O158    1.284   .     A
C120   C121    1.408   .     A
C120   C653    1.421   .     S
C120   C677    1.416   .     S
C121   C125    1.413   .     A
C121   C128    1.426   .     A
C122   C126    1.384   .     A
C122   C651    1.421   1_554 S
C122   C654    1.421   1_554 S
C123   C124    1.391   .     A
C123   C653    1.421   .     S
C123   C673    1.417   .     S
C124   C125    1.383   .     A
C124   H171    1.083   .     S
C125   H154    1.075   .     S
C126   C143    1.391   .     A
C126   H152    1.075   .     S
C127   C142    1.389   .     A
C127   H147    1.084   .     S
C127   C143    1.394   .     A
C128   C144    1.417   .     A
C128   C130    1.484   .     S
C129   H177    1.084   .     S
C129   C135    1.398   .     A
C129   C308    1.370   .     S
C130   O160    1.294   .     A
C130   O159    1.305   .     A
C131   C132    1.396   .     A
C131   H167    1.084   .     S
C131   C483    1.370   1_545 S
C132   C140    1.420   .     S
C132   C133    1.398   .     A
C133   H148    1.084   .     S
C133   C488    1.370   1_545 S
C134   H149    1.084   .     S
C134   C135    1.396   .     A
C134   C310    1.370   .     S
C136   N156    1.368   .     A
C136   H168    1.082   .     S
C136   C19     1.418   1_655 S
C137   H150    1.082   .     S
C137   N155    1.367   .     A
C138   N155    1.381   .     A
C138   O169    1.373   .     S
C139   H151    1.080   .     S
C139   N156    1.359   .     A
C139   C20     1.411   1_655 S
C140   O161    1.284   .     A
C140   O162    1.286   .     A
C141   O163    1.289   .     A
C141   O164    1.293   .     A
C141   C143    1.443   .     S
C142   C654    1.417   1_554 S
C142   O703    1.376   1_554 S
C144   C145    1.390   .     A
C144   O174    1.373   .     S
C145   C677    1.388   .     S
C145   H684    1.083   .     S
C146   H176    1.077   .     S
C146   C676    1.388   1_554 S
C146   C651    1.416   1_554 S
H153   C676    1.083   1_554 S
N155   Zn165   2.015   .     S
N156   Zn166   2.014   .     S
O157   Zn165   2.002   .     S
O158   Zn166   1.998   .     S
O159   Zn165   1.996   .     S
O160   Zn166   1.965   .     S
O161   Zn165   1.998   .     S
O162   Zn166   2.002   .     S
O163   Zn165   1.965   .     S
O164   Zn166   1.996   .     S
O169   H170    0.984   .     S
O172   H173    0.991   .     S
O172   C673    1.376   .     S
O174   H175    0.989   .     S
C178   C194    1.420   .     S
C178   O216    1.286   .     A
C178   O217    1.284   .     A
C179   C180    1.408   .     A
C179   C712    1.421   .     S
C179   C736    1.416   .     S
C180   C184    1.413   .     A
C180   C187    1.426   .     A
C181   C185    1.384   .     A
C181   C710    1.421   1_554 S
C181   C713    1.421   1_554 S
C182   C183    1.391   .     A
C182   C712    1.421   .     S
C182   C732    1.417   .     S
C183   C184    1.383   .     A
C183   H230    1.083   .     S
C184   H213    1.075   .     S
C185   C202    1.391   .     A
C185   H211    1.075   .     S
C186   C201    1.389   .     A
C186   H206    1.084   .     S
C186   C202    1.394   .     A
C187   C203    1.417   .     A
C187   C189    1.484   .     S
C188   H236    1.084   .     S
C188   C194    1.398   .     A
C188   C367    1.370   .     S
C189   O219    1.294   .     A
C189   O218    1.305   .     A
C190   C191    1.396   .     A
C190   H226    1.084   .     S
C191   C199    1.420   .     S
C191   C192    1.398   .     A
C192   H207    1.084   .     S
C193   H208    1.084   .     S
C193   C194    1.396   .     A
C193   C369    1.370   .     S
C195   N215    1.368   .     A
C195   H227    1.082   .     S
C195   C255    1.418   .     S
C196   H209    1.082   .     S
C196   N214    1.367   .     A
C196   C313    1.418   1_455 S
C197   N214    1.381   .     A
C197   O228    1.373   .     S
C197   C316    1.411   1_455 S
C198   H210    1.080   .     S
C198   N215    1.359   .     A
C198   C256    1.411   .     S
C199   O220    1.284   .     A
C199   O221    1.286   .     A
C200   O222    1.289   .     A
C200   O223    1.293   .     A
C200   C202    1.443   .     S
C201   C713    1.417   1_554 S
C201   O762    1.376   1_554 S
C203   C204    1.390   .     A
C203   O233    1.373   .     S
C204   C736    1.388   .     S
C204   H743    1.083   .     S
C205   H235    1.077   .     S
C205   C735    1.388   1_554 S
C205   C710    1.416   1_554 S
H212   C735    1.083   1_554 S
N214   Zn224   2.015   .     S
N215   Zn225   2.014   .     S
O216   Zn224   2.002   .     S
O217   Zn225   1.998   .     S
O218   Zn224   1.996   .     S
O219   Zn225   1.965   .     S
O220   Zn224   1.998   .     S
O221   Zn225   2.002   .     S
O222   Zn224   1.965   .     S
O223   Zn225   1.996   .     S
O228   H229    0.984   .     S
O231   H232    0.991   .     S
O231   C732    1.376   .     S
O233   H234    0.989   .     S
C237   C253    1.420   .     S
C237   O275    1.286   .     A
C237   O276    1.284   .     A
C238   C239    1.408   .     A
C238   C771    1.421   .     S
C238   C795    1.416   .     S
C239   C243    1.413   .     A
C239   C246    1.426   .     A
C240   C244    1.384   .     A
C240   C769    1.421   1_554 S
C240   C772    1.421   1_554 S
C241   C242    1.391   .     A
C241   C771    1.421   .     S
C241   C791    1.417   .     S
C242   C243    1.383   .     A
C242   H289    1.083   .     S
C243   H272    1.075   .     S
C244   C261    1.391   .     A
C244   H270    1.075   .     S
C245   C260    1.389   .     A
C245   H265    1.084   .     S
C245   C261    1.394   .     A
C246   C262    1.417   .     A
C246   C248    1.484   .     S
C247   H295    1.084   .     S
C247   C253    1.398   .     A
C247   C426    1.370   .     S
C248   O278    1.294   .     A
C248   O277    1.305   .     A
C249   C250    1.396   .     A
C249   H285    1.084   .     S
C250   C258    1.420   .     S
C250   C251    1.398   .     A
C251   H266    1.084   .     S
C252   H267    1.084   .     S
C252   C253    1.396   .     A
C252   C428    1.370   .     S
C254   N274    1.368   .     A
C254   H286    1.082   .     S
C254   C314    1.418   .     S
C255   H268    1.082   .     S
C255   N273    1.367   .     A
C256   N273    1.381   .     A
C256   O287    1.373   .     S
C257   H269    1.080   .     S
C257   N274    1.359   .     A
C257   C315    1.411   .     S
C258   O279    1.284   .     A
C258   O280    1.286   .     A
C259   O281    1.289   .     A
C259   O282    1.293   .     A
C259   C261    1.443   .     S
C260   C772    1.417   1_554 S
C260   O821    1.376   1_554 S
C262   C263    1.390   .     A
C262   O292    1.373   .     S
C263   C795    1.388   .     S
C263   H802    1.083   .     S
C264   H294    1.077   .     S
C264   C794    1.388   1_554 S
C264   C769    1.416   1_554 S
H271   C794    1.083   1_554 S
N273   Zn283   2.015   .     S
N274   Zn284   2.014   .     S
O275   Zn283   2.002   .     S
O276   Zn284   1.998   .     S
O277   Zn283   1.996   .     S
O278   Zn284   1.965   .     S
O279   Zn283   1.998   .     S
O280   Zn284   2.002   .     S
O281   Zn283   1.965   .     S
O282   Zn284   1.996   .     S
O287   H288    0.984   .     S
O290   H291    0.991   .     S
O290   C791    1.376   .     S
O292   H293    0.989   .     S
C296   C312    1.420   .     S
C296   O334    1.286   .     A
C296   O335    1.284   .     A
C297   C298    1.408   .     A
C297   C830    1.421   .     S
C297   C854    1.416   .     S
C298   C302    1.413   .     A
C298   C305    1.426   .     A
C299   C303    1.384   .     A
C299   C828    1.421   1_554 S
C299   C831    1.421   1_554 S
C300   C301    1.391   .     A
C300   C830    1.421   .     S
C300   C850    1.417   .     S
C301   C302    1.383   .     A
C301   H348    1.083   .     S
C302   H331    1.075   .     S
C303   C320    1.391   .     A
C303   H329    1.075   .     S
C304   C319    1.389   .     A
C304   H324    1.084   .     S
C304   C320    1.394   .     A
C305   C321    1.417   .     A
C305   C307    1.484   .     S
C306   H354    1.084   .     S
C306   C312    1.398   .     A
C306   C485    1.370   .     S
C307   O337    1.294   .     A
C307   O336    1.305   .     A
C308   C309    1.396   .     A
C308   H344    1.084   .     S
C309   C317    1.420   .     S
C309   C310    1.398   .     A
C310   H325    1.084   .     S
C311   H326    1.084   .     S
C311   C312    1.396   .     A
C311   C487    1.370   .     S
C313   N333    1.368   .     A
C313   H345    1.082   .     S
C313   C196    1.418   1_655 S
C314   H327    1.082   .     S
C314   N332    1.367   .     A
C315   N332    1.381   .     A
C315   O346    1.373   .     S
C316   H328    1.080   .     S
C316   N333    1.359   .     A
C316   C197    1.411   1_655 S
C317   O338    1.284   .     A
C317   O339    1.286   .     A
C318   O340    1.289   .     A
C318   O341    1.293   .     A
C318   C320    1.443   .     S
C319   C831    1.417   1_554 S
C319   O880    1.376   1_554 S
C321   C322    1.390   .     A
C321   O351    1.373   .     S
C322   C854    1.388   .     S
C322   H861    1.083   .     S
C323   H353    1.077   .     S
C323   C853    1.388   1_554 S
C323   C828    1.416   1_554 S
H330   C853    1.083   1_554 S
N332   Zn342   2.015   .     S
N333   Zn343   2.014   .     S
O334   Zn342   2.002   .     S
O335   Zn343   1.998   .     S
O336   Zn342   1.996   .     S
O337   Zn343   1.965   .     S
O338   Zn342   1.998   .     S
O339   Zn343   2.002   .     S
O340   Zn342   1.965   .     S
O341   Zn343   1.996   .     S
O346   H347    0.984   .     S
O349   H350    0.991   .     S
O349   C850    1.376   .     S
O351   H352    0.989   .     S
C355   C371    1.420   .     S
C355   O393    1.286   .     A
C355   O394    1.284   .     A
C356   C357    1.408   .     A
C356   C889    1.421   .     S
C356   C913    1.416   .     S
C357   C361    1.413   .     A
C357   C364    1.426   .     A
C358   C362    1.384   .     A
C358   C887    1.421   1_554 S
C358   C890    1.421   1_554 S
C359   C360    1.391   .     A
C359   C889    1.421   .     S
C359   C909    1.417   .     S
C360   C361    1.383   .     A
C360   H407    1.083   .     S
C361   H390    1.075   .     S
C362   C379    1.391   .     A
C362   H388    1.075   .     S
C363   C378    1.389   .     A
C363   H383    1.084   .     S
C363   C379    1.394   .     A
C364   C380    1.417   .     A
C364   C366    1.484   .     S
C365   H413    1.084   .     S
C365   C371    1.398   .     A
C365   C13     1.370   1_565 S
C366   O396    1.294   .     A
C366   O395    1.305   .     A
C367   C368    1.396   .     A
C367   H403    1.084   .     S
C368   C376    1.420   .     S
C368   C369    1.398   .     A
C369   H384    1.084   .     S
C370   H385    1.084   .     S
C370   C371    1.396   .     A
C370   C15     1.370   1_565 S
C372   N392    1.368   .     A
C372   H404    1.082   .     S
C372   C432    1.418   .     S
C373   H386    1.082   .     S
C373   N391    1.367   .     A
C373   C490    1.418   1_455 S
C374   N391    1.381   .     A
C374   O405    1.373   .     S
C374   C493    1.411   1_455 S
C375   H387    1.080   .     S
C375   N392    1.359   .     A
C375   C433    1.411   .     S
C376   O397    1.284   .     A
C376   O398    1.286   .     A
C377   O399    1.289   .     A
C377   O400    1.293   .     A
C377   C379    1.443   .     S
C378   C890    1.417   1_554 S
C378   O939    1.376   1_554 S
C380   C381    1.390   .     A
C380   O410    1.373   .     S
C381   C913    1.388   .     S
C381   H920    1.083   .     S
C382   H412    1.077   .     S
C382   C912    1.388   1_554 S
C382   C887    1.416   1_554 S
H389   C912    1.083   1_554 S
N391   Zn401   2.015   .     S
N392   Zn402   2.014   .     S
O393   Zn401   2.002   .     S
O394   Zn402   1.998   .     S
O395   Zn401   1.996   .     S
O396   Zn402   1.965   .     S
O397   Zn401   1.998   .     S
O398   Zn402   2.002   .     S
O399   Zn401   1.965   .     S
O400   Zn402   1.996   .     S
O405   H406    0.984   .     S
O408   H409    0.991   .     S
O408   C909    1.376   .     S
O410   H411    0.989   .     S
C414   C430    1.420   .     S
C414   O452    1.286   .     A
C414   O453    1.284   .     A
C415   C416    1.408   .     A
C415   C948    1.421   .     S
C415   C972    1.416   .     S
C416   C420    1.413   .     A
C416   C423    1.426   .     A
C417   C421    1.384   .     A
C417   C946    1.421   1_554 S
C417   C949    1.421   1_554 S
C418   C419    1.391   .     A
C418   C948    1.421   .     S
C418   C968    1.417   .     S
C419   C420    1.383   .     A
C419   H466    1.083   .     S
C420   H449    1.075   .     S
C421   C438    1.391   .     A
C421   H447    1.075   .     S
C422   C437    1.389   .     A
C422   H442    1.084   .     S
C422   C438    1.394   .     A
C423   C439    1.417   .     A
C423   C425    1.484   .     S
C424   H472    1.084   .     S
C424   C430    1.398   .     A
C424   C72     1.370   1_565 S
C425   O455    1.294   .     A
C425   O454    1.305   .     A
C426   C427    1.396   .     A
C426   H462    1.084   .     S
C427   C435    1.420   .     S
C427   C428    1.398   .     A
C428   H443    1.084   .     S
C429   H444    1.084   .     S
C429   C430    1.396   .     A
C429   C74     1.370   1_565 S
C431   N451    1.368   .     A
C431   H463    1.082   .     S
C431   C491    1.418   .     S
C432   H445    1.082   .     S
C432   N450    1.367   .     A
C433   N450    1.381   .     A
C433   O464    1.373   .     S
C434   H446    1.080   .     S
C434   N451    1.359   .     A
C434   C492    1.411   .     S
C435   O456    1.284   .     A
C435   O457    1.286   .     A
C436   O458    1.289   .     A
C436   O459    1.293   .     A
C436   C438    1.443   .     S
C437   C949    1.417   1_554 S
C437   O998    1.376   1_554 S
C439   C440    1.390   .     A
C439   O469    1.373   .     S
C440   C972    1.388   .     S
C440   H979    1.083   .     S
C441   H471    1.077   .     S
C441   C971    1.388   1_554 S
C441   C946    1.416   1_554 S
H448   C971    1.083   1_554 S
N450   Zn460   2.015   .     S
N451   Zn461   2.014   .     S
O452   Zn460   2.002   .     S
O453   Zn461   1.998   .     S
O454   Zn460   1.996   .     S
O455   Zn461   1.965   .     S
O456   Zn460   1.998   .     S
O457   Zn461   2.002   .     S
O458   Zn460   1.965   .     S
O459   Zn461   1.996   .     S
O464   H465    0.984   .     S
O467   H468    0.991   .     S
O467   C968    1.376   .     S
O469   H470    0.989   .     S
C473   C489    1.420   .     S
C473   O511    1.286   .     A
C473   O512    1.284   .     A
C474   C475    1.408   .     A
C474   C1007   1.421   .     S
C474   C1031   1.416   .     S
C475   C479    1.413   .     A
C475   C482    1.426   .     A
C476   C480    1.384   .     A
C476   C1005   1.421   1_554 S
C476   C1008   1.421   1_554 S
C477   C478    1.391   .     A
C477   C1007   1.421   .     S
C477   C1027   1.417   .     S
C478   C479    1.383   .     A
C478   H525    1.083   .     S
C479   H508    1.075   .     S
C480   C497    1.391   .     A
C480   H506    1.075   .     S
C481   C496    1.389   .     A
C481   H501    1.084   .     S
C481   C497    1.394   .     A
C482   C498    1.417   .     A
C482   C484    1.484   .     S
C483   H531    1.084   .     S
C483   C489    1.398   .     A
C483   C131    1.370   1_565 S
C484   O514    1.294   .     A
C484   O513    1.305   .     A
C485   C486    1.396   .     A
C485   H521    1.084   .     S
C486   C494    1.420   .     S
C486   C487    1.398   .     A
C487   H502    1.084   .     S
C488   H503    1.084   .     S
C488   C489    1.396   .     A
C488   C133    1.370   1_565 S
C490   N510    1.368   .     A
C490   H522    1.082   .     S
C490   C373    1.418   1_655 S
C491   H504    1.082   .     S
C491   N509    1.367   .     A
C492   N509    1.381   .     A
C492   O523    1.373   .     S
C493   H505    1.080   .     S
C493   N510    1.359   .     A
C493   C374    1.411   1_655 S
C494   O515    1.284   .     A
C494   O516    1.286   .     A
C495   O517    1.289   .     A
C495   O518    1.293   .     A
C495   C497    1.443   .     S
C496   C1008   1.417   1_554 S
C496   O1057   1.376   1_554 S
C498   C499    1.390   .     A
C498   O528    1.373   .     S
C499   C1031   1.388   .     S
C499   H1038   1.083   .     S
C500   H530    1.077   .     S
C500   C1030   1.388   1_554 S
C500   C1005   1.416   1_554 S
H507   C1030   1.083   1_554 S
N509   Zn519   2.015   .     S
N510   Zn520   2.014   .     S
O511   Zn519   2.002   .     S
O512   Zn520   1.998   .     S
O513   Zn519   1.996   .     S
O514   Zn520   1.965   .     S
O515   Zn519   1.998   .     S
O516   Zn520   2.002   .     S
O517   Zn519   1.965   .     S
O518   Zn520   1.996   .     S
O523   H524    0.984   .     S
O526   H527    0.991   .     S
O526   C1027   1.376   .     S
O528   H529    0.989   .     S
C532   C548    1.420   .     S
C532   O570    1.286   .     A
C532   O571    1.284   .     A
C533   C534    1.408   .     A
C533   C4      1.421   1_556 S
C533   C28     1.416   1_556 S
C534   C538    1.413   .     A
C534   C541    1.426   .     A
C535   C539    1.384   .     A
C536   C537    1.391   .     A
C536   C4      1.421   1_556 S
C536   C24     1.417   1_556 S
C537   C538    1.383   .     A
C537   H584    1.083   .     S
C538   H567    1.075   .     S
C539   C556    1.391   .     A
C539   H565    1.075   .     S
C540   C555    1.389   .     A
C540   H560    1.084   .     S
C540   C556    1.394   .     A
C541   C557    1.417   .     A
C541   C543    1.484   .     S
C542   H590    1.084   .     S
C542   C548    1.398   .     A
C542   C721    1.370   .     S
C543   O573    1.294   .     A
C543   O572    1.305   .     A
C544   C545    1.396   .     A
C544   H580    1.084   .     S
C544   C896    1.370   1_545 S
C545   C553    1.420   .     S
C545   C546    1.398   .     A
C546   H561    1.084   .     S
C546   C901    1.370   1_545 S
C547   H562    1.084   .     S
C547   C548    1.396   .     A
C547   C723    1.370   .     S
C549   N569    1.368   .     A
C549   H581    1.082   .     S
C549   C609    1.418   .     S
C550   H563    1.082   .     S
C550   N568    1.367   .     A
C550   C667    1.418   1_455 S
C551   N568    1.381   .     A
C551   O582    1.373   .     S
C551   C670    1.411   1_455 S
C552   H564    1.080   .     S
C552   N569    1.359   .     A
C552   C610    1.411   .     S
C553   O574    1.284   .     A
C553   O575    1.286   .     A
C554   O576    1.289   .     A
C554   O577    1.293   .     A
C554   C556    1.443   .     S
C557   C558    1.390   .     A
C557   O587    1.373   .     S
C558   C28     1.388   1_556 S
C558   H35     1.083   1_556 S
C559   H589    1.077   .     S
N568   Zn578   2.015   .     S
N569   Zn579   2.014   .     S
O570   Zn578   2.002   .     S
O571   Zn579   1.998   .     S
O572   Zn578   1.996   .     S
O573   Zn579   1.965   .     S
O574   Zn578   1.998   .     S
O575   Zn579   2.002   .     S
O576   Zn578   1.965   .     S
O577   Zn579   1.996   .     S
O582   H583    0.984   .     S
O585   H586    0.991   .     S
O585   C24     1.376   1_556 S
O587   H588    0.989   .     S
C591   C607    1.420   .     S
C591   O629    1.286   .     A
C591   O630    1.284   .     A
C592   C593    1.408   .     A
C592   C63     1.421   1_556 S
C592   C87     1.416   1_556 S
C593   C597    1.413   .     A
C593   C600    1.426   .     A
C594   C598    1.384   .     A
C595   C596    1.391   .     A
C595   C63     1.421   1_556 S
C595   C83     1.417   1_556 S
C596   C597    1.383   .     A
C596   H643    1.083   .     S
C597   H626    1.075   .     S
C598   C615    1.391   .     A
C598   H624    1.075   .     S
C599   C614    1.389   .     A
C599   H619    1.084   .     S
C599   C615    1.394   .     A
C600   C616    1.417   .     A
C600   C602    1.484   .     S
C601   H649    1.084   .     S
C601   C607    1.398   .     A
C601   C780    1.370   .     S
C602   O632    1.294   .     A
C602   O631    1.305   .     A
C603   C604    1.396   .     A
C603   H639    1.084   .     S
C603   C955    1.370   1_545 S
C604   C612    1.420   .     S
C604   C605    1.398   .     A
C605   H620    1.084   .     S
C605   C960    1.370   1_545 S
C606   H621    1.084   .     S
C606   C607    1.396   .     A
C606   C782    1.370   .     S
C608   N628    1.368   .     A
C608   H640    1.082   .     S
C608   C668    1.418   .     S
C609   H622    1.082   .     S
C609   N627    1.367   .     A
C610   N627    1.381   .     A
C610   O641    1.373   .     S
C611   H623    1.080   .     S
C611   N628    1.359   .     A
C611   C669    1.411   .     S
C612   O633    1.284   .     A
C612   O634    1.286   .     A
C613   O635    1.289   .     A
C613   O636    1.293   .     A
C613   C615    1.443   .     S
C616   C617    1.390   .     A
C616   O646    1.373   .     S
C617   C87     1.388   1_556 S
C617   H94     1.083   1_556 S
C618   H648    1.077   .     S
N627   Zn637   2.015   .     S
N628   Zn638   2.014   .     S
O629   Zn637   2.002   .     S
O630   Zn638   1.998   .     S
O631   Zn637   1.996   .     S
O632   Zn638   1.965   .     S
O633   Zn637   1.998   .     S
O634   Zn638   2.002   .     S
O635   Zn637   1.965   .     S
O636   Zn638   1.996   .     S
O641   H642    0.984   .     S
O644   H645    0.991   .     S
O644   C83     1.376   1_556 S
O646   H647    0.989   .     S
C650   C666    1.420   .     S
C650   O688    1.286   .     A
C650   O689    1.284   .     A
C651   C652    1.408   .     A
C651   C122    1.421   1_556 S
C651   C146    1.416   1_556 S
C652   C656    1.413   .     A
C652   C659    1.426   .     A
C653   C657    1.384   .     A
C654   C655    1.391   .     A
C654   C122    1.421   1_556 S
C654   C142    1.417   1_556 S
C655   C656    1.383   .     A
C655   H702    1.083   .     S
C656   H685    1.075   .     S
C657   C674    1.391   .     A
C657   H683    1.075   .     S
C658   C673    1.389   .     A
C658   H678    1.084   .     S
C658   C674    1.394   .     A
C659   C675    1.417   .     A
C659   C661    1.484   .     S
C660   H708    1.084   .     S
C660   C666    1.398   .     A
C660   C839    1.370   .     S
C661   O691    1.294   .     A
C661   O690    1.305   .     A
C662   C663    1.396   .     A
C662   H698    1.084   .     S
C662   C1014   1.370   1_545 S
C663   C671    1.420   .     S
C663   C664    1.398   .     A
C664   H679    1.084   .     S
C664   C1019   1.370   1_545 S
C665   H680    1.084   .     S
C665   C666    1.396   .     A
C665   C841    1.370   .     S
C667   N687    1.368   .     A
C667   H699    1.082   .     S
C667   C550    1.418   1_655 S
C668   H681    1.082   .     S
C668   N686    1.367   .     A
C669   N686    1.381   .     A
C669   O700    1.373   .     S
C670   H682    1.080   .     S
C670   N687    1.359   .     A
C670   C551    1.411   1_655 S
C671   O692    1.284   .     A
C671   O693    1.286   .     A
C672   O694    1.289   .     A
C672   O695    1.293   .     A
C672   C674    1.443   .     S
C675   C676    1.390   .     A
C675   O705    1.373   .     S
C676   C146    1.388   1_556 S
C676   H153    1.083   1_556 S
C677   H707    1.077   .     S
N686   Zn696   2.015   .     S
N687   Zn697   2.014   .     S
O688   Zn696   2.002   .     S
O689   Zn697   1.998   .     S
O690   Zn696   1.996   .     S
O691   Zn697   1.965   .     S
O692   Zn696   1.998   .     S
O693   Zn697   2.002   .     S
O694   Zn696   1.965   .     S
O695   Zn697   1.996   .     S
O700   H701    0.984   .     S
O703   H704    0.991   .     S
O703   C142    1.376   1_556 S
O705   H706    0.989   .     S
C709   C725    1.420   .     S
C709   O747    1.286   .     A
C709   O748    1.284   .     A
C710   C711    1.408   .     A
C710   C181    1.421   1_556 S
C710   C205    1.416   1_556 S
C711   C715    1.413   .     A
C711   C718    1.426   .     A
C712   C716    1.384   .     A
C713   C714    1.391   .     A
C713   C181    1.421   1_556 S
C713   C201    1.417   1_556 S
C714   C715    1.383   .     A
C714   H761    1.083   .     S
C715   H744    1.075   .     S
C716   C733    1.391   .     A
C716   H742    1.075   .     S
C717   C732    1.389   .     A
C717   H737    1.084   .     S
C717   C733    1.394   .     A
C718   C734    1.417   .     A
C718   C720    1.484   .     S
C719   H767    1.084   .     S
C719   C725    1.398   .     A
C719   C898    1.370   .     S
C720   O750    1.294   .     A
C720   O749    1.305   .     A
C721   C722    1.396   .     A
C721   H757    1.084   .     S
C722   C730    1.420   .     S
C722   C723    1.398   .     A
C723   H738    1.084   .     S
C724   H739    1.084   .     S
C724   C725    1.396   .     A
C724   C900    1.370   .     S
C726   N746    1.368   .     A
C726   H758    1.082   .     S
C726   C786    1.418   .     S
C727   H740    1.082   .     S
C727   N745    1.367   .     A
C727   C844    1.418   1_455 S
C728   N745    1.381   .     A
C728   O759    1.373   .     S
C728   C847    1.411   1_455 S
C729   H741    1.080   .     S
C729   N746    1.359   .     A
C729   C787    1.411   .     S
C730   O751    1.284   .     A
C730   O752    1.286   .     A
C731   O753    1.289   .     A
C731   O754    1.293   .     A
C731   C733    1.443   .     S
C734   C735    1.390   .     A
C734   O764    1.373   .     S
C735   C205    1.388   1_556 S
C735   H212    1.083   1_556 S
C736   H766    1.077   .     S
N745   Zn755   2.015   .     S
N746   Zn756   2.014   .     S
O747   Zn755   2.002   .     S
O748   Zn756   1.998   .     S
O749   Zn755   1.996   .     S
O750   Zn756   1.965   .     S
O751   Zn755   1.998   .     S
O752   Zn756   2.002   .     S
O753   Zn755   1.965   .     S
O754   Zn756   1.996   .     S
O759   H760    0.984   .     S
O762   H763    0.991   .     S
O762   C201    1.376   1_556 S
O764   H765    0.989   .     S
C768   C784    1.420   .     S
C768   O806    1.286   .     A
C768   O807    1.284   .     A
C769   C770    1.408   .     A
C769   C240    1.421   1_556 S
C769   C264    1.416   1_556 S
C770   C774    1.413   .     A
C770   C777    1.426   .     A
C771   C775    1.384   .     A
C772   C773    1.391   .     A
C772   C240    1.421   1_556 S
C772   C260    1.417   1_556 S
C773   C774    1.383   .     A
C773   H820    1.083   .     S
C774   H803    1.075   .     S
C775   C792    1.391   .     A
C775   H801    1.075   .     S
C776   C791    1.389   .     A
C776   H796    1.084   .     S
C776   C792    1.394   .     A
C777   C793    1.417   .     A
C777   C779    1.484   .     S
C778   H826    1.084   .     S
C778   C784    1.398   .     A
C778   C957    1.370   .     S
C779   O809    1.294   .     A
C779   O808    1.305   .     A
C780   C781    1.396   .     A
C780   H816    1.084   .     S
C781   C789    1.420   .     S
C781   C782    1.398   .     A
C782   H797    1.084   .     S
C783   H798    1.084   .     S
C783   C784    1.396   .     A
C783   C959    1.370   .     S
C785   N805    1.368   .     A
C785   H817    1.082   .     S
C785   C845    1.418   .     S
C786   H799    1.082   .     S
C786   N804    1.367   .     A
C787   N804    1.381   .     A
C787   O818    1.373   .     S
C788   H800    1.080   .     S
C788   N805    1.359   .     A
C788   C846    1.411   .     S
C789   O810    1.284   .     A
C789   O811    1.286   .     A
C790   O812    1.289   .     A
C790   O813    1.293   .     A
C790   C792    1.443   .     S
C793   C794    1.390   .     A
C793   O823    1.373   .     S
C794   C264    1.388   1_556 S
C794   H271    1.083   1_556 S
C795   H825    1.077   .     S
N804   Zn814   2.015   .     S
N805   Zn815   2.014   .     S
O806   Zn814   2.002   .     S
O807   Zn815   1.998   .     S
O808   Zn814   1.996   .     S
O809   Zn815   1.965   .     S
O810   Zn814   1.998   .     S
O811   Zn815   2.002   .     S
O812   Zn814   1.965   .     S
O813   Zn815   1.996   .     S
O818   H819    0.984   .     S
O821   H822    0.991   .     S
O821   C260    1.376   1_556 S
O823   H824    0.989   .     S
C827   C843    1.420   .     S
C827   O865    1.286   .     A
C827   O866    1.284   .     A
C828   C829    1.408   .     A
C828   C299    1.421   1_556 S
C828   C323    1.416   1_556 S
C829   C833    1.413   .     A
C829   C836    1.426   .     A
C830   C834    1.384   .     A
C831   C832    1.391   .     A
C831   C299    1.421   1_556 S
C831   C319    1.417   1_556 S
C832   C833    1.383   .     A
C832   H879    1.083   .     S
C833   H862    1.075   .     S
C834   C851    1.391   .     A
C834   H860    1.075   .     S
C835   C850    1.389   .     A
C835   H855    1.084   .     S
C835   C851    1.394   .     A
C836   C852    1.417   .     A
C836   C838    1.484   .     S
C837   H885    1.084   .     S
C837   C843    1.398   .     A
C837   C1016   1.370   .     S
C838   O868    1.294   .     A
C838   O867    1.305   .     A
C839   C840    1.396   .     A
C839   H875    1.084   .     S
C840   C848    1.420   .     S
C840   C841    1.398   .     A
C841   H856    1.084   .     S
C842   H857    1.084   .     S
C842   C843    1.396   .     A
C842   C1018   1.370   .     S
C844   N864    1.368   .     A
C844   H876    1.082   .     S
C844   C727    1.418   1_655 S
C845   H858    1.082   .     S
C845   N863    1.367   .     A
C846   N863    1.381   .     A
C846   O877    1.373   .     S
C847   H859    1.080   .     S
C847   N864    1.359   .     A
C847   C728    1.411   1_655 S
C848   O869    1.284   .     A
C848   O870    1.286   .     A
C849   O871    1.289   .     A
C849   O872    1.293   .     A
C849   C851    1.443   .     S
C852   C853    1.390   .     A
C852   O882    1.373   .     S
C853   C323    1.388   1_556 S
C853   H330    1.083   1_556 S
C854   H884    1.077   .     S
N863   Zn873   2.015   .     S
N864   Zn874   2.014   .     S
O865   Zn873   2.002   .     S
O866   Zn874   1.998   .     S
O867   Zn873   1.996   .     S
O868   Zn874   1.965   .     S
O869   Zn873   1.998   .     S
O870   Zn874   2.002   .     S
O871   Zn873   1.965   .     S
O872   Zn874   1.996   .     S
O877   H878    0.984   .     S
O880   H881    0.991   .     S
O880   C319    1.376   1_556 S
O882   H883    0.989   .     S
C886   C902    1.420   .     S
C886   O924    1.286   .     A
C886   O925    1.284   .     A
C887   C888    1.408   .     A
C887   C358    1.421   1_556 S
C887   C382    1.416   1_556 S
C888   C892    1.413   .     A
C888   C895    1.426   .     A
C889   C893    1.384   .     A
C890   C891    1.391   .     A
C890   C358    1.421   1_556 S
C890   C378    1.417   1_556 S
C891   C892    1.383   .     A
C891   H938    1.083   .     S
C892   H921    1.075   .     S
C893   C910    1.391   .     A
C893   H919    1.075   .     S
C894   C909    1.389   .     A
C894   H914    1.084   .     S
C894   C910    1.394   .     A
C895   C911    1.417   .     A
C895   C897    1.484   .     S
C896   H944    1.084   .     S
C896   C902    1.398   .     A
C896   C544    1.370   1_565 S
C897   O927    1.294   .     A
C897   O926    1.305   .     A
C898   C899    1.396   .     A
C898   H934    1.084   .     S
C899   C907    1.420   .     S
C899   C900    1.398   .     A
C900   H915    1.084   .     S
C901   H916    1.084   .     S
C901   C902    1.396   .     A
C901   C546    1.370   1_565 S
C903   N923    1.368   .     A
C903   H935    1.082   .     S
C903   C963    1.418   .     S
C904   H917    1.082   .     S
C904   N922    1.367   .     A
C904   C1021   1.418   1_455 S
C905   N922    1.381   .     A
C905   O936    1.373   .     S
C905   C1024   1.411   1_455 S
C906   H918    1.080   .     S
C906   N923    1.359   .     A
C906   C964    1.411   .     S
C907   O928    1.284   .     A
C907   O929    1.286   .     A
C908   O930    1.289   .     A
C908   O931    1.293   .     A
C908   C910    1.443   .     S
C911   C912    1.390   .     A
C911   O941    1.373   .     S
C912   C382    1.388   1_556 S
C912   H389    1.083   1_556 S
C913   H943    1.077   .     S
N922   Zn932   2.015   .     S
N923   Zn933   2.014   .     S
O924   Zn932   2.002   .     S
O925   Zn933   1.998   .     S
O926   Zn932   1.996   .     S
O927   Zn933   1.965   .     S
O928   Zn932   1.998   .     S
O929   Zn933   2.002   .     S
O930   Zn932   1.965   .     S
O931   Zn933   1.996   .     S
O936   H937    0.984   .     S
O939   H940    0.991   .     S
O939   C378    1.376   1_556 S
O941   H942    0.989   .     S
C945   C961    1.420   .     S
C945   O983    1.286   .     A
C945   O984    1.284   .     A
C946   C947    1.408   .     A
C946   C417    1.421   1_556 S
C946   C441    1.416   1_556 S
C947   C951    1.413   .     A
C947   C954    1.426   .     A
C948   C952    1.384   .     A
C949   C950    1.391   .     A
C949   C417    1.421   1_556 S
C949   C437    1.417   1_556 S
C950   C951    1.383   .     A
C950   H997    1.083   .     S
C951   H980    1.075   .     S
C952   C969    1.391   .     A
C952   H978    1.075   .     S
C953   C968    1.389   .     A
C953   H973    1.084   .     S
C953   C969    1.394   .     A
C954   C970    1.417   .     A
C954   C956    1.484   .     S
C955   H1003   1.084   .     S
C955   C961    1.398   .     A
C955   C603    1.370   1_565 S
C956   O986    1.294   .     A
C956   O985    1.305   .     A
C957   C958    1.396   .     A
C957   H993    1.084   .     S
C958   C966    1.420   .     S
C958   C959    1.398   .     A
C959   H974    1.084   .     S
C960   H975    1.084   .     S
C960   C961    1.396   .     A
C960   C605    1.370   1_565 S
C962   N982    1.368   .     A
C962   H994    1.082   .     S
C962   C1022   1.418   .     S
C963   H976    1.082   .     S
C963   N981    1.367   .     A
C964   N981    1.381   .     A
C964   O995    1.373   .     S
C965   H977    1.080   .     S
C965   N982    1.359   .     A
C965   C1023   1.411   .     S
C966   O987    1.284   .     A
C966   O988    1.286   .     A
C967   O989    1.289   .     A
C967   O990    1.293   .     A
C967   C969    1.443   .     S
C970   C971    1.390   .     A
C970   O1000   1.373   .     S
C971   C441    1.388   1_556 S
C971   H448    1.083   1_556 S
C972   H1002   1.077   .     S
N981   Zn991   2.015   .     S
N982   Zn992   2.014   .     S
O983   Zn991   2.002   .     S
O984   Zn992   1.998   .     S
O985   Zn991   1.996   .     S
O986   Zn992   1.965   .     S
O987   Zn991   1.998   .     S
O988   Zn992   2.002   .     S
O989   Zn991   1.965   .     S
O990   Zn992   1.996   .     S
O995   H996    0.984   .     S
O998   H999    0.991   .     S
O998   C437    1.376   1_556 S
O1000  H1001   0.989   .     S
C1004  C1020   1.420   .     S
C1004  O1042   1.286   .     A
C1004  O1043   1.284   .     A
C1005  C1006   1.408   .     A
C1005  C476    1.421   1_556 S
C1005  C500    1.416   1_556 S
C1006  C1010   1.413   .     A
C1006  C1013   1.426   .     A
C1007  C1011   1.384   .     A
C1008  C1009   1.391   .     A
C1008  C476    1.421   1_556 S
C1008  C496    1.417   1_556 S
C1009  C1010   1.383   .     A
C1009  H1056   1.083   .     S
C1010  H1039   1.075   .     S
C1011  C1028   1.391   .     A
C1011  H1037   1.075   .     S
C1012  C1027   1.389   .     A
C1012  H1032   1.084   .     S
C1012  C1028   1.394   .     A
C1013  C1029   1.417   .     A
C1013  C1015   1.484   .     S
C1014  H1062   1.084   .     S
C1014  C1020   1.398   .     A
C1014  C662    1.370   1_565 S
C1015  O1045   1.294   .     A
C1015  O1044   1.305   .     A
C1016  C1017   1.396   .     A
C1016  H1052   1.084   .     S
C1017  C1025   1.420   .     S
C1017  C1018   1.398   .     A
C1018  H1033   1.084   .     S
C1019  H1034   1.084   .     S
C1019  C1020   1.396   .     A
C1019  C664    1.370   1_565 S
C1021  N1041   1.368   .     A
C1021  H1053   1.082   .     S
C1021  C904    1.418   1_655 S
C1022  H1035   1.082   .     S
C1022  N1040   1.367   .     A
C1023  N1040   1.381   .     A
C1023  O1054   1.373   .     S
C1024  H1036   1.080   .     S
C1024  N1041   1.359   .     A
C1024  C905    1.411   1_655 S
C1025  O1046   1.284   .     A
C1025  O1047   1.286   .     A
C1026  O1048   1.289   .     A
C1026  O1049   1.293   .     A
C1026  C1028   1.443   .     S
C1029  C1030   1.390   .     A
C1029  O1059   1.373   .     S
C1030  C500    1.388   1_556 S
C1030  H507    1.083   1_556 S
C1031  H1061   1.077   .     S
N1040  Zn1050  2.015   .     S
N1041  Zn1051  2.014   .     S
O1042  Zn1050  2.002   .     S
O1043  Zn1051  1.998   .     S
O1044  Zn1050  1.996   .     S
O1045  Zn1051  1.965   .     S
O1046  Zn1050  1.998   .     S
O1047  Zn1051  2.002   .     S
O1048  Zn1050  1.965   .     S
O1049  Zn1051  1.996   .     S
O1054  H1055   0.984   .     S
O1057  H1058   0.991   .     S
O1057  C496    1.376   1_556 S
O1059  H1060   0.989   .     S
