data_str_m3_o1_o2_pcu_sym.17
_audit_creation_date              2020-01-03
_audit_creation_method            'Materials Studio'
_symmetry_space_group_name_H-M    'P1'
_symmetry_Int_Tables_number       1
_symmetry_cell_setting            triclinic
loop_
_symmetry_equiv_pos_as_xyz
  x,y,z
_cell_length_a                    32.2359
_cell_length_b                    29.5645
_cell_length_c                    30.3119
_cell_angle_alpha                 89.8239
_cell_angle_beta                  90.0690
_cell_angle_gamma                 90.2601
loop_
_atom_site_label
_atom_site_type_symbol
_atom_site_fract_x
_atom_site_fract_y
_atom_site_fract_z
_atom_site_U_iso_or_equiv
_atom_site_adp_type
_atom_site_occupancy
C1     C     0.08670   0.16672   0.24875   0.00000  Uiso   1.00
C2     C     0.31247   0.20866   0.24977   0.00000  Uiso   1.00
C3     C     0.31210   0.12818   0.23038   0.00000  Uiso   1.00
C4     C     0.02131   0.20710   0.25584   0.00000  Uiso   1.00
C5     C     0.17521   0.20483   0.04847   0.00000  Uiso   1.00
C6     C     0.18327   0.12900   0.45399   0.00000  Uiso   1.00
C7     C     0.15322   0.20422   0.45175   0.00000  Uiso   1.00
C8     C     0.14619   0.12894   0.04675   0.00000  Uiso   1.00
C9     C     0.16367   0.20781   0.09235   0.00000  Uiso   1.00
C10    C     0.18005   0.12677   0.40820   0.00000  Uiso   1.00
C11    C     0.16435   0.20737   0.40771   0.00000  Uiso   1.00
C12    C     0.24670   0.16686   0.24806   0.00000  Uiso   1.00
C13    C     0.14964   0.12682   0.09253   0.00000  Uiso   1.00
C14    C     0.15845   0.16705   0.11608   0.00000  Uiso   1.00
C15    C     0.17149   0.16690   0.38430   0.00000  Uiso   1.00
C16    C     0.16329   0.16627   0.02431   0.00000  Uiso   1.00
C17    C     0.16603   0.16618   0.47617   0.00000  Uiso   1.00
C18    C     0.29085   0.16777   0.24278   0.00000  Uiso   1.00
C19    C     0.04267   0.16752   0.24433   0.00000  Uiso   1.00
C20    C     0.23978   0.22702   0.02456   0.00000  Uiso   1.00
C21    C     0.26209   0.21343   0.06776   0.00000  Uiso   1.00
C22    C     0.30774   0.20303   0.05945   0.00000  Uiso   1.00
C23    C     0.16393   0.16671   0.16396   0.00000  Uiso   1.00
C24    C     0.24648   0.10792   0.48065   0.00000  Uiso   1.00
C25    C     0.27485   0.06864   0.46843   0.00000  Uiso   1.00
C26    C     0.27232   0.03022   0.00182   0.00000  Uiso   1.00
C27    C     0.08958   0.22623   0.47790   0.00000  Uiso   1.00
C28    C     0.06555   0.21411   0.43548   0.00000  Uiso   1.00
C29    C     0.01992   0.20457   0.44532   0.00000  Uiso   1.00
C30    C     0.08268   0.10491   0.02301   0.00000  Uiso   1.00
C31    C     0.05694   0.06372   0.03688   0.00000  Uiso   1.00
C32    C     0.05942   0.02584   0.00313   0.00000  Uiso   1.00
C33    C     0.12285   0.26193   0.12570   0.00000  Uiso   1.00
C34    C     0.16853   0.16665   0.33616   0.00000  Uiso   1.00
C35    C     0.09204   0.26858   0.08773   0.00000  Uiso   1.00
C36    C     0.05111   0.28728   0.10520   0.00000  Uiso   1.00
C37    C     0.15274   0.06231   0.37815   0.00000  Uiso   1.00
C38    C     0.14035   0.03127   0.41618   0.00000  Uiso   1.00
C39    C     0.10366   0.00165   0.40272   0.00000  Uiso   1.00
C40    C     0.20446   0.26429   0.37707   0.00000  Uiso   1.00
C41    C     0.23322   0.27032   0.41697   0.00000  Uiso   1.00
C42    C     0.27449   0.29107   0.40255   0.00000  Uiso   1.00
C43    C     0.17795   0.06266   0.12178   0.00000  Uiso   1.00
C44    C     0.18744   0.02911   0.08522   0.00000  Uiso   1.00
C45    C     0.19970   0.02407   0.26634   0.00000  Uiso   1.00
C46    C     0.22444   0.33330   0.09821   0.00000  Uiso   1.00
C47    C     0.05398   0.10181   0.16720   0.00000  Uiso   1.00
C48    C     0.29444   0.27392   0.21566   0.00000  Uiso   1.00
C49    C     0.27912   0.08196   0.18109   0.00000  Uiso   1.00
C50    C     0.04274   0.24375   0.31744   0.00000  Uiso   1.00
C51    C     0.13339   0.30926   0.23429   0.00000  Uiso   1.00
C52    C     0.13347   0.02379   0.23412   0.00000  Uiso   1.00
C53    C     0.19960   0.30953   0.26648   0.00000  Uiso   1.00
C54    C     0.02150   0.12948   0.22768   0.00000  Uiso   1.00
H55    H     0.22606   0.04218   0.27969   0.00000  Uiso   1.00
H56    H     0.32346   0.19554   0.09125   0.00000  Uiso   1.00
H57    H     0.32340   0.23237   0.04365   0.00000  Uiso   1.00
H58    H     0.25243   0.11817   0.01534   0.00000  Uiso   1.00
H59    H     0.25608   0.13679   0.45894   0.00000  Uiso   1.00
H60    H     0.26642   0.05600   0.43516   0.00000  Uiso   1.00
H61    H     0.30743   0.08111   0.46719   0.00000  Uiso   1.00
H62    H     0.27894   0.04324   0.03538   0.00000  Uiso   1.00
H63    H     0.29585   0.00424   0.49414   0.00000  Uiso   1.00
H64    H     0.24111   0.01430   0.00067   0.00000  Uiso   1.00
H65    H     0.07366   0.25520   0.49361   0.00000  Uiso   1.00
H66    H     0.10666   0.29116   0.22178   0.00000  Uiso   1.00
H67    H     0.08788   0.19787   0.00177   0.00000  Uiso   1.00
H68    H     0.06775   0.24235   0.41147   0.00000  Uiso   1.00
H69    H     0.07887   0.18341   0.42005   0.00000  Uiso   1.00
H70    H     0.01693   0.17461   0.46728   0.00000  Uiso   1.00
H71    H     0.00312   0.19749   0.41407   0.00000  Uiso   1.00
H72    H     0.00544   0.23422   0.46142   0.00000  Uiso   1.00
H73    H     0.07436   0.11494   0.48876   0.00000  Uiso   1.00
H74    H     0.07304   0.13325   0.04508   0.00000  Uiso   1.00
H75    H     0.06793   0.05123   0.06941   0.00000  Uiso   1.00
H76    H     0.02397   0.07398   0.04039   0.00000  Uiso   1.00
H77    H     0.10705   0.04163   0.22108   0.00000  Uiso   1.00
H78    H     0.04981   0.03844   0.47016   0.00000  Uiso   1.00
H79    H     0.03818   0.33123   0.01253   0.00000  Uiso   1.00
H80    H     0.09151   0.01253   0.00179   0.00000  Uiso   1.00
H81    H     0.12562   0.29443   0.14368   0.00000  Uiso   1.00
H82    H     0.10928   0.23695   0.14906   0.00000  Uiso   1.00
H83    H     0.10516   0.29204   0.06275   0.00000  Uiso   1.00
H84    H     0.08564   0.23546   0.07198   0.00000  Uiso   1.00
H85    H     0.03724   0.26343   0.12951   0.00000  Uiso   1.00
H86    H     0.02882   0.29180   0.07775   0.00000  Uiso   1.00
H87    H     0.05620   0.32052   0.12132   0.00000  Uiso   1.00
H88    H     0.22570   0.29163   0.28025   0.00000  Uiso   1.00
H89    H     0.15870   0.04119   0.34863   0.00000  Uiso   1.00
H90    H     0.12593   0.08456   0.36973   0.00000  Uiso   1.00
H91    H     0.16689   0.00966   0.42562   0.00000  Uiso   1.00
H92    H     0.13145   0.05192   0.44510   0.00000  Uiso   1.00
H93    H     0.07624   0.02285   0.39491   0.00000  Uiso   1.00
H94    H     0.09566   0.31194   0.43021   0.00000  Uiso   1.00
H95    H     0.11151   0.31450   0.37331   0.00000  Uiso   1.00
H96    H     0.20153   0.29747   0.36015   0.00000  Uiso   1.00
H97    H     0.21996   0.24117   0.35355   0.00000  Uiso   1.00
H98    H     0.21846   0.29203   0.44218   0.00000  Uiso   1.00
H99    H     0.25665   0.25639   0.01021   0.00000  Uiso   1.00
H100   H     0.23973   0.23672   0.43167   0.00000  Uiso   1.00
H101   H     0.28968   0.26903   0.37787   0.00000  Uiso   1.00
H102   H     0.29550   0.29433   0.43128   0.00000  Uiso   1.00
H103   H     0.26955   0.32500   0.38773   0.00000  Uiso   1.00
H104   H     0.17385   0.04357   0.15308   0.00000  Uiso   1.00
H105   H     0.20539   0.08530   0.12638   0.00000  Uiso   1.00
H106   H     0.16004   0.00729   0.07913   0.00000  Uiso   1.00
H107   H     0.19477   0.04778   0.05440   0.00000  Uiso   1.00
H108   H     0.25217   0.02136   0.10452   0.00000  Uiso   1.00
H109   H     0.23157   0.30989   0.07099   0.00000  Uiso   1.00
H110   H     0.24212   0.19946   0.00018   0.00000  Uiso   1.00
H111   H     0.21754   0.31340   0.12848   0.00000  Uiso   1.00
H112   H     0.06523   0.07014   0.15194   0.00000  Uiso   1.00
H113   H     0.07970   0.12687   0.16618   0.00000  Uiso   1.00
H114   H     0.02778   0.11445   0.14669   0.00000  Uiso   1.00
H115   H     0.27919   0.30712   0.22025   0.00000  Uiso   1.00
H116   H     0.27757   0.25575   0.18892   0.00000  Uiso   1.00
H117   H     0.32703   0.28089   0.20548   0.00000  Uiso   1.00
H118   H     0.26731   0.11391   0.16609   0.00000  Uiso   1.00
H119   H     0.25345   0.05690   0.18053   0.00000  Uiso   1.00
H120   H     0.30459   0.06789   0.16088   0.00000  Uiso   1.00
H121   H     0.25984   0.24106   0.09230   0.00000  Uiso   1.00
H122   H     0.05725   0.27538   0.32967   0.00000  Uiso   1.00
H123   H     0.06200   0.21495   0.32914   0.00000  Uiso   1.00
H124   H     0.01111   0.24148   0.33190   0.00000  Uiso   1.00
H125   H     0.24761   0.18258   0.08215   0.00000  Uiso   1.00
H126   H     0.31064   0.17306   0.03771   0.00000  Uiso   1.00
N127   N     0.16667   0.28573   0.25000   0.00000  Uiso   1.00
N128   N     0.16667   0.04760   0.25000   0.00000  Uiso   1.00
O129   O     0.10559   0.20487   0.24999   0.00000  Uiso   1.00
O130   O     0.20412   0.09514   0.47637   0.00000  Uiso   1.00
O131   O     0.13133   0.23965   0.47019   0.00000  Uiso   1.00
O132   O     0.12570   0.09469   0.02452   0.00000  Uiso   1.00
O133   O     0.16353   0.25017   0.11173   0.00000  Uiso   1.00
O134   O     0.18978   0.08656   0.38747   0.00000  Uiso   1.00
O135   O     0.16360   0.24971   0.38805   0.00000  Uiso   1.00
O136   O     0.14062   0.08637   0.11355   0.00000  Uiso   1.00
O137   O     0.04200   0.09224   0.21110   0.00000  Uiso   1.00
O138   O     0.29260   0.24956   0.25579   0.00000  Uiso   1.00
O139   O     0.29201   0.08702   0.22526   0.00000  Uiso   1.00
O140   O     0.22774   0.12846   0.25000   0.00000  Uiso   1.00
O141   O     0.04137   0.24558   0.27097   0.00000  Uiso   1.00
O142   O     0.22774   0.20487   0.25000   0.00000  Uiso   1.00
O143   O     0.10559   0.12846   0.24999   0.00000  Uiso   1.00
O144   O     0.16666   0.20489   0.18453   0.00000  Uiso   1.00
O145   O     0.16667   0.12845   0.31547   0.00000  Uiso   1.00
O146   O     0.16667   0.20489   0.31547   0.00000  Uiso   1.00
O147   O     0.16666   0.12845   0.18453   0.00000  Uiso   1.00
O148   O     0.19778   0.24020   0.03032   0.00000  Uiso   1.00
Zn149  Zn    0.16667   0.21771   0.25000   0.00000  Uiso   1.00
Zn150  Zn    0.16667   0.11563   0.25000   0.00000  Uiso   1.00
C151   C     0.42004   0.16672   0.24875   0.00000  Uiso   1.00
C152   C     0.64581   0.20866   0.24977   0.00000  Uiso   1.00
C153   C     0.64544   0.12818   0.23038   0.00000  Uiso   1.00
C154   C     0.35464   0.20710   0.25584   0.00000  Uiso   1.00
C155   C     0.50854   0.20483   0.04847   0.00000  Uiso   1.00
C156   C     0.51660   0.12900   0.45399   0.00000  Uiso   1.00
C157   C     0.48655   0.20422   0.45175   0.00000  Uiso   1.00
C158   C     0.47952   0.12894   0.04675   0.00000  Uiso   1.00
C159   C     0.49701   0.20781   0.09235   0.00000  Uiso   1.00
C160   C     0.51338   0.12677   0.40820   0.00000  Uiso   1.00
C161   C     0.49768   0.20737   0.40771   0.00000  Uiso   1.00
C162   C     0.58003   0.16686   0.24806   0.00000  Uiso   1.00
C163   C     0.48297   0.12682   0.09253   0.00000  Uiso   1.00
C164   C     0.49178   0.16705   0.11608   0.00000  Uiso   1.00
C165   C     0.50482   0.16690   0.38430   0.00000  Uiso   1.00
C166   C     0.49662   0.16627   0.02431   0.00000  Uiso   1.00
C167   C     0.49936   0.16618   0.47617   0.00000  Uiso   1.00
C168   C     0.62419   0.16777   0.24278   0.00000  Uiso   1.00
C169   C     0.37601   0.16752   0.24433   0.00000  Uiso   1.00
C170   C     0.57312   0.22702   0.02456   0.00000  Uiso   1.00
C171   C     0.59542   0.21343   0.06776   0.00000  Uiso   1.00
C172   C     0.64107   0.20303   0.05945   0.00000  Uiso   1.00
C173   C     0.49727   0.16671   0.16396   0.00000  Uiso   1.00
C174   C     0.57982   0.10792   0.48065   0.00000  Uiso   1.00
C175   C     0.60818   0.06864   0.46843   0.00000  Uiso   1.00
C176   C     0.60565   0.03022   0.00182   0.00000  Uiso   1.00
C177   C     0.42292   0.22623   0.47790   0.00000  Uiso   1.00
C178   C     0.39888   0.21411   0.43548   0.00000  Uiso   1.00
C179   C     0.35325   0.20457   0.44532   0.00000  Uiso   1.00
C180   C     0.41602   0.10491   0.02301   0.00000  Uiso   1.00
C181   C     0.39027   0.06372   0.03688   0.00000  Uiso   1.00
C182   C     0.39275   0.02584   0.00313   0.00000  Uiso   1.00
C183   C     0.45618   0.26193   0.12570   0.00000  Uiso   1.00
C184   C     0.50187   0.16665   0.33616   0.00000  Uiso   1.00
C185   C     0.42537   0.26858   0.08773   0.00000  Uiso   1.00
C186   C     0.38444   0.28728   0.10520   0.00000  Uiso   1.00
C187   C     0.48607   0.06231   0.37815   0.00000  Uiso   1.00
C188   C     0.47368   0.03127   0.41618   0.00000  Uiso   1.00
C189   C     0.43699   0.00165   0.40272   0.00000  Uiso   1.00
C190   C     0.53780   0.26429   0.37707   0.00000  Uiso   1.00
C191   C     0.56656   0.27032   0.41697   0.00000  Uiso   1.00
C192   C     0.60782   0.29107   0.40255   0.00000  Uiso   1.00
C193   C     0.51128   0.06266   0.12178   0.00000  Uiso   1.00
C194   C     0.52078   0.02911   0.08522   0.00000  Uiso   1.00
C195   C     0.53303   0.02407   0.26634   0.00000  Uiso   1.00
C196   C     0.55777   0.33330   0.09821   0.00000  Uiso   1.00
C197   C     0.38732   0.10181   0.16720   0.00000  Uiso   1.00
C198   C     0.62778   0.27392   0.21566   0.00000  Uiso   1.00
C199   C     0.61246   0.08196   0.18109   0.00000  Uiso   1.00
C200   C     0.37607   0.24375   0.31744   0.00000  Uiso   1.00
C201   C     0.46672   0.30926   0.23429   0.00000  Uiso   1.00
C202   C     0.46681   0.02379   0.23412   0.00000  Uiso   1.00
C203   C     0.53293   0.30953   0.26648   0.00000  Uiso   1.00
C204   C     0.35483   0.12948   0.22768   0.00000  Uiso   1.00
H205   H     0.55940   0.04218   0.27969   0.00000  Uiso   1.00
H206   H     0.65679   0.19554   0.09125   0.00000  Uiso   1.00
H207   H     0.65673   0.23237   0.04365   0.00000  Uiso   1.00
H208   H     0.58576   0.11817   0.01534   0.00000  Uiso   1.00
H209   H     0.58942   0.13679   0.45894   0.00000  Uiso   1.00
H210   H     0.59975   0.05600   0.43516   0.00000  Uiso   1.00
H211   H     0.64076   0.08111   0.46719   0.00000  Uiso   1.00
H212   H     0.61227   0.04324   0.03538   0.00000  Uiso   1.00
H213   H     0.62918   0.00424   0.49414   0.00000  Uiso   1.00
H214   H     0.57444   0.01430   0.00067   0.00000  Uiso   1.00
H215   H     0.40700   0.25520   0.49361   0.00000  Uiso   1.00
H216   H     0.44000   0.29116   0.22178   0.00000  Uiso   1.00
H217   H     0.42122   0.19787   0.00177   0.00000  Uiso   1.00
H218   H     0.40108   0.24235   0.41147   0.00000  Uiso   1.00
H219   H     0.41221   0.18341   0.42005   0.00000  Uiso   1.00
H220   H     0.35027   0.17461   0.46728   0.00000  Uiso   1.00
H221   H     0.33645   0.19749   0.41407   0.00000  Uiso   1.00
H222   H     0.33877   0.23422   0.46142   0.00000  Uiso   1.00
H223   H     0.40769   0.11494   0.48876   0.00000  Uiso   1.00
H224   H     0.40637   0.13325   0.04508   0.00000  Uiso   1.00
H225   H     0.40126   0.05123   0.06941   0.00000  Uiso   1.00
H226   H     0.35731   0.07398   0.04039   0.00000  Uiso   1.00
H227   H     0.44038   0.04163   0.22108   0.00000  Uiso   1.00
H228   H     0.38315   0.03844   0.47016   0.00000  Uiso   1.00
H229   H     0.37152   0.33123   0.01253   0.00000  Uiso   1.00
H230   H     0.42485   0.01253   0.00179   0.00000  Uiso   1.00
H231   H     0.45895   0.29443   0.14368   0.00000  Uiso   1.00
H232   H     0.44262   0.23695   0.14906   0.00000  Uiso   1.00
H233   H     0.43849   0.29204   0.06275   0.00000  Uiso   1.00
H234   H     0.41897   0.23546   0.07198   0.00000  Uiso   1.00
H235   H     0.37057   0.26343   0.12951   0.00000  Uiso   1.00
H236   H     0.36215   0.29180   0.07775   0.00000  Uiso   1.00
H237   H     0.38953   0.32052   0.12132   0.00000  Uiso   1.00
H238   H     0.55903   0.29163   0.28025   0.00000  Uiso   1.00
H239   H     0.49203   0.04119   0.34863   0.00000  Uiso   1.00
H240   H     0.45926   0.08456   0.36973   0.00000  Uiso   1.00
H241   H     0.50023   0.00966   0.42562   0.00000  Uiso   1.00
H242   H     0.46478   0.05192   0.44510   0.00000  Uiso   1.00
H243   H     0.40958   0.02285   0.39491   0.00000  Uiso   1.00
H244   H     0.42899   0.31194   0.43021   0.00000  Uiso   1.00
H245   H     0.44485   0.31450   0.37331   0.00000  Uiso   1.00
H246   H     0.53487   0.29747   0.36015   0.00000  Uiso   1.00
H247   H     0.55330   0.24117   0.35355   0.00000  Uiso   1.00
H248   H     0.55179   0.29203   0.44218   0.00000  Uiso   1.00
H249   H     0.58998   0.25639   0.01021   0.00000  Uiso   1.00
H250   H     0.57307   0.23672   0.43167   0.00000  Uiso   1.00
H251   H     0.62301   0.26903   0.37787   0.00000  Uiso   1.00
H252   H     0.62884   0.29433   0.43128   0.00000  Uiso   1.00
H253   H     0.60288   0.32500   0.38773   0.00000  Uiso   1.00
H254   H     0.50718   0.04357   0.15308   0.00000  Uiso   1.00
H255   H     0.53873   0.08530   0.12638   0.00000  Uiso   1.00
H256   H     0.49338   0.00729   0.07913   0.00000  Uiso   1.00
H257   H     0.52811   0.04778   0.05440   0.00000  Uiso   1.00
H258   H     0.58551   0.02136   0.10452   0.00000  Uiso   1.00
H259   H     0.56490   0.30989   0.07099   0.00000  Uiso   1.00
H260   H     0.57545   0.19946   0.00018   0.00000  Uiso   1.00
H261   H     0.55087   0.31340   0.12848   0.00000  Uiso   1.00
H262   H     0.39856   0.07014   0.15194   0.00000  Uiso   1.00
H263   H     0.41304   0.12687   0.16618   0.00000  Uiso   1.00
H264   H     0.36111   0.11445   0.14669   0.00000  Uiso   1.00
H265   H     0.61252   0.30712   0.22025   0.00000  Uiso   1.00
H266   H     0.61090   0.25575   0.18892   0.00000  Uiso   1.00
H267   H     0.66036   0.28089   0.20548   0.00000  Uiso   1.00
H268   H     0.60065   0.11391   0.16609   0.00000  Uiso   1.00
H269   H     0.58679   0.05690   0.18053   0.00000  Uiso   1.00
H270   H     0.63793   0.06789   0.16088   0.00000  Uiso   1.00
H271   H     0.59317   0.24106   0.09230   0.00000  Uiso   1.00
H272   H     0.39059   0.27538   0.32967   0.00000  Uiso   1.00
H273   H     0.39533   0.21495   0.32914   0.00000  Uiso   1.00
H274   H     0.34444   0.24148   0.33190   0.00000  Uiso   1.00
H275   H     0.58094   0.18258   0.08215   0.00000  Uiso   1.00
H276   H     0.64397   0.17306   0.03771   0.00000  Uiso   1.00
N277   N     0.50000   0.28573   0.25000   0.00000  Uiso   1.00
N278   N     0.50000   0.04760   0.25000   0.00000  Uiso   1.00
O279   O     0.43892   0.20487   0.24999   0.00000  Uiso   1.00
O280   O     0.53745   0.09514   0.47637   0.00000  Uiso   1.00
O281   O     0.46466   0.23965   0.47019   0.00000  Uiso   1.00
O282   O     0.45903   0.09469   0.02452   0.00000  Uiso   1.00
O283   O     0.49686   0.25017   0.11173   0.00000  Uiso   1.00
O284   O     0.52312   0.08656   0.38747   0.00000  Uiso   1.00
O285   O     0.49693   0.24971   0.38805   0.00000  Uiso   1.00
O286   O     0.47396   0.08637   0.11355   0.00000  Uiso   1.00
O287   O     0.37533   0.09224   0.21110   0.00000  Uiso   1.00
O288   O     0.62593   0.24956   0.25579   0.00000  Uiso   1.00
O289   O     0.62534   0.08702   0.22526   0.00000  Uiso   1.00
O290   O     0.56108   0.12846   0.25000   0.00000  Uiso   1.00
O291   O     0.37470   0.24558   0.27097   0.00000  Uiso   1.00
O292   O     0.56108   0.20487   0.25000   0.00000  Uiso   1.00
O293   O     0.43892   0.12846   0.24999   0.00000  Uiso   1.00
O294   O     0.50000   0.20489   0.18453   0.00000  Uiso   1.00
O295   O     0.50000   0.12845   0.31547   0.00000  Uiso   1.00
O296   O     0.50000   0.20489   0.31547   0.00000  Uiso   1.00
O297   O     0.50000   0.12845   0.18453   0.00000  Uiso   1.00
O298   O     0.53111   0.24020   0.03032   0.00000  Uiso   1.00
Zn299  Zn    0.50000   0.21771   0.25000   0.00000  Uiso   1.00
Zn300  Zn    0.50000   0.11563   0.25000   0.00000  Uiso   1.00
C301   C     0.75337   0.16672   0.24875   0.00000  Uiso   1.00
C302   C     0.97914   0.20866   0.24977   0.00000  Uiso   1.00
C303   C     0.97877   0.12818   0.23038   0.00000  Uiso   1.00
C304   C     0.68797   0.20710   0.25584   0.00000  Uiso   1.00
C305   C     0.84187   0.20483   0.04847   0.00000  Uiso   1.00
C306   C     0.84994   0.12900   0.45399   0.00000  Uiso   1.00
C307   C     0.81988   0.20422   0.45175   0.00000  Uiso   1.00
C308   C     0.81285   0.12894   0.04675   0.00000  Uiso   1.00
C309   C     0.83034   0.20781   0.09235   0.00000  Uiso   1.00
C310   C     0.84672   0.12677   0.40820   0.00000  Uiso   1.00
C311   C     0.83101   0.20737   0.40771   0.00000  Uiso   1.00
C312   C     0.91337   0.16686   0.24806   0.00000  Uiso   1.00
C313   C     0.81631   0.12682   0.09253   0.00000  Uiso   1.00
C314   C     0.82512   0.16705   0.11608   0.00000  Uiso   1.00
C315   C     0.83816   0.16690   0.38430   0.00000  Uiso   1.00
C316   C     0.82995   0.16627   0.02431   0.00000  Uiso   1.00
C317   C     0.83269   0.16618   0.47617   0.00000  Uiso   1.00
C318   C     0.95752   0.16777   0.24278   0.00000  Uiso   1.00
C319   C     0.70934   0.16752   0.24433   0.00000  Uiso   1.00
C320   C     0.90645   0.22702   0.02456   0.00000  Uiso   1.00
C321   C     0.92876   0.21343   0.06776   0.00000  Uiso   1.00
C322   C     0.97441   0.20303   0.05945   0.00000  Uiso   1.00
C323   C     0.83060   0.16671   0.16396   0.00000  Uiso   1.00
C324   C     0.91315   0.10792   0.48065   0.00000  Uiso   1.00
C325   C     0.94151   0.06864   0.46843   0.00000  Uiso   1.00
C326   C     0.93898   0.03022   0.00182   0.00000  Uiso   1.00
C327   C     0.75625   0.22623   0.47790   0.00000  Uiso   1.00
C328   C     0.73221   0.21411   0.43548   0.00000  Uiso   1.00
C329   C     0.68659   0.20457   0.44532   0.00000  Uiso   1.00
C330   C     0.74935   0.10491   0.02301   0.00000  Uiso   1.00
C331   C     0.72360   0.06372   0.03688   0.00000  Uiso   1.00
C332   C     0.72609   0.02584   0.00313   0.00000  Uiso   1.00
C333   C     0.78952   0.26193   0.12570   0.00000  Uiso   1.00
C334   C     0.83520   0.16665   0.33616   0.00000  Uiso   1.00
C335   C     0.75871   0.26858   0.08773   0.00000  Uiso   1.00
C336   C     0.71778   0.28728   0.10520   0.00000  Uiso   1.00
C337   C     0.81940   0.06231   0.37815   0.00000  Uiso   1.00
C338   C     0.80702   0.03127   0.41618   0.00000  Uiso   1.00
C339   C     0.77032   0.00165   0.40272   0.00000  Uiso   1.00
C340   C     0.87113   0.26429   0.37707   0.00000  Uiso   1.00
C341   C     0.89989   0.27032   0.41697   0.00000  Uiso   1.00
C342   C     0.94115   0.29107   0.40255   0.00000  Uiso   1.00
C343   C     0.84462   0.06266   0.12178   0.00000  Uiso   1.00
C344   C     0.85411   0.02911   0.08522   0.00000  Uiso   1.00
C345   C     0.86637   0.02407   0.26634   0.00000  Uiso   1.00
C346   C     0.89111   0.33330   0.09821   0.00000  Uiso   1.00
C347   C     0.72065   0.10181   0.16720   0.00000  Uiso   1.00
C348   C     0.96111   0.27392   0.21566   0.00000  Uiso   1.00
C349   C     0.94579   0.08196   0.18109   0.00000  Uiso   1.00
C350   C     0.70941   0.24375   0.31744   0.00000  Uiso   1.00
C351   C     0.80005   0.30926   0.23429   0.00000  Uiso   1.00
C352   C     0.80014   0.02379   0.23412   0.00000  Uiso   1.00
C353   C     0.86626   0.30953   0.26648   0.00000  Uiso   1.00
C354   C     0.68817   0.12948   0.22768   0.00000  Uiso   1.00
H355   H     0.89273   0.04218   0.27969   0.00000  Uiso   1.00
H356   H     0.99013   0.19554   0.09125   0.00000  Uiso   1.00
H357   H     0.99007   0.23237   0.04365   0.00000  Uiso   1.00
H358   H     0.91909   0.11817   0.01534   0.00000  Uiso   1.00
H359   H     0.92275   0.13679   0.45894   0.00000  Uiso   1.00
H360   H     0.93308   0.05600   0.43516   0.00000  Uiso   1.00
H361   H     0.97409   0.08111   0.46719   0.00000  Uiso   1.00
H362   H     0.94560   0.04324   0.03538   0.00000  Uiso   1.00
H363   H     0.96252   0.00424   0.49414   0.00000  Uiso   1.00
H364   H     0.90778   0.01430   0.00067   0.00000  Uiso   1.00
H365   H     0.74033   0.25520   0.49361   0.00000  Uiso   1.00
H366   H     0.77333   0.29116   0.22178   0.00000  Uiso   1.00
H367   H     0.75455   0.19787   0.00177   0.00000  Uiso   1.00
H368   H     0.73442   0.24235   0.41147   0.00000  Uiso   1.00
H369   H     0.74554   0.18341   0.42005   0.00000  Uiso   1.00
H370   H     0.68360   0.17461   0.46728   0.00000  Uiso   1.00
H371   H     0.66979   0.19749   0.41407   0.00000  Uiso   1.00
H372   H     0.67211   0.23422   0.46142   0.00000  Uiso   1.00
H373   H     0.74102   0.11494   0.48876   0.00000  Uiso   1.00
H374   H     0.73970   0.13325   0.04508   0.00000  Uiso   1.00
H375   H     0.73459   0.05123   0.06941   0.00000  Uiso   1.00
H376   H     0.69064   0.07398   0.04039   0.00000  Uiso   1.00
H377   H     0.77371   0.04163   0.22108   0.00000  Uiso   1.00
H378   H     0.71648   0.03844   0.47016   0.00000  Uiso   1.00
H379   H     0.70485   0.33123   0.01253   0.00000  Uiso   1.00
H380   H     0.75818   0.01253   0.00179   0.00000  Uiso   1.00
H381   H     0.79228   0.29443   0.14368   0.00000  Uiso   1.00
H382   H     0.77595   0.23695   0.14906   0.00000  Uiso   1.00
H383   H     0.77182   0.29204   0.06275   0.00000  Uiso   1.00
H384   H     0.75230   0.23546   0.07198   0.00000  Uiso   1.00
H385   H     0.70390   0.26343   0.12951   0.00000  Uiso   1.00
H386   H     0.69548   0.29180   0.07775   0.00000  Uiso   1.00
H387   H     0.72286   0.32052   0.12132   0.00000  Uiso   1.00
H388   H     0.89237   0.29163   0.28025   0.00000  Uiso   1.00
H389   H     0.82537   0.04119   0.34863   0.00000  Uiso   1.00
H390   H     0.79259   0.08456   0.36973   0.00000  Uiso   1.00
H391   H     0.83356   0.00966   0.42562   0.00000  Uiso   1.00
H392   H     0.79812   0.05192   0.44510   0.00000  Uiso   1.00
H393   H     0.74291   0.02285   0.39491   0.00000  Uiso   1.00
H394   H     0.76232   0.31194   0.43021   0.00000  Uiso   1.00
H395   H     0.77818   0.31450   0.37331   0.00000  Uiso   1.00
H396   H     0.86820   0.29747   0.36015   0.00000  Uiso   1.00
H397   H     0.88663   0.24117   0.35355   0.00000  Uiso   1.00
H398   H     0.88513   0.29203   0.44218   0.00000  Uiso   1.00
H399   H     0.92331   0.25639   0.01021   0.00000  Uiso   1.00
H400   H     0.90640   0.23672   0.43167   0.00000  Uiso   1.00
H401   H     0.95634   0.26903   0.37787   0.00000  Uiso   1.00
H402   H     0.96217   0.29433   0.43128   0.00000  Uiso   1.00
H403   H     0.93622   0.32500   0.38773   0.00000  Uiso   1.00
H404   H     0.84051   0.04357   0.15308   0.00000  Uiso   1.00
H405   H     0.87206   0.08530   0.12638   0.00000  Uiso   1.00
H406   H     0.82671   0.00729   0.07913   0.00000  Uiso   1.00
H407   H     0.86144   0.04778   0.05440   0.00000  Uiso   1.00
H408   H     0.91884   0.02136   0.10452   0.00000  Uiso   1.00
H409   H     0.89824   0.30989   0.07099   0.00000  Uiso   1.00
H410   H     0.90879   0.19946   0.00018   0.00000  Uiso   1.00
H411   H     0.88420   0.31340   0.12848   0.00000  Uiso   1.00
H412   H     0.73190   0.07014   0.15194   0.00000  Uiso   1.00
H413   H     0.74637   0.12687   0.16618   0.00000  Uiso   1.00
H414   H     0.69444   0.11445   0.14669   0.00000  Uiso   1.00
H415   H     0.94586   0.30712   0.22025   0.00000  Uiso   1.00
H416   H     0.94424   0.25575   0.18892   0.00000  Uiso   1.00
H417   H     0.99369   0.28089   0.20548   0.00000  Uiso   1.00
H418   H     0.93398   0.11391   0.16609   0.00000  Uiso   1.00
H419   H     0.92012   0.05690   0.18053   0.00000  Uiso   1.00
H420   H     0.97126   0.06789   0.16088   0.00000  Uiso   1.00
H421   H     0.92651   0.24106   0.09230   0.00000  Uiso   1.00
H422   H     0.72392   0.27538   0.32967   0.00000  Uiso   1.00
H423   H     0.72866   0.21495   0.32914   0.00000  Uiso   1.00
H424   H     0.67778   0.24148   0.33190   0.00000  Uiso   1.00
H425   H     0.91428   0.18258   0.08215   0.00000  Uiso   1.00
H426   H     0.97731   0.17306   0.03771   0.00000  Uiso   1.00
N427   N     0.83333   0.28573   0.25000   0.00000  Uiso   1.00
N428   N     0.83333   0.04760   0.25000   0.00000  Uiso   1.00
O429   O     0.77226   0.20487   0.24999   0.00000  Uiso   1.00
O430   O     0.87079   0.09514   0.47637   0.00000  Uiso   1.00
O431   O     0.79800   0.23965   0.47019   0.00000  Uiso   1.00
O432   O     0.79237   0.09469   0.02452   0.00000  Uiso   1.00
O433   O     0.83019   0.25017   0.11173   0.00000  Uiso   1.00
O434   O     0.85645   0.08656   0.38747   0.00000  Uiso   1.00
O435   O     0.83026   0.24971   0.38805   0.00000  Uiso   1.00
O436   O     0.80729   0.08637   0.11355   0.00000  Uiso   1.00
O437   O     0.70866   0.09224   0.21110   0.00000  Uiso   1.00
O438   O     0.95926   0.24956   0.25579   0.00000  Uiso   1.00
O439   O     0.95868   0.08702   0.22526   0.00000  Uiso   1.00
O440   O     0.89441   0.12846   0.25000   0.00000  Uiso   1.00
O441   O     0.70803   0.24558   0.27097   0.00000  Uiso   1.00
O442   O     0.89441   0.20487   0.25000   0.00000  Uiso   1.00
O443   O     0.77226   0.12846   0.24999   0.00000  Uiso   1.00
O444   O     0.83333   0.20489   0.18453   0.00000  Uiso   1.00
O445   O     0.83334   0.12845   0.31547   0.00000  Uiso   1.00
O446   O     0.83334   0.20489   0.31547   0.00000  Uiso   1.00
O447   O     0.83333   0.12845   0.18453   0.00000  Uiso   1.00
O448   O     0.86445   0.24020   0.03032   0.00000  Uiso   1.00
Zn449  Zn    0.83333   0.21771   0.25000   0.00000  Uiso   1.00
Zn450  Zn    0.83333   0.11563   0.25000   0.00000  Uiso   1.00
C451   C     0.08670   0.50005   0.24875   0.00000  Uiso   1.00
C452   C     0.31247   0.54199   0.24977   0.00000  Uiso   1.00
C453   C     0.31210   0.46151   0.23038   0.00000  Uiso   1.00
C454   C     0.02131   0.54043   0.25584   0.00000  Uiso   1.00
C455   C     0.17521   0.53816   0.04847   0.00000  Uiso   1.00
C456   C     0.18327   0.46233   0.45399   0.00000  Uiso   1.00
C457   C     0.15322   0.53755   0.45175   0.00000  Uiso   1.00
C458   C     0.14619   0.46227   0.04675   0.00000  Uiso   1.00
C459   C     0.16367   0.54114   0.09235   0.00000  Uiso   1.00
C460   C     0.18005   0.46011   0.40820   0.00000  Uiso   1.00
C461   C     0.16435   0.54070   0.40771   0.00000  Uiso   1.00
C462   C     0.24670   0.50020   0.24806   0.00000  Uiso   1.00
C463   C     0.14964   0.46015   0.09253   0.00000  Uiso   1.00
C464   C     0.15845   0.50038   0.11608   0.00000  Uiso   1.00
C465   C     0.17149   0.50023   0.38430   0.00000  Uiso   1.00
C466   C     0.16329   0.49960   0.02431   0.00000  Uiso   1.00
C467   C     0.16603   0.49952   0.47617   0.00000  Uiso   1.00
C468   C     0.29085   0.50111   0.24278   0.00000  Uiso   1.00
C469   C     0.04267   0.50086   0.24433   0.00000  Uiso   1.00
C470   C     0.23978   0.56036   0.02456   0.00000  Uiso   1.00
C471   C     0.26209   0.54676   0.06776   0.00000  Uiso   1.00
C472   C     0.30774   0.53637   0.05945   0.00000  Uiso   1.00
C473   C     0.16393   0.50004   0.16396   0.00000  Uiso   1.00
C474   C     0.24648   0.44125   0.48065   0.00000  Uiso   1.00
C475   C     0.27485   0.40197   0.46843   0.00000  Uiso   1.00
C476   C     0.27232   0.36355   0.00182   0.00000  Uiso   1.00
C477   C     0.08958   0.55957   0.47790   0.00000  Uiso   1.00
C478   C     0.06555   0.54745   0.43548   0.00000  Uiso   1.00
C479   C     0.01992   0.53790   0.44532   0.00000  Uiso   1.00
C480   C     0.08268   0.43824   0.02301   0.00000  Uiso   1.00
C481   C     0.05694   0.39706   0.03688   0.00000  Uiso   1.00
C482   C     0.05942   0.35918   0.00313   0.00000  Uiso   1.00
C483   C     0.12285   0.59526   0.12570   0.00000  Uiso   1.00
C484   C     0.16853   0.49998   0.33616   0.00000  Uiso   1.00
C485   C     0.09204   0.60191   0.08773   0.00000  Uiso   1.00
C486   C     0.05111   0.62061   0.10520   0.00000  Uiso   1.00
C487   C     0.15274   0.39564   0.37815   0.00000  Uiso   1.00
C488   C     0.14035   0.36461   0.41618   0.00000  Uiso   1.00
C489   C     0.10366   0.33498   0.40272   0.00000  Uiso   1.00
C490   C     0.20446   0.59762   0.37707   0.00000  Uiso   1.00
C491   C     0.23322   0.60365   0.41697   0.00000  Uiso   1.00
C492   C     0.27449   0.62441   0.40255   0.00000  Uiso   1.00
C493   C     0.17795   0.39599   0.12178   0.00000  Uiso   1.00
C494   C     0.18744   0.36245   0.08522   0.00000  Uiso   1.00
C495   C     0.19970   0.35741   0.26634   0.00000  Uiso   1.00
C496   C     0.22444   0.66663   0.09821   0.00000  Uiso   1.00
C497   C     0.05398   0.43515   0.16720   0.00000  Uiso   1.00
C498   C     0.29444   0.60726   0.21566   0.00000  Uiso   1.00
C499   C     0.27912   0.41529   0.18109   0.00000  Uiso   1.00
C500   C     0.04274   0.57709   0.31744   0.00000  Uiso   1.00
C501   C     0.13339   0.64259   0.23429   0.00000  Uiso   1.00
C502   C     0.13347   0.35712   0.23412   0.00000  Uiso   1.00
C503   C     0.19960   0.64286   0.26648   0.00000  Uiso   1.00
C504   C     0.02150   0.46282   0.22768   0.00000  Uiso   1.00
H505   H     0.22606   0.37551   0.27969   0.00000  Uiso   1.00
H506   H     0.32346   0.52887   0.09125   0.00000  Uiso   1.00
H507   H     0.32340   0.56570   0.04365   0.00000  Uiso   1.00
H508   H     0.25243   0.45150   0.01534   0.00000  Uiso   1.00
H509   H     0.25608   0.47013   0.45894   0.00000  Uiso   1.00
H510   H     0.26642   0.38933   0.43516   0.00000  Uiso   1.00
H511   H     0.30743   0.41444   0.46719   0.00000  Uiso   1.00
H512   H     0.27894   0.37657   0.03538   0.00000  Uiso   1.00
H513   H     0.29585   0.33757   0.49414   0.00000  Uiso   1.00
H514   H     0.24111   0.34764   0.00067   0.00000  Uiso   1.00
H515   H     0.07366   0.58853   0.49361   0.00000  Uiso   1.00
H516   H     0.10666   0.62449   0.22178   0.00000  Uiso   1.00
H517   H     0.08788   0.53121   0.00177   0.00000  Uiso   1.00
H518   H     0.06775   0.57569   0.41147   0.00000  Uiso   1.00
H519   H     0.07887   0.51674   0.42005   0.00000  Uiso   1.00
H520   H     0.01693   0.50794   0.46728   0.00000  Uiso   1.00
H521   H     0.00312   0.53082   0.41407   0.00000  Uiso   1.00
H522   H     0.00544   0.56755   0.46142   0.00000  Uiso   1.00
H523   H     0.07436   0.44827   0.48876   0.00000  Uiso   1.00
H524   H     0.07304   0.46659   0.04508   0.00000  Uiso   1.00
H525   H     0.06793   0.38456   0.06941   0.00000  Uiso   1.00
H526   H     0.02397   0.40731   0.04039   0.00000  Uiso   1.00
H527   H     0.10705   0.37496   0.22108   0.00000  Uiso   1.00
H528   H     0.04981   0.37177   0.47016   0.00000  Uiso   1.00
H529   H     0.03818   0.66457   0.01253   0.00000  Uiso   1.00
H530   H     0.09151   0.34587   0.00179   0.00000  Uiso   1.00
H531   H     0.12562   0.62776   0.14368   0.00000  Uiso   1.00
H532   H     0.10928   0.57028   0.14906   0.00000  Uiso   1.00
H533   H     0.10516   0.62538   0.06275   0.00000  Uiso   1.00
H534   H     0.08564   0.56879   0.07198   0.00000  Uiso   1.00
H535   H     0.03724   0.59676   0.12951   0.00000  Uiso   1.00
H536   H     0.02882   0.62513   0.07775   0.00000  Uiso   1.00
H537   H     0.05620   0.65385   0.12132   0.00000  Uiso   1.00
H538   H     0.22570   0.62496   0.28025   0.00000  Uiso   1.00
H539   H     0.15870   0.37452   0.34863   0.00000  Uiso   1.00
H540   H     0.12593   0.41789   0.36973   0.00000  Uiso   1.00
H541   H     0.16689   0.34300   0.42562   0.00000  Uiso   1.00
H542   H     0.13145   0.38526   0.44510   0.00000  Uiso   1.00
H543   H     0.07624   0.35619   0.39491   0.00000  Uiso   1.00
H544   H     0.09566   0.64527   0.43021   0.00000  Uiso   1.00
H545   H     0.11151   0.64783   0.37331   0.00000  Uiso   1.00
H546   H     0.20153   0.63080   0.36015   0.00000  Uiso   1.00
H547   H     0.21996   0.57451   0.35355   0.00000  Uiso   1.00
H548   H     0.21846   0.62536   0.44218   0.00000  Uiso   1.00
H549   H     0.25665   0.58972   0.01021   0.00000  Uiso   1.00
H550   H     0.23973   0.57005   0.43167   0.00000  Uiso   1.00
H551   H     0.28968   0.60236   0.37787   0.00000  Uiso   1.00
H552   H     0.29550   0.62766   0.43128   0.00000  Uiso   1.00
H553   H     0.26955   0.65834   0.38773   0.00000  Uiso   1.00
H554   H     0.17385   0.37691   0.15308   0.00000  Uiso   1.00
H555   H     0.20539   0.41863   0.12638   0.00000  Uiso   1.00
H556   H     0.16004   0.34062   0.07913   0.00000  Uiso   1.00
H557   H     0.19477   0.38111   0.05440   0.00000  Uiso   1.00
H558   H     0.25217   0.35469   0.10452   0.00000  Uiso   1.00
H559   H     0.23157   0.64322   0.07099   0.00000  Uiso   1.00
H560   H     0.24212   0.53280   0.00018   0.00000  Uiso   1.00
H561   H     0.21754   0.64674   0.12848   0.00000  Uiso   1.00
H562   H     0.06523   0.40347   0.15194   0.00000  Uiso   1.00
H563   H     0.07970   0.46020   0.16618   0.00000  Uiso   1.00
H564   H     0.02778   0.44778   0.14669   0.00000  Uiso   1.00
H565   H     0.27919   0.64045   0.22025   0.00000  Uiso   1.00
H566   H     0.27757   0.58908   0.18892   0.00000  Uiso   1.00
H567   H     0.32703   0.61422   0.20548   0.00000  Uiso   1.00
H568   H     0.26731   0.44724   0.16609   0.00000  Uiso   1.00
H569   H     0.25345   0.39024   0.18053   0.00000  Uiso   1.00
H570   H     0.30459   0.40122   0.16088   0.00000  Uiso   1.00
H571   H     0.25984   0.57439   0.09230   0.00000  Uiso   1.00
H572   H     0.05725   0.60871   0.32967   0.00000  Uiso   1.00
H573   H     0.06200   0.54828   0.32914   0.00000  Uiso   1.00
H574   H     0.01111   0.57482   0.33190   0.00000  Uiso   1.00
H575   H     0.24761   0.51592   0.08215   0.00000  Uiso   1.00
H576   H     0.31064   0.50640   0.03771   0.00000  Uiso   1.00
N577   N     0.16667   0.61907   0.25000   0.00000  Uiso   1.00
N578   N     0.16667   0.38093   0.25000   0.00000  Uiso   1.00
O579   O     0.10559   0.53821   0.24999   0.00000  Uiso   1.00
O580   O     0.20412   0.42848   0.47637   0.00000  Uiso   1.00
O581   O     0.13133   0.57298   0.47019   0.00000  Uiso   1.00
O582   O     0.12570   0.42803   0.02452   0.00000  Uiso   1.00
O583   O     0.16353   0.58350   0.11173   0.00000  Uiso   1.00
O584   O     0.18978   0.41989   0.38747   0.00000  Uiso   1.00
O585   O     0.16360   0.58304   0.38805   0.00000  Uiso   1.00
O586   O     0.14062   0.41970   0.11355   0.00000  Uiso   1.00
O587   O     0.04200   0.42558   0.21110   0.00000  Uiso   1.00
O588   O     0.29260   0.58289   0.25579   0.00000  Uiso   1.00
O589   O     0.29201   0.42035   0.22526   0.00000  Uiso   1.00
O590   O     0.22774   0.46179   0.25000   0.00000  Uiso   1.00
O591   O     0.04137   0.57891   0.27097   0.00000  Uiso   1.00
O592   O     0.22774   0.53821   0.25000   0.00000  Uiso   1.00
O593   O     0.10559   0.46179   0.24999   0.00000  Uiso   1.00
O594   O     0.16666   0.53822   0.18453   0.00000  Uiso   1.00
O595   O     0.16667   0.46178   0.31547   0.00000  Uiso   1.00
O596   O     0.16667   0.53822   0.31547   0.00000  Uiso   1.00
O597   O     0.16666   0.46178   0.18453   0.00000  Uiso   1.00
O598   O     0.19778   0.57353   0.03032   0.00000  Uiso   1.00
Zn599  Zn    0.16667   0.55104   0.25000   0.00000  Uiso   1.00
Zn600  Zn    0.16667   0.44896   0.25000   0.00000  Uiso   1.00
C601   C     0.42004   0.50005   0.24875   0.00000  Uiso   1.00
C602   C     0.64581   0.54199   0.24977   0.00000  Uiso   1.00
C603   C     0.64544   0.46151   0.23038   0.00000  Uiso   1.00
C604   C     0.35464   0.54043   0.25584   0.00000  Uiso   1.00
C605   C     0.50854   0.53816   0.04847   0.00000  Uiso   1.00
C606   C     0.51660   0.46233   0.45399   0.00000  Uiso   1.00
C607   C     0.48655   0.53755   0.45175   0.00000  Uiso   1.00
C608   C     0.47952   0.46227   0.04675   0.00000  Uiso   1.00
C609   C     0.49701   0.54114   0.09235   0.00000  Uiso   1.00
C610   C     0.51338   0.46011   0.40820   0.00000  Uiso   1.00
C611   C     0.49768   0.54070   0.40771   0.00000  Uiso   1.00
C612   C     0.58003   0.50020   0.24806   0.00000  Uiso   1.00
C613   C     0.48297   0.46015   0.09253   0.00000  Uiso   1.00
C614   C     0.49178   0.50038   0.11608   0.00000  Uiso   1.00
C615   C     0.50482   0.50023   0.38430   0.00000  Uiso   1.00
C616   C     0.49662   0.49960   0.02431   0.00000  Uiso   1.00
C617   C     0.49936   0.49952   0.47617   0.00000  Uiso   1.00
C618   C     0.62419   0.50111   0.24278   0.00000  Uiso   1.00
C619   C     0.37601   0.50086   0.24433   0.00000  Uiso   1.00
C620   C     0.57312   0.56036   0.02456   0.00000  Uiso   1.00
C621   C     0.59542   0.54676   0.06776   0.00000  Uiso   1.00
C622   C     0.64107   0.53637   0.05945   0.00000  Uiso   1.00
C623   C     0.49727   0.50004   0.16396   0.00000  Uiso   1.00
C624   C     0.57982   0.44125   0.48065   0.00000  Uiso   1.00
C625   C     0.60818   0.40197   0.46843   0.00000  Uiso   1.00
C626   C     0.60565   0.36355   0.00182   0.00000  Uiso   1.00
C627   C     0.42292   0.55957   0.47790   0.00000  Uiso   1.00
C628   C     0.39888   0.54745   0.43548   0.00000  Uiso   1.00
C629   C     0.35325   0.53790   0.44532   0.00000  Uiso   1.00
C630   C     0.41602   0.43824   0.02301   0.00000  Uiso   1.00
C631   C     0.39027   0.39706   0.03688   0.00000  Uiso   1.00
C632   C     0.39275   0.35918   0.00313   0.00000  Uiso   1.00
C633   C     0.45618   0.59526   0.12570   0.00000  Uiso   1.00
C634   C     0.50187   0.49998   0.33616   0.00000  Uiso   1.00
C635   C     0.42537   0.60191   0.08773   0.00000  Uiso   1.00
C636   C     0.38444   0.62061   0.10520   0.00000  Uiso   1.00
C637   C     0.48607   0.39564   0.37815   0.00000  Uiso   1.00
C638   C     0.47368   0.36461   0.41618   0.00000  Uiso   1.00
C639   C     0.43699   0.33498   0.40272   0.00000  Uiso   1.00
C640   C     0.53780   0.59762   0.37707   0.00000  Uiso   1.00
C641   C     0.56656   0.60365   0.41697   0.00000  Uiso   1.00
C642   C     0.60782   0.62441   0.40255   0.00000  Uiso   1.00
C643   C     0.51128   0.39599   0.12178   0.00000  Uiso   1.00
C644   C     0.52078   0.36245   0.08522   0.00000  Uiso   1.00
C645   C     0.53303   0.35741   0.26634   0.00000  Uiso   1.00
C646   C     0.55777   0.66663   0.09821   0.00000  Uiso   1.00
C647   C     0.38732   0.43515   0.16720   0.00000  Uiso   1.00
C648   C     0.62778   0.60726   0.21566   0.00000  Uiso   1.00
C649   C     0.61246   0.41529   0.18109   0.00000  Uiso   1.00
C650   C     0.37607   0.57709   0.31744   0.00000  Uiso   1.00
C651   C     0.46672   0.64259   0.23429   0.00000  Uiso   1.00
C652   C     0.46681   0.35712   0.23412   0.00000  Uiso   1.00
C653   C     0.53293   0.64286   0.26648   0.00000  Uiso   1.00
C654   C     0.35483   0.46282   0.22768   0.00000  Uiso   1.00
H655   H     0.55940   0.37551   0.27969   0.00000  Uiso   1.00
H656   H     0.65679   0.52887   0.09125   0.00000  Uiso   1.00
H657   H     0.65673   0.56570   0.04365   0.00000  Uiso   1.00
H658   H     0.58576   0.45150   0.01534   0.00000  Uiso   1.00
H659   H     0.58942   0.47013   0.45894   0.00000  Uiso   1.00
H660   H     0.59975   0.38933   0.43516   0.00000  Uiso   1.00
H661   H     0.64076   0.41444   0.46719   0.00000  Uiso   1.00
H662   H     0.61227   0.37657   0.03538   0.00000  Uiso   1.00
H663   H     0.62918   0.33757   0.49414   0.00000  Uiso   1.00
H664   H     0.57444   0.34764   0.00067   0.00000  Uiso   1.00
H665   H     0.40700   0.58853   0.49361   0.00000  Uiso   1.00
H666   H     0.44000   0.62449   0.22178   0.00000  Uiso   1.00
H667   H     0.42122   0.53121   0.00177   0.00000  Uiso   1.00
H668   H     0.40108   0.57569   0.41147   0.00000  Uiso   1.00
H669   H     0.41221   0.51674   0.42005   0.00000  Uiso   1.00
H670   H     0.35027   0.50794   0.46728   0.00000  Uiso   1.00
H671   H     0.33645   0.53082   0.41407   0.00000  Uiso   1.00
H672   H     0.33877   0.56755   0.46142   0.00000  Uiso   1.00
H673   H     0.40769   0.44827   0.48876   0.00000  Uiso   1.00
H674   H     0.40637   0.46659   0.04508   0.00000  Uiso   1.00
H675   H     0.40126   0.38456   0.06941   0.00000  Uiso   1.00
H676   H     0.35731   0.40731   0.04039   0.00000  Uiso   1.00
H677   H     0.44038   0.37496   0.22108   0.00000  Uiso   1.00
H678   H     0.38315   0.37177   0.47016   0.00000  Uiso   1.00
H679   H     0.37152   0.66457   0.01253   0.00000  Uiso   1.00
H680   H     0.42485   0.34587   0.00179   0.00000  Uiso   1.00
H681   H     0.45895   0.62776   0.14368   0.00000  Uiso   1.00
H682   H     0.44262   0.57028   0.14906   0.00000  Uiso   1.00
H683   H     0.43849   0.62538   0.06275   0.00000  Uiso   1.00
H684   H     0.41897   0.56879   0.07198   0.00000  Uiso   1.00
H685   H     0.37057   0.59676   0.12951   0.00000  Uiso   1.00
H686   H     0.36215   0.62513   0.07775   0.00000  Uiso   1.00
H687   H     0.38953   0.65385   0.12132   0.00000  Uiso   1.00
H688   H     0.55903   0.62496   0.28025   0.00000  Uiso   1.00
H689   H     0.49203   0.37452   0.34863   0.00000  Uiso   1.00
H690   H     0.45926   0.41789   0.36973   0.00000  Uiso   1.00
H691   H     0.50023   0.34300   0.42562   0.00000  Uiso   1.00
H692   H     0.46478   0.38526   0.44510   0.00000  Uiso   1.00
H693   H     0.40958   0.35619   0.39491   0.00000  Uiso   1.00
H694   H     0.42899   0.64527   0.43021   0.00000  Uiso   1.00
H695   H     0.44485   0.64783   0.37331   0.00000  Uiso   1.00
H696   H     0.53487   0.63080   0.36015   0.00000  Uiso   1.00
H697   H     0.55330   0.57451   0.35355   0.00000  Uiso   1.00
H698   H     0.55179   0.62536   0.44218   0.00000  Uiso   1.00
H699   H     0.58998   0.58972   0.01021   0.00000  Uiso   1.00
H700   H     0.57307   0.57005   0.43167   0.00000  Uiso   1.00
H701   H     0.62301   0.60236   0.37787   0.00000  Uiso   1.00
H702   H     0.62884   0.62766   0.43128   0.00000  Uiso   1.00
H703   H     0.60288   0.65834   0.38773   0.00000  Uiso   1.00
H704   H     0.50718   0.37691   0.15308   0.00000  Uiso   1.00
H705   H     0.53873   0.41863   0.12638   0.00000  Uiso   1.00
H706   H     0.49338   0.34062   0.07913   0.00000  Uiso   1.00
H707   H     0.52811   0.38111   0.05440   0.00000  Uiso   1.00
H708   H     0.58551   0.35469   0.10452   0.00000  Uiso   1.00
H709   H     0.56490   0.64322   0.07099   0.00000  Uiso   1.00
H710   H     0.57545   0.53280   0.00018   0.00000  Uiso   1.00
H711   H     0.55087   0.64674   0.12848   0.00000  Uiso   1.00
H712   H     0.39856   0.40347   0.15194   0.00000  Uiso   1.00
H713   H     0.41304   0.46020   0.16618   0.00000  Uiso   1.00
H714   H     0.36111   0.44778   0.14669   0.00000  Uiso   1.00
H715   H     0.61252   0.64045   0.22025   0.00000  Uiso   1.00
H716   H     0.61090   0.58908   0.18892   0.00000  Uiso   1.00
H717   H     0.66036   0.61422   0.20548   0.00000  Uiso   1.00
H718   H     0.60065   0.44724   0.16609   0.00000  Uiso   1.00
H719   H     0.58679   0.39024   0.18053   0.00000  Uiso   1.00
H720   H     0.63793   0.40122   0.16088   0.00000  Uiso   1.00
H721   H     0.59317   0.57439   0.09230   0.00000  Uiso   1.00
H722   H     0.39059   0.60871   0.32967   0.00000  Uiso   1.00
H723   H     0.39533   0.54828   0.32914   0.00000  Uiso   1.00
H724   H     0.34444   0.57482   0.33190   0.00000  Uiso   1.00
H725   H     0.58094   0.51592   0.08215   0.00000  Uiso   1.00
H726   H     0.64397   0.50640   0.03771   0.00000  Uiso   1.00
N727   N     0.50000   0.61907   0.25000   0.00000  Uiso   1.00
N728   N     0.50000   0.38093   0.25000   0.00000  Uiso   1.00
O729   O     0.43892   0.53821   0.24999   0.00000  Uiso   1.00
O730   O     0.53745   0.42848   0.47637   0.00000  Uiso   1.00
O731   O     0.46466   0.57298   0.47019   0.00000  Uiso   1.00
O732   O     0.45903   0.42803   0.02452   0.00000  Uiso   1.00
O733   O     0.49686   0.58350   0.11173   0.00000  Uiso   1.00
O734   O     0.52312   0.41989   0.38747   0.00000  Uiso   1.00
O735   O     0.49693   0.58304   0.38805   0.00000  Uiso   1.00
O736   O     0.47396   0.41970   0.11355   0.00000  Uiso   1.00
O737   O     0.37533   0.42558   0.21110   0.00000  Uiso   1.00
O738   O     0.62593   0.58289   0.25579   0.00000  Uiso   1.00
O739   O     0.62534   0.42035   0.22526   0.00000  Uiso   1.00
O740   O     0.56108   0.46179   0.25000   0.00000  Uiso   1.00
O741   O     0.37470   0.57891   0.27097   0.00000  Uiso   1.00
O742   O     0.56108   0.53821   0.25000   0.00000  Uiso   1.00
O743   O     0.43892   0.46179   0.24999   0.00000  Uiso   1.00
O744   O     0.50000   0.53822   0.18453   0.00000  Uiso   1.00
O745   O     0.50000   0.46178   0.31547   0.00000  Uiso   1.00
O746   O     0.50000   0.53822   0.31547   0.00000  Uiso   1.00
O747   O     0.50000   0.46178   0.18453   0.00000  Uiso   1.00
O748   O     0.53111   0.57353   0.03032   0.00000  Uiso   1.00
Zn749  Zn    0.50000   0.55104   0.25000   0.00000  Uiso   1.00
Zn750  Zn    0.50000   0.44896   0.25000   0.00000  Uiso   1.00
C751   C     0.75337   0.50005   0.24875   0.00000  Uiso   1.00
C752   C     0.97914   0.54199   0.24977   0.00000  Uiso   1.00
C753   C     0.97877   0.46151   0.23038   0.00000  Uiso   1.00
C754   C     0.68797   0.54043   0.25584   0.00000  Uiso   1.00
C755   C     0.84187   0.53816   0.04847   0.00000  Uiso   1.00
C756   C     0.84994   0.46233   0.45399   0.00000  Uiso   1.00
C757   C     0.81988   0.53755   0.45175   0.00000  Uiso   1.00
C758   C     0.81285   0.46227   0.04675   0.00000  Uiso   1.00
C759   C     0.83034   0.54114   0.09235   0.00000  Uiso   1.00
C760   C     0.84672   0.46011   0.40820   0.00000  Uiso   1.00
C761   C     0.83101   0.54070   0.40771   0.00000  Uiso   1.00
C762   C     0.91337   0.50020   0.24806   0.00000  Uiso   1.00
C763   C     0.81631   0.46015   0.09253   0.00000  Uiso   1.00
C764   C     0.82512   0.50038   0.11608   0.00000  Uiso   1.00
C765   C     0.83816   0.50023   0.38430   0.00000  Uiso   1.00
C766   C     0.82995   0.49960   0.02431   0.00000  Uiso   1.00
C767   C     0.83269   0.49952   0.47617   0.00000  Uiso   1.00
C768   C     0.95752   0.50111   0.24278   0.00000  Uiso   1.00
C769   C     0.70934   0.50086   0.24433   0.00000  Uiso   1.00
C770   C     0.90645   0.56036   0.02456   0.00000  Uiso   1.00
C771   C     0.92876   0.54676   0.06776   0.00000  Uiso   1.00
C772   C     0.97441   0.53637   0.05945   0.00000  Uiso   1.00
C773   C     0.83060   0.50004   0.16396   0.00000  Uiso   1.00
C774   C     0.91315   0.44125   0.48065   0.00000  Uiso   1.00
C775   C     0.94151   0.40197   0.46843   0.00000  Uiso   1.00
C776   C     0.93898   0.36355   0.00182   0.00000  Uiso   1.00
C777   C     0.75625   0.55957   0.47790   0.00000  Uiso   1.00
C778   C     0.73221   0.54745   0.43548   0.00000  Uiso   1.00
C779   C     0.68659   0.53790   0.44532   0.00000  Uiso   1.00
C780   C     0.74935   0.43824   0.02301   0.00000  Uiso   1.00
C781   C     0.72360   0.39706   0.03688   0.00000  Uiso   1.00
C782   C     0.72609   0.35918   0.00313   0.00000  Uiso   1.00
C783   C     0.78952   0.59526   0.12570   0.00000  Uiso   1.00
C784   C     0.83520   0.49998   0.33616   0.00000  Uiso   1.00
C785   C     0.75871   0.60191   0.08773   0.00000  Uiso   1.00
C786   C     0.71778   0.62061   0.10520   0.00000  Uiso   1.00
C787   C     0.81940   0.39564   0.37815   0.00000  Uiso   1.00
C788   C     0.80702   0.36461   0.41618   0.00000  Uiso   1.00
C789   C     0.77032   0.33498   0.40272   0.00000  Uiso   1.00
C790   C     0.87113   0.59762   0.37707   0.00000  Uiso   1.00
C791   C     0.89989   0.60365   0.41697   0.00000  Uiso   1.00
C792   C     0.94115   0.62441   0.40255   0.00000  Uiso   1.00
C793   C     0.84462   0.39599   0.12178   0.00000  Uiso   1.00
C794   C     0.85411   0.36245   0.08522   0.00000  Uiso   1.00
C795   C     0.86637   0.35741   0.26634   0.00000  Uiso   1.00
C796   C     0.89111   0.66663   0.09821   0.00000  Uiso   1.00
C797   C     0.72065   0.43515   0.16720   0.00000  Uiso   1.00
C798   C     0.96111   0.60726   0.21566   0.00000  Uiso   1.00
C799   C     0.94579   0.41529   0.18109   0.00000  Uiso   1.00
C800   C     0.70941   0.57709   0.31744   0.00000  Uiso   1.00
C801   C     0.80005   0.64259   0.23429   0.00000  Uiso   1.00
C802   C     0.80014   0.35712   0.23412   0.00000  Uiso   1.00
C803   C     0.86626   0.64286   0.26648   0.00000  Uiso   1.00
C804   C     0.68817   0.46282   0.22768   0.00000  Uiso   1.00
H805   H     0.89273   0.37551   0.27969   0.00000  Uiso   1.00
H806   H     0.99013   0.52887   0.09125   0.00000  Uiso   1.00
H807   H     0.99007   0.56570   0.04365   0.00000  Uiso   1.00
H808   H     0.91909   0.45150   0.01534   0.00000  Uiso   1.00
H809   H     0.92275   0.47013   0.45894   0.00000  Uiso   1.00
H810   H     0.93308   0.38933   0.43516   0.00000  Uiso   1.00
H811   H     0.97409   0.41444   0.46719   0.00000  Uiso   1.00
H812   H     0.94560   0.37657   0.03538   0.00000  Uiso   1.00
H813   H     0.96252   0.33757   0.49414   0.00000  Uiso   1.00
H814   H     0.90778   0.34764   0.00067   0.00000  Uiso   1.00
H815   H     0.74033   0.58853   0.49361   0.00000  Uiso   1.00
H816   H     0.77333   0.62449   0.22178   0.00000  Uiso   1.00
H817   H     0.75455   0.53121   0.00177   0.00000  Uiso   1.00
H818   H     0.73442   0.57569   0.41147   0.00000  Uiso   1.00
H819   H     0.74554   0.51674   0.42005   0.00000  Uiso   1.00
H820   H     0.68360   0.50794   0.46728   0.00000  Uiso   1.00
H821   H     0.66979   0.53082   0.41407   0.00000  Uiso   1.00
H822   H     0.67211   0.56755   0.46142   0.00000  Uiso   1.00
H823   H     0.74102   0.44827   0.48876   0.00000  Uiso   1.00
H824   H     0.73970   0.46659   0.04508   0.00000  Uiso   1.00
H825   H     0.73459   0.38456   0.06941   0.00000  Uiso   1.00
H826   H     0.69064   0.40731   0.04039   0.00000  Uiso   1.00
H827   H     0.77371   0.37496   0.22108   0.00000  Uiso   1.00
H828   H     0.71648   0.37177   0.47016   0.00000  Uiso   1.00
H829   H     0.70485   0.66457   0.01253   0.00000  Uiso   1.00
H830   H     0.75818   0.34587   0.00179   0.00000  Uiso   1.00
H831   H     0.79228   0.62776   0.14368   0.00000  Uiso   1.00
H832   H     0.77595   0.57028   0.14906   0.00000  Uiso   1.00
H833   H     0.77182   0.62538   0.06275   0.00000  Uiso   1.00
H834   H     0.75230   0.56879   0.07198   0.00000  Uiso   1.00
H835   H     0.70390   0.59676   0.12951   0.00000  Uiso   1.00
H836   H     0.69548   0.62513   0.07775   0.00000  Uiso   1.00
H837   H     0.72286   0.65385   0.12132   0.00000  Uiso   1.00
H838   H     0.89237   0.62496   0.28025   0.00000  Uiso   1.00
H839   H     0.82537   0.37452   0.34863   0.00000  Uiso   1.00
H840   H     0.79259   0.41789   0.36973   0.00000  Uiso   1.00
H841   H     0.83356   0.34300   0.42562   0.00000  Uiso   1.00
H842   H     0.79812   0.38526   0.44510   0.00000  Uiso   1.00
H843   H     0.74291   0.35619   0.39491   0.00000  Uiso   1.00
H844   H     0.76232   0.64527   0.43021   0.00000  Uiso   1.00
H845   H     0.77818   0.64783   0.37331   0.00000  Uiso   1.00
H846   H     0.86820   0.63080   0.36015   0.00000  Uiso   1.00
H847   H     0.88663   0.57451   0.35355   0.00000  Uiso   1.00
H848   H     0.88513   0.62536   0.44218   0.00000  Uiso   1.00
H849   H     0.92331   0.58972   0.01021   0.00000  Uiso   1.00
H850   H     0.90640   0.57005   0.43167   0.00000  Uiso   1.00
H851   H     0.95634   0.60236   0.37787   0.00000  Uiso   1.00
H852   H     0.96217   0.62766   0.43128   0.00000  Uiso   1.00
H853   H     0.93622   0.65834   0.38773   0.00000  Uiso   1.00
H854   H     0.84051   0.37691   0.15308   0.00000  Uiso   1.00
H855   H     0.87206   0.41863   0.12638   0.00000  Uiso   1.00
H856   H     0.82671   0.34062   0.07913   0.00000  Uiso   1.00
H857   H     0.86144   0.38111   0.05440   0.00000  Uiso   1.00
H858   H     0.91884   0.35469   0.10452   0.00000  Uiso   1.00
H859   H     0.89824   0.64322   0.07099   0.00000  Uiso   1.00
H860   H     0.90879   0.53280   0.00018   0.00000  Uiso   1.00
H861   H     0.88420   0.64674   0.12848   0.00000  Uiso   1.00
H862   H     0.73190   0.40347   0.15194   0.00000  Uiso   1.00
H863   H     0.74637   0.46020   0.16618   0.00000  Uiso   1.00
H864   H     0.69444   0.44778   0.14669   0.00000  Uiso   1.00
H865   H     0.94586   0.64045   0.22025   0.00000  Uiso   1.00
H866   H     0.94424   0.58908   0.18892   0.00000  Uiso   1.00
H867   H     0.99369   0.61422   0.20548   0.00000  Uiso   1.00
H868   H     0.93398   0.44724   0.16609   0.00000  Uiso   1.00
H869   H     0.92012   0.39024   0.18053   0.00000  Uiso   1.00
H870   H     0.97126   0.40122   0.16088   0.00000  Uiso   1.00
H871   H     0.92651   0.57439   0.09230   0.00000  Uiso   1.00
H872   H     0.72392   0.60871   0.32967   0.00000  Uiso   1.00
H873   H     0.72866   0.54828   0.32914   0.00000  Uiso   1.00
H874   H     0.67778   0.57482   0.33190   0.00000  Uiso   1.00
H875   H     0.91428   0.51592   0.08215   0.00000  Uiso   1.00
H876   H     0.97731   0.50640   0.03771   0.00000  Uiso   1.00
N877   N     0.83333   0.61907   0.25000   0.00000  Uiso   1.00
N878   N     0.83333   0.38093   0.25000   0.00000  Uiso   1.00
O879   O     0.77226   0.53821   0.24999   0.00000  Uiso   1.00
O880   O     0.87079   0.42848   0.47637   0.00000  Uiso   1.00
O881   O     0.79800   0.57298   0.47019   0.00000  Uiso   1.00
O882   O     0.79237   0.42803   0.02452   0.00000  Uiso   1.00
O883   O     0.83019   0.58350   0.11173   0.00000  Uiso   1.00
O884   O     0.85645   0.41989   0.38747   0.00000  Uiso   1.00
O885   O     0.83026   0.58304   0.38805   0.00000  Uiso   1.00
O886   O     0.80729   0.41970   0.11355   0.00000  Uiso   1.00
O887   O     0.70866   0.42558   0.21110   0.00000  Uiso   1.00
O888   O     0.95926   0.58289   0.25579   0.00000  Uiso   1.00
O889   O     0.95868   0.42035   0.22526   0.00000  Uiso   1.00
O890   O     0.89441   0.46179   0.25000   0.00000  Uiso   1.00
O891   O     0.70803   0.57891   0.27097   0.00000  Uiso   1.00
O892   O     0.89441   0.53821   0.25000   0.00000  Uiso   1.00
O893   O     0.77226   0.46179   0.24999   0.00000  Uiso   1.00
O894   O     0.83333   0.53822   0.18453   0.00000  Uiso   1.00
O895   O     0.83334   0.46178   0.31547   0.00000  Uiso   1.00
O896   O     0.83334   0.53822   0.31547   0.00000  Uiso   1.00
O897   O     0.83333   0.46178   0.18453   0.00000  Uiso   1.00
O898   O     0.86445   0.57353   0.03032   0.00000  Uiso   1.00
Zn899  Zn    0.83333   0.55104   0.25000   0.00000  Uiso   1.00
Zn900  Zn    0.83333   0.44896   0.25000   0.00000  Uiso   1.00
C901   C     0.08670   0.83339   0.24875   0.00000  Uiso   1.00
C902   C     0.31247   0.87533   0.24977   0.00000  Uiso   1.00
C903   C     0.31210   0.79484   0.23038   0.00000  Uiso   1.00
C904   C     0.02131   0.87377   0.25584   0.00000  Uiso   1.00
C905   C     0.17521   0.87150   0.04847   0.00000  Uiso   1.00
C906   C     0.18327   0.79567   0.45399   0.00000  Uiso   1.00
C907   C     0.15322   0.87089   0.45175   0.00000  Uiso   1.00
C908   C     0.14619   0.79560   0.04675   0.00000  Uiso   1.00
C909   C     0.16367   0.87448   0.09235   0.00000  Uiso   1.00
C910   C     0.18005   0.79344   0.40820   0.00000  Uiso   1.00
C911   C     0.16435   0.87403   0.40771   0.00000  Uiso   1.00
C912   C     0.24670   0.83353   0.24806   0.00000  Uiso   1.00
C913   C     0.14964   0.79349   0.09253   0.00000  Uiso   1.00
C914   C     0.15845   0.83372   0.11608   0.00000  Uiso   1.00
C915   C     0.17149   0.83356   0.38430   0.00000  Uiso   1.00
C916   C     0.16329   0.83294   0.02431   0.00000  Uiso   1.00
C917   C     0.16603   0.83285   0.47617   0.00000  Uiso   1.00
C918   C     0.29085   0.83444   0.24278   0.00000  Uiso   1.00
C919   C     0.04267   0.83419   0.24433   0.00000  Uiso   1.00
C920   C     0.23978   0.89369   0.02456   0.00000  Uiso   1.00
C921   C     0.26209   0.88009   0.06776   0.00000  Uiso   1.00
C922   C     0.30774   0.86970   0.05945   0.00000  Uiso   1.00
C923   C     0.16393   0.83337   0.16396   0.00000  Uiso   1.00
C924   C     0.24648   0.77459   0.48065   0.00000  Uiso   1.00
C925   C     0.27485   0.73530   0.46843   0.00000  Uiso   1.00
C926   C     0.27232   0.69689   0.00182   0.00000  Uiso   1.00
C927   C     0.08958   0.89290   0.47790   0.00000  Uiso   1.00
C928   C     0.06555   0.88078   0.43548   0.00000  Uiso   1.00
C929   C     0.01992   0.87124   0.44532   0.00000  Uiso   1.00
C930   C     0.08268   0.77157   0.02301   0.00000  Uiso   1.00
C931   C     0.05694   0.73039   0.03688   0.00000  Uiso   1.00
C932   C     0.05942   0.69251   0.00313   0.00000  Uiso   1.00
C933   C     0.12285   0.92860   0.12570   0.00000  Uiso   1.00
C934   C     0.16853   0.83332   0.33616   0.00000  Uiso   1.00
C935   C     0.09204   0.93524   0.08773   0.00000  Uiso   1.00
C936   C     0.05111   0.95394   0.10520   0.00000  Uiso   1.00
C937   C     0.15274   0.72898   0.37815   0.00000  Uiso   1.00
C938   C     0.14035   0.69794   0.41618   0.00000  Uiso   1.00
C939   C     0.10366   0.66831   0.40272   0.00000  Uiso   1.00
C940   C     0.20446   0.93095   0.37707   0.00000  Uiso   1.00
C941   C     0.23322   0.93699   0.41697   0.00000  Uiso   1.00
C942   C     0.27449   0.95774   0.40255   0.00000  Uiso   1.00
C943   C     0.17795   0.72932   0.12178   0.00000  Uiso   1.00
C944   C     0.18744   0.69578   0.08522   0.00000  Uiso   1.00
C945   C     0.19970   0.69074   0.26634   0.00000  Uiso   1.00
C946   C     0.22444   0.99996   0.09821   0.00000  Uiso   1.00
C947   C     0.05398   0.76848   0.16720   0.00000  Uiso   1.00
C948   C     0.29444   0.94059   0.21566   0.00000  Uiso   1.00
C949   C     0.27912   0.74862   0.18109   0.00000  Uiso   1.00
C950   C     0.04274   0.91042   0.31744   0.00000  Uiso   1.00
C951   C     0.13339   0.97592   0.23429   0.00000  Uiso   1.00
C952   C     0.13347   0.69045   0.23412   0.00000  Uiso   1.00
C953   C     0.19960   0.97620   0.26648   0.00000  Uiso   1.00
C954   C     0.02150   0.79615   0.22768   0.00000  Uiso   1.00
H955   H     0.22606   0.70885   0.27969   0.00000  Uiso   1.00
H956   H     0.32346   0.86220   0.09125   0.00000  Uiso   1.00
H957   H     0.32340   0.89904   0.04365   0.00000  Uiso   1.00
H958   H     0.25243   0.78483   0.01534   0.00000  Uiso   1.00
H959   H     0.25608   0.80346   0.45894   0.00000  Uiso   1.00
H960   H     0.26642   0.72267   0.43516   0.00000  Uiso   1.00
H961   H     0.30743   0.74778   0.46719   0.00000  Uiso   1.00
H962   H     0.27894   0.70991   0.03538   0.00000  Uiso   1.00
H963   H     0.29585   0.67090   0.49414   0.00000  Uiso   1.00
H964   H     0.24111   0.68097   0.00067   0.00000  Uiso   1.00
H965   H     0.07366   0.92187   0.49361   0.00000  Uiso   1.00
H966   H     0.10666   0.95782   0.22178   0.00000  Uiso   1.00
H967   H     0.08788   0.86454   0.00177   0.00000  Uiso   1.00
H968   H     0.06775   0.90902   0.41147   0.00000  Uiso   1.00
H969   H     0.07887   0.85007   0.42005   0.00000  Uiso   1.00
H970   H     0.01693   0.84127   0.46728   0.00000  Uiso   1.00
H971   H     0.00312   0.86415   0.41407   0.00000  Uiso   1.00
H972   H     0.00544   0.90089   0.46142   0.00000  Uiso   1.00
H973   H     0.07436   0.78161   0.48876   0.00000  Uiso   1.00
H974   H     0.07304   0.79992   0.04508   0.00000  Uiso   1.00
H975   H     0.06793   0.71790   0.06941   0.00000  Uiso   1.00
H976   H     0.02397   0.74065   0.04039   0.00000  Uiso   1.00
H977   H     0.10705   0.70829   0.22108   0.00000  Uiso   1.00
H978   H     0.04981   0.70511   0.47016   0.00000  Uiso   1.00
H979   H     0.03818   0.99790   0.01253   0.00000  Uiso   1.00
H980   H     0.09151   0.67920   0.00179   0.00000  Uiso   1.00
H981   H     0.12562   0.96109   0.14368   0.00000  Uiso   1.00
H982   H     0.10928   0.90362   0.14906   0.00000  Uiso   1.00
H983   H     0.10516   0.95871   0.06275   0.00000  Uiso   1.00
H984   H     0.08564   0.90212   0.07198   0.00000  Uiso   1.00
H985   H     0.03724   0.93010   0.12951   0.00000  Uiso   1.00
H986   H     0.02882   0.95846   0.07775   0.00000  Uiso   1.00
H987   H     0.05620   0.98718   0.12132   0.00000  Uiso   1.00
H988   H     0.22570   0.95829   0.28025   0.00000  Uiso   1.00
H989   H     0.15870   0.70785   0.34863   0.00000  Uiso   1.00
H990   H     0.12593   0.75122   0.36973   0.00000  Uiso   1.00
H991   H     0.16689   0.67633   0.42562   0.00000  Uiso   1.00
H992   H     0.13145   0.71859   0.44510   0.00000  Uiso   1.00
H993   H     0.07624   0.68952   0.39491   0.00000  Uiso   1.00
H994   H     0.09566   0.97860   0.43021   0.00000  Uiso   1.00
H995   H     0.11151   0.98116   0.37331   0.00000  Uiso   1.00
H996   H     0.20153   0.96413   0.36015   0.00000  Uiso   1.00
H997   H     0.21996   0.90784   0.35355   0.00000  Uiso   1.00
H998   H     0.21846   0.95869   0.44218   0.00000  Uiso   1.00
H999   H     0.25665   0.92305   0.01021   0.00000  Uiso   1.00
H1000  H     0.23973   0.90338   0.43167   0.00000  Uiso   1.00
H1001  H     0.28968   0.93569   0.37787   0.00000  Uiso   1.00
H1002  H     0.29550   0.96099   0.43128   0.00000  Uiso   1.00
H1003  H     0.26955   0.99167   0.38773   0.00000  Uiso   1.00
H1004  H     0.17385   0.71024   0.15308   0.00000  Uiso   1.00
H1005  H     0.20539   0.75197   0.12638   0.00000  Uiso   1.00
H1006  H     0.16004   0.67396   0.07913   0.00000  Uiso   1.00
H1007  H     0.19477   0.71444   0.05440   0.00000  Uiso   1.00
H1008  H     0.25217   0.68802   0.10452   0.00000  Uiso   1.00
H1009  H     0.23157   0.97655   0.07099   0.00000  Uiso   1.00
H1010  H     0.24212   0.86613   0.00018   0.00000  Uiso   1.00
H1011  H     0.21754   0.98007   0.12848   0.00000  Uiso   1.00
H1012  H     0.06523   0.73681   0.15194   0.00000  Uiso   1.00
H1013  H     0.07970   0.79353   0.16618   0.00000  Uiso   1.00
H1014  H     0.02778   0.78112   0.14669   0.00000  Uiso   1.00
H1015  H     0.27919   0.97378   0.22025   0.00000  Uiso   1.00
H1016  H     0.27757   0.92242   0.18892   0.00000  Uiso   1.00
H1017  H     0.32703   0.94756   0.20548   0.00000  Uiso   1.00
H1018  H     0.26731   0.78057   0.16609   0.00000  Uiso   1.00
H1019  H     0.25345   0.72357   0.18053   0.00000  Uiso   1.00
H1020  H     0.30459   0.73455   0.16088   0.00000  Uiso   1.00
H1021  H     0.25984   0.90773   0.09230   0.00000  Uiso   1.00
H1022  H     0.05725   0.94205   0.32967   0.00000  Uiso   1.00
H1023  H     0.06200   0.88162   0.32914   0.00000  Uiso   1.00
H1024  H     0.01111   0.90815   0.33190   0.00000  Uiso   1.00
H1025  H     0.24761   0.84925   0.08215   0.00000  Uiso   1.00
H1026  H     0.31064   0.83973   0.03771   0.00000  Uiso   1.00
N1027  N     0.16667   0.95240   0.25000   0.00000  Uiso   1.00
N1028  N     0.16667   0.71427   0.25000   0.00000  Uiso   1.00
O1029  O     0.10559   0.87154   0.24999   0.00000  Uiso   1.00
O1030  O     0.20412   0.76181   0.47637   0.00000  Uiso   1.00
O1031  O     0.13133   0.90631   0.47019   0.00000  Uiso   1.00
O1032  O     0.12570   0.76136   0.02452   0.00000  Uiso   1.00
O1033  O     0.16353   0.91684   0.11173   0.00000  Uiso   1.00
O1034  O     0.18978   0.75322   0.38747   0.00000  Uiso   1.00
O1035  O     0.16360   0.91638   0.38805   0.00000  Uiso   1.00
O1036  O     0.14062   0.75304   0.11355   0.00000  Uiso   1.00
O1037  O     0.04200   0.75891   0.21110   0.00000  Uiso   1.00
O1038  O     0.29260   0.91622   0.25579   0.00000  Uiso   1.00
O1039  O     0.29201   0.75368   0.22526   0.00000  Uiso   1.00
O1040  O     0.22774   0.79513   0.25000   0.00000  Uiso   1.00
O1041  O     0.04137   0.91224   0.27097   0.00000  Uiso   1.00
O1042  O     0.22774   0.87154   0.25000   0.00000  Uiso   1.00
O1043  O     0.10559   0.79513   0.24999   0.00000  Uiso   1.00
O1044  O     0.16666   0.87155   0.18453   0.00000  Uiso   1.00
O1045  O     0.16667   0.79511   0.31547   0.00000  Uiso   1.00
O1046  O     0.16667   0.87155   0.31547   0.00000  Uiso   1.00
O1047  O     0.16666   0.79511   0.18453   0.00000  Uiso   1.00
O1048  O     0.19778   0.90687   0.03032   0.00000  Uiso   1.00
Zn1049 Zn    0.16667   0.88437   0.25000   0.00000  Uiso   1.00
Zn1050 Zn    0.16667   0.78229   0.25000   0.00000  Uiso   1.00
C1051  C     0.42004   0.83339   0.24875   0.00000  Uiso   1.00
C1052  C     0.64581   0.87533   0.24977   0.00000  Uiso   1.00
C1053  C     0.64544   0.79484   0.23038   0.00000  Uiso   1.00
C1054  C     0.35464   0.87377   0.25584   0.00000  Uiso   1.00
C1055  C     0.50854   0.87150   0.04847   0.00000  Uiso   1.00
C1056  C     0.51660   0.79567   0.45399   0.00000  Uiso   1.00
C1057  C     0.48655   0.87089   0.45175   0.00000  Uiso   1.00
C1058  C     0.47952   0.79560   0.04675   0.00000  Uiso   1.00
C1059  C     0.49701   0.87448   0.09235   0.00000  Uiso   1.00
C1060  C     0.51338   0.79344   0.40820   0.00000  Uiso   1.00
C1061  C     0.49768   0.87403   0.40771   0.00000  Uiso   1.00
C1062  C     0.58003   0.83353   0.24806   0.00000  Uiso   1.00
C1063  C     0.48297   0.79349   0.09253   0.00000  Uiso   1.00
C1064  C     0.49178   0.83372   0.11608   0.00000  Uiso   1.00
C1065  C     0.50482   0.83356   0.38430   0.00000  Uiso   1.00
C1066  C     0.49662   0.83294   0.02431   0.00000  Uiso   1.00
C1067  C     0.49936   0.83285   0.47617   0.00000  Uiso   1.00
C1068  C     0.62419   0.83444   0.24278   0.00000  Uiso   1.00
C1069  C     0.37601   0.83419   0.24433   0.00000  Uiso   1.00
C1070  C     0.57312   0.89369   0.02456   0.00000  Uiso   1.00
C1071  C     0.59542   0.88009   0.06776   0.00000  Uiso   1.00
C1072  C     0.64107   0.86970   0.05945   0.00000  Uiso   1.00
C1073  C     0.49727   0.83337   0.16396   0.00000  Uiso   1.00
C1074  C     0.57982   0.77459   0.48065   0.00000  Uiso   1.00
C1075  C     0.60818   0.73530   0.46843   0.00000  Uiso   1.00
C1076  C     0.60565   0.69689   0.00182   0.00000  Uiso   1.00
C1077  C     0.42292   0.89290   0.47790   0.00000  Uiso   1.00
C1078  C     0.39888   0.88078   0.43548   0.00000  Uiso   1.00
C1079  C     0.35325   0.87124   0.44532   0.00000  Uiso   1.00
C1080  C     0.41602   0.77157   0.02301   0.00000  Uiso   1.00
C1081  C     0.39027   0.73039   0.03688   0.00000  Uiso   1.00
C1082  C     0.39275   0.69251   0.00313   0.00000  Uiso   1.00
C1083  C     0.45618   0.92860   0.12570   0.00000  Uiso   1.00
C1084  C     0.50187   0.83332   0.33616   0.00000  Uiso   1.00
C1085  C     0.42537   0.93524   0.08773   0.00000  Uiso   1.00
C1086  C     0.38444   0.95394   0.10520   0.00000  Uiso   1.00
C1087  C     0.48607   0.72898   0.37815   0.00000  Uiso   1.00
C1088  C     0.47368   0.69794   0.41618   0.00000  Uiso   1.00
C1089  C     0.43699   0.66831   0.40272   0.00000  Uiso   1.00
C1090  C     0.53780   0.93095   0.37707   0.00000  Uiso   1.00
C1091  C     0.56656   0.93699   0.41697   0.00000  Uiso   1.00
C1092  C     0.60782   0.95774   0.40255   0.00000  Uiso   1.00
C1093  C     0.51128   0.72932   0.12178   0.00000  Uiso   1.00
C1094  C     0.52078   0.69578   0.08522   0.00000  Uiso   1.00
C1095  C     0.53303   0.69074   0.26634   0.00000  Uiso   1.00
C1096  C     0.55777   0.99996   0.09821   0.00000  Uiso   1.00
C1097  C     0.38732   0.76848   0.16720   0.00000  Uiso   1.00
C1098  C     0.62778   0.94059   0.21566   0.00000  Uiso   1.00
C1099  C     0.61246   0.74862   0.18109   0.00000  Uiso   1.00
C1100  C     0.37607   0.91042   0.31744   0.00000  Uiso   1.00
C1101  C     0.46672   0.97592   0.23429   0.00000  Uiso   1.00
C1102  C     0.46681   0.69045   0.23412   0.00000  Uiso   1.00
C1103  C     0.53293   0.97620   0.26648   0.00000  Uiso   1.00
C1104  C     0.35483   0.79615   0.22768   0.00000  Uiso   1.00
H1105  H     0.55940   0.70885   0.27969   0.00000  Uiso   1.00
H1106  H     0.65679   0.86220   0.09125   0.00000  Uiso   1.00
H1107  H     0.65673   0.89904   0.04365   0.00000  Uiso   1.00
H1108  H     0.58576   0.78483   0.01534   0.00000  Uiso   1.00
H1109  H     0.58942   0.80346   0.45894   0.00000  Uiso   1.00
H1110  H     0.59975   0.72267   0.43516   0.00000  Uiso   1.00
H1111  H     0.64076   0.74778   0.46719   0.00000  Uiso   1.00
H1112  H     0.61227   0.70991   0.03538   0.00000  Uiso   1.00
H1113  H     0.62918   0.67090   0.49414   0.00000  Uiso   1.00
H1114  H     0.57444   0.68097   0.00067   0.00000  Uiso   1.00
H1115  H     0.40700   0.92187   0.49361   0.00000  Uiso   1.00
H1116  H     0.44000   0.95782   0.22178   0.00000  Uiso   1.00
H1117  H     0.42122   0.86454   0.00177   0.00000  Uiso   1.00
H1118  H     0.40108   0.90902   0.41147   0.00000  Uiso   1.00
H1119  H     0.41221   0.85007   0.42005   0.00000  Uiso   1.00
H1120  H     0.35027   0.84127   0.46728   0.00000  Uiso   1.00
H1121  H     0.33645   0.86415   0.41407   0.00000  Uiso   1.00
H1122  H     0.33877   0.90089   0.46142   0.00000  Uiso   1.00
H1123  H     0.40769   0.78161   0.48876   0.00000  Uiso   1.00
H1124  H     0.40637   0.79992   0.04508   0.00000  Uiso   1.00
H1125  H     0.40126   0.71790   0.06941   0.00000  Uiso   1.00
H1126  H     0.35731   0.74065   0.04039   0.00000  Uiso   1.00
H1127  H     0.44038   0.70829   0.22108   0.00000  Uiso   1.00
H1128  H     0.38315   0.70511   0.47016   0.00000  Uiso   1.00
H1129  H     0.37152   0.99790   0.01253   0.00000  Uiso   1.00
H1130  H     0.42485   0.67920   0.00179   0.00000  Uiso   1.00
H1131  H     0.45895   0.96109   0.14368   0.00000  Uiso   1.00
H1132  H     0.44262   0.90362   0.14906   0.00000  Uiso   1.00
H1133  H     0.43849   0.95871   0.06275   0.00000  Uiso   1.00
H1134  H     0.41897   0.90212   0.07198   0.00000  Uiso   1.00
H1135  H     0.37057   0.93010   0.12951   0.00000  Uiso   1.00
H1136  H     0.36215   0.95846   0.07775   0.00000  Uiso   1.00
H1137  H     0.38953   0.98718   0.12132   0.00000  Uiso   1.00
H1138  H     0.55903   0.95829   0.28025   0.00000  Uiso   1.00
H1139  H     0.49203   0.70785   0.34863   0.00000  Uiso   1.00
H1140  H     0.45926   0.75122   0.36973   0.00000  Uiso   1.00
H1141  H     0.50023   0.67633   0.42562   0.00000  Uiso   1.00
H1142  H     0.46478   0.71859   0.44510   0.00000  Uiso   1.00
H1143  H     0.40958   0.68952   0.39491   0.00000  Uiso   1.00
H1144  H     0.42899   0.97860   0.43021   0.00000  Uiso   1.00
H1145  H     0.44485   0.98116   0.37331   0.00000  Uiso   1.00
H1146  H     0.53487   0.96413   0.36015   0.00000  Uiso   1.00
H1147  H     0.55330   0.90784   0.35355   0.00000  Uiso   1.00
H1148  H     0.55179   0.95869   0.44218   0.00000  Uiso   1.00
H1149  H     0.58998   0.92305   0.01021   0.00000  Uiso   1.00
H1150  H     0.57307   0.90338   0.43167   0.00000  Uiso   1.00
H1151  H     0.62301   0.93569   0.37787   0.00000  Uiso   1.00
H1152  H     0.62884   0.96099   0.43128   0.00000  Uiso   1.00
H1153  H     0.60288   0.99167   0.38773   0.00000  Uiso   1.00
H1154  H     0.50718   0.71024   0.15308   0.00000  Uiso   1.00
H1155  H     0.53873   0.75197   0.12638   0.00000  Uiso   1.00
H1156  H     0.49338   0.67396   0.07913   0.00000  Uiso   1.00
H1157  H     0.52811   0.71444   0.05440   0.00000  Uiso   1.00
H1158  H     0.58551   0.68802   0.10452   0.00000  Uiso   1.00
H1159  H     0.56490   0.97655   0.07099   0.00000  Uiso   1.00
H1160  H     0.57545   0.86613   0.00018   0.00000  Uiso   1.00
H1161  H     0.55087   0.98007   0.12848   0.00000  Uiso   1.00
H1162  H     0.39856   0.73681   0.15194   0.00000  Uiso   1.00
H1163  H     0.41304   0.79353   0.16618   0.00000  Uiso   1.00
H1164  H     0.36111   0.78112   0.14669   0.00000  Uiso   1.00
H1165  H     0.61252   0.97378   0.22025   0.00000  Uiso   1.00
H1166  H     0.61090   0.92242   0.18892   0.00000  Uiso   1.00
H1167  H     0.66036   0.94756   0.20548   0.00000  Uiso   1.00
H1168  H     0.60065   0.78057   0.16609   0.00000  Uiso   1.00
H1169  H     0.58679   0.72357   0.18053   0.00000  Uiso   1.00
H1170  H     0.63793   0.73455   0.16088   0.00000  Uiso   1.00
H1171  H     0.59317   0.90773   0.09230   0.00000  Uiso   1.00
H1172  H     0.39059   0.94205   0.32967   0.00000  Uiso   1.00
H1173  H     0.39533   0.88162   0.32914   0.00000  Uiso   1.00
H1174  H     0.34444   0.90815   0.33190   0.00000  Uiso   1.00
H1175  H     0.58094   0.84925   0.08215   0.00000  Uiso   1.00
H1176  H     0.64397   0.83973   0.03771   0.00000  Uiso   1.00
N1177  N     0.50000   0.95240   0.25000   0.00000  Uiso   1.00
N1178  N     0.50000   0.71427   0.25000   0.00000  Uiso   1.00
O1179  O     0.43892   0.87154   0.24999   0.00000  Uiso   1.00
O1180  O     0.53745   0.76181   0.47637   0.00000  Uiso   1.00
O1181  O     0.46466   0.90631   0.47019   0.00000  Uiso   1.00
O1182  O     0.45903   0.76136   0.02452   0.00000  Uiso   1.00
O1183  O     0.49686   0.91684   0.11173   0.00000  Uiso   1.00
O1184  O     0.52312   0.75322   0.38747   0.00000  Uiso   1.00
O1185  O     0.49693   0.91638   0.38805   0.00000  Uiso   1.00
O1186  O     0.47396   0.75304   0.11355   0.00000  Uiso   1.00
O1187  O     0.37533   0.75891   0.21110   0.00000  Uiso   1.00
O1188  O     0.62593   0.91622   0.25579   0.00000  Uiso   1.00
O1189  O     0.62534   0.75368   0.22526   0.00000  Uiso   1.00
O1190  O     0.56108   0.79513   0.25000   0.00000  Uiso   1.00
O1191  O     0.37470   0.91224   0.27097   0.00000  Uiso   1.00
O1192  O     0.56108   0.87154   0.25000   0.00000  Uiso   1.00
O1193  O     0.43892   0.79513   0.24999   0.00000  Uiso   1.00
O1194  O     0.50000   0.87155   0.18453   0.00000  Uiso   1.00
O1195  O     0.50000   0.79511   0.31547   0.00000  Uiso   1.00
O1196  O     0.50000   0.87155   0.31547   0.00000  Uiso   1.00
O1197  O     0.50000   0.79511   0.18453   0.00000  Uiso   1.00
O1198  O     0.53111   0.90687   0.03032   0.00000  Uiso   1.00
Zn1199 Zn    0.50000   0.88437   0.25000   0.00000  Uiso   1.00
Zn1200 Zn    0.50000   0.78229   0.25000   0.00000  Uiso   1.00
C1201  C     0.75337   0.83339   0.24875   0.00000  Uiso   1.00
C1202  C     0.97914   0.87533   0.24977   0.00000  Uiso   1.00
C1203  C     0.97877   0.79484   0.23038   0.00000  Uiso   1.00
C1204  C     0.68797   0.87377   0.25584   0.00000  Uiso   1.00
C1205  C     0.84187   0.87150   0.04847   0.00000  Uiso   1.00
C1206  C     0.84994   0.79567   0.45399   0.00000  Uiso   1.00
C1207  C     0.81988   0.87089   0.45175   0.00000  Uiso   1.00
C1208  C     0.81285   0.79560   0.04675   0.00000  Uiso   1.00
C1209  C     0.83034   0.87448   0.09235   0.00000  Uiso   1.00
C1210  C     0.84672   0.79344   0.40820   0.00000  Uiso   1.00
C1211  C     0.83101   0.87403   0.40771   0.00000  Uiso   1.00
C1212  C     0.91337   0.83353   0.24806   0.00000  Uiso   1.00
C1213  C     0.81631   0.79349   0.09253   0.00000  Uiso   1.00
C1214  C     0.82512   0.83372   0.11608   0.00000  Uiso   1.00
C1215  C     0.83816   0.83356   0.38430   0.00000  Uiso   1.00
C1216  C     0.82995   0.83294   0.02431   0.00000  Uiso   1.00
C1217  C     0.83269   0.83285   0.47617   0.00000  Uiso   1.00
C1218  C     0.95752   0.83444   0.24278   0.00000  Uiso   1.00
C1219  C     0.70934   0.83419   0.24433   0.00000  Uiso   1.00
C1220  C     0.90645   0.89369   0.02456   0.00000  Uiso   1.00
C1221  C     0.92876   0.88009   0.06776   0.00000  Uiso   1.00
C1222  C     0.97441   0.86970   0.05945   0.00000  Uiso   1.00
C1223  C     0.83060   0.83337   0.16396   0.00000  Uiso   1.00
C1224  C     0.91315   0.77459   0.48065   0.00000  Uiso   1.00
C1225  C     0.94151   0.73530   0.46843   0.00000  Uiso   1.00
C1226  C     0.93898   0.69689   0.00182   0.00000  Uiso   1.00
C1227  C     0.75625   0.89290   0.47790   0.00000  Uiso   1.00
C1228  C     0.73221   0.88078   0.43548   0.00000  Uiso   1.00
C1229  C     0.68659   0.87124   0.44532   0.00000  Uiso   1.00
C1230  C     0.74935   0.77157   0.02301   0.00000  Uiso   1.00
C1231  C     0.72360   0.73039   0.03688   0.00000  Uiso   1.00
C1232  C     0.72609   0.69251   0.00313   0.00000  Uiso   1.00
C1233  C     0.78952   0.92860   0.12570   0.00000  Uiso   1.00
C1234  C     0.83520   0.83332   0.33616   0.00000  Uiso   1.00
C1235  C     0.75871   0.93524   0.08773   0.00000  Uiso   1.00
C1236  C     0.71778   0.95394   0.10520   0.00000  Uiso   1.00
C1237  C     0.81940   0.72898   0.37815   0.00000  Uiso   1.00
C1238  C     0.80702   0.69794   0.41618   0.00000  Uiso   1.00
C1239  C     0.77032   0.66831   0.40272   0.00000  Uiso   1.00
C1240  C     0.87113   0.93095   0.37707   0.00000  Uiso   1.00
C1241  C     0.89989   0.93699   0.41697   0.00000  Uiso   1.00
C1242  C     0.94115   0.95774   0.40255   0.00000  Uiso   1.00
C1243  C     0.84462   0.72932   0.12178   0.00000  Uiso   1.00
C1244  C     0.85411   0.69578   0.08522   0.00000  Uiso   1.00
C1245  C     0.86637   0.69074   0.26634   0.00000  Uiso   1.00
C1246  C     0.89111   0.99996   0.09821   0.00000  Uiso   1.00
C1247  C     0.72065   0.76848   0.16720   0.00000  Uiso   1.00
C1248  C     0.96111   0.94059   0.21566   0.00000  Uiso   1.00
C1249  C     0.94579   0.74862   0.18109   0.00000  Uiso   1.00
C1250  C     0.70941   0.91042   0.31744   0.00000  Uiso   1.00
C1251  C     0.80005   0.97592   0.23429   0.00000  Uiso   1.00
C1252  C     0.80014   0.69045   0.23412   0.00000  Uiso   1.00
C1253  C     0.86626   0.97620   0.26648   0.00000  Uiso   1.00
C1254  C     0.68817   0.79615   0.22768   0.00000  Uiso   1.00
H1255  H     0.89273   0.70885   0.27969   0.00000  Uiso   1.00
H1256  H     0.99013   0.86220   0.09125   0.00000  Uiso   1.00
H1257  H     0.99007   0.89904   0.04365   0.00000  Uiso   1.00
H1258  H     0.91909   0.78483   0.01534   0.00000  Uiso   1.00
H1259  H     0.92275   0.80346   0.45894   0.00000  Uiso   1.00
H1260  H     0.93308   0.72267   0.43516   0.00000  Uiso   1.00
H1261  H     0.97409   0.74778   0.46719   0.00000  Uiso   1.00
H1262  H     0.94560   0.70991   0.03538   0.00000  Uiso   1.00
H1263  H     0.96252   0.67090   0.49414   0.00000  Uiso   1.00
H1264  H     0.90778   0.68097   0.00067   0.00000  Uiso   1.00
H1265  H     0.74033   0.92187   0.49361   0.00000  Uiso   1.00
H1266  H     0.77333   0.95782   0.22178   0.00000  Uiso   1.00
H1267  H     0.75455   0.86454   0.00177   0.00000  Uiso   1.00
H1268  H     0.73442   0.90902   0.41147   0.00000  Uiso   1.00
H1269  H     0.74554   0.85007   0.42005   0.00000  Uiso   1.00
H1270  H     0.68360   0.84127   0.46728   0.00000  Uiso   1.00
H1271  H     0.66979   0.86415   0.41407   0.00000  Uiso   1.00
H1272  H     0.67211   0.90089   0.46142   0.00000  Uiso   1.00
H1273  H     0.74102   0.78161   0.48876   0.00000  Uiso   1.00
H1274  H     0.73970   0.79992   0.04508   0.00000  Uiso   1.00
H1275  H     0.73459   0.71790   0.06941   0.00000  Uiso   1.00
H1276  H     0.69064   0.74065   0.04039   0.00000  Uiso   1.00
H1277  H     0.77371   0.70829   0.22108   0.00000  Uiso   1.00
H1278  H     0.71648   0.70511   0.47016   0.00000  Uiso   1.00
H1279  H     0.70485   0.99790   0.01253   0.00000  Uiso   1.00
H1280  H     0.75818   0.67920   0.00179   0.00000  Uiso   1.00
H1281  H     0.79228   0.96109   0.14368   0.00000  Uiso   1.00
H1282  H     0.77595   0.90362   0.14906   0.00000  Uiso   1.00
H1283  H     0.77182   0.95871   0.06275   0.00000  Uiso   1.00
H1284  H     0.75230   0.90212   0.07198   0.00000  Uiso   1.00
H1285  H     0.70390   0.93010   0.12951   0.00000  Uiso   1.00
H1286  H     0.69548   0.95846   0.07775   0.00000  Uiso   1.00
H1287  H     0.72286   0.98718   0.12132   0.00000  Uiso   1.00
H1288  H     0.89237   0.95829   0.28025   0.00000  Uiso   1.00
H1289  H     0.82537   0.70785   0.34863   0.00000  Uiso   1.00
H1290  H     0.79259   0.75122   0.36973   0.00000  Uiso   1.00
H1291  H     0.83356   0.67633   0.42562   0.00000  Uiso   1.00
H1292  H     0.79812   0.71859   0.44510   0.00000  Uiso   1.00
H1293  H     0.74291   0.68952   0.39491   0.00000  Uiso   1.00
H1294  H     0.76232   0.97860   0.43021   0.00000  Uiso   1.00
H1295  H     0.77818   0.98116   0.37331   0.00000  Uiso   1.00
H1296  H     0.86820   0.96413   0.36015   0.00000  Uiso   1.00
H1297  H     0.88663   0.90784   0.35355   0.00000  Uiso   1.00
H1298  H     0.88513   0.95869   0.44218   0.00000  Uiso   1.00
H1299  H     0.92331   0.92305   0.01021   0.00000  Uiso   1.00
H1300  H     0.90640   0.90338   0.43167   0.00000  Uiso   1.00
H1301  H     0.95634   0.93569   0.37787   0.00000  Uiso   1.00
H1302  H     0.96217   0.96099   0.43128   0.00000  Uiso   1.00
H1303  H     0.93622   0.99167   0.38773   0.00000  Uiso   1.00
H1304  H     0.84051   0.71024   0.15308   0.00000  Uiso   1.00
H1305  H     0.87206   0.75197   0.12638   0.00000  Uiso   1.00
H1306  H     0.82671   0.67396   0.07913   0.00000  Uiso   1.00
H1307  H     0.86144   0.71444   0.05440   0.00000  Uiso   1.00
H1308  H     0.91884   0.68802   0.10452   0.00000  Uiso   1.00
H1309  H     0.89824   0.97655   0.07099   0.00000  Uiso   1.00
H1310  H     0.90879   0.86613   0.00018   0.00000  Uiso   1.00
H1311  H     0.88420   0.98007   0.12848   0.00000  Uiso   1.00
H1312  H     0.73190   0.73681   0.15194   0.00000  Uiso   1.00
H1313  H     0.74637   0.79353   0.16618   0.00000  Uiso   1.00
H1314  H     0.69444   0.78112   0.14669   0.00000  Uiso   1.00
H1315  H     0.94586   0.97378   0.22025   0.00000  Uiso   1.00
H1316  H     0.94424   0.92242   0.18892   0.00000  Uiso   1.00
H1317  H     0.99369   0.94756   0.20548   0.00000  Uiso   1.00
H1318  H     0.93398   0.78057   0.16609   0.00000  Uiso   1.00
H1319  H     0.92012   0.72357   0.18053   0.00000  Uiso   1.00
H1320  H     0.97126   0.73455   0.16088   0.00000  Uiso   1.00
H1321  H     0.92651   0.90773   0.09230   0.00000  Uiso   1.00
H1322  H     0.72392   0.94205   0.32967   0.00000  Uiso   1.00
H1323  H     0.72866   0.88162   0.32914   0.00000  Uiso   1.00
H1324  H     0.67778   0.90815   0.33190   0.00000  Uiso   1.00
H1325  H     0.91428   0.84925   0.08215   0.00000  Uiso   1.00
H1326  H     0.97731   0.83973   0.03771   0.00000  Uiso   1.00
N1327  N     0.83333   0.95240   0.25000   0.00000  Uiso   1.00
N1328  N     0.83333   0.71427   0.25000   0.00000  Uiso   1.00
O1329  O     0.77226   0.87154   0.24999   0.00000  Uiso   1.00
O1330  O     0.87079   0.76181   0.47637   0.00000  Uiso   1.00
O1331  O     0.79800   0.90631   0.47019   0.00000  Uiso   1.00
O1332  O     0.79237   0.76136   0.02452   0.00000  Uiso   1.00
O1333  O     0.83019   0.91684   0.11173   0.00000  Uiso   1.00
O1334  O     0.85645   0.75322   0.38747   0.00000  Uiso   1.00
O1335  O     0.83026   0.91638   0.38805   0.00000  Uiso   1.00
O1336  O     0.80729   0.75304   0.11355   0.00000  Uiso   1.00
O1337  O     0.70866   0.75891   0.21110   0.00000  Uiso   1.00
O1338  O     0.95926   0.91622   0.25579   0.00000  Uiso   1.00
O1339  O     0.95868   0.75368   0.22526   0.00000  Uiso   1.00
O1340  O     0.89441   0.79513   0.25000   0.00000  Uiso   1.00
O1341  O     0.70803   0.91224   0.27097   0.00000  Uiso   1.00
O1342  O     0.89441   0.87154   0.25000   0.00000  Uiso   1.00
O1343  O     0.77226   0.79513   0.24999   0.00000  Uiso   1.00
O1344  O     0.83333   0.87155   0.18453   0.00000  Uiso   1.00
O1345  O     0.83334   0.79511   0.31547   0.00000  Uiso   1.00
O1346  O     0.83334   0.87155   0.31547   0.00000  Uiso   1.00
O1347  O     0.83333   0.79511   0.18453   0.00000  Uiso   1.00
O1348  O     0.86445   0.90687   0.03032   0.00000  Uiso   1.00
Zn1349 Zn    0.83333   0.88437   0.25000   0.00000  Uiso   1.00
Zn1350 Zn    0.83333   0.78229   0.25000   0.00000  Uiso   1.00
C1351  C     0.08670   0.16672   0.74875   0.00000  Uiso   1.00
C1352  C     0.31247   0.20866   0.74977   0.00000  Uiso   1.00
C1353  C     0.31210   0.12818   0.73038   0.00000  Uiso   1.00
C1354  C     0.02131   0.20710   0.75584   0.00000  Uiso   1.00
C1355  C     0.17521   0.20483   0.54847   0.00000  Uiso   1.00
C1356  C     0.18327   0.12900   0.95399   0.00000  Uiso   1.00
C1357  C     0.15322   0.20422   0.95175   0.00000  Uiso   1.00
C1358  C     0.14619   0.12894   0.54675   0.00000  Uiso   1.00
C1359  C     0.16367   0.20781   0.59235   0.00000  Uiso   1.00
C1360  C     0.18005   0.12677   0.90820   0.00000  Uiso   1.00
C1361  C     0.16435   0.20737   0.90771   0.00000  Uiso   1.00
C1362  C     0.24670   0.16686   0.74806   0.00000  Uiso   1.00
C1363  C     0.14964   0.12682   0.59253   0.00000  Uiso   1.00
C1364  C     0.15845   0.16705   0.61608   0.00000  Uiso   1.00
C1365  C     0.17149   0.16690   0.88430   0.00000  Uiso   1.00
C1366  C     0.16329   0.16627   0.52431   0.00000  Uiso   1.00
C1367  C     0.16603   0.16618   0.97617   0.00000  Uiso   1.00
C1368  C     0.29085   0.16777   0.74278   0.00000  Uiso   1.00
C1369  C     0.04267   0.16752   0.74433   0.00000  Uiso   1.00
C1370  C     0.23978   0.22702   0.52456   0.00000  Uiso   1.00
C1371  C     0.26209   0.21343   0.56776   0.00000  Uiso   1.00
C1372  C     0.30774   0.20303   0.55945   0.00000  Uiso   1.00
C1373  C     0.16393   0.16671   0.66396   0.00000  Uiso   1.00
C1374  C     0.24648   0.10792   0.98065   0.00000  Uiso   1.00
C1375  C     0.27485   0.06864   0.96843   0.00000  Uiso   1.00
C1376  C     0.27232   0.03022   0.50182   0.00000  Uiso   1.00
C1377  C     0.08958   0.22623   0.97790   0.00000  Uiso   1.00
C1378  C     0.06555   0.21411   0.93548   0.00000  Uiso   1.00
C1379  C     0.01992   0.20457   0.94532   0.00000  Uiso   1.00
C1380  C     0.08268   0.10491   0.52301   0.00000  Uiso   1.00
C1381  C     0.05694   0.06372   0.53688   0.00000  Uiso   1.00
C1382  C     0.05942   0.02584   0.50313   0.00000  Uiso   1.00
C1383  C     0.12285   0.26193   0.62570   0.00000  Uiso   1.00
C1384  C     0.16853   0.16665   0.83616   0.00000  Uiso   1.00
C1385  C     0.09204   0.26858   0.58773   0.00000  Uiso   1.00
C1386  C     0.05111   0.28728   0.60520   0.00000  Uiso   1.00
C1387  C     0.15274   0.06231   0.87815   0.00000  Uiso   1.00
C1388  C     0.14035   0.03127   0.91618   0.00000  Uiso   1.00
C1389  C     0.10366   0.00165   0.90272   0.00000  Uiso   1.00
C1390  C     0.20446   0.26429   0.87707   0.00000  Uiso   1.00
C1391  C     0.23322   0.27032   0.91697   0.00000  Uiso   1.00
C1392  C     0.27449   0.29107   0.90255   0.00000  Uiso   1.00
C1393  C     0.17795   0.06266   0.62178   0.00000  Uiso   1.00
C1394  C     0.18744   0.02911   0.58522   0.00000  Uiso   1.00
C1395  C     0.19970   0.02407   0.76634   0.00000  Uiso   1.00
C1396  C     0.22444   0.33330   0.59821   0.00000  Uiso   1.00
C1397  C     0.05398   0.10181   0.66720   0.00000  Uiso   1.00
C1398  C     0.29444   0.27392   0.71566   0.00000  Uiso   1.00
C1399  C     0.27912   0.08196   0.68109   0.00000  Uiso   1.00
C1400  C     0.04274   0.24375   0.81744   0.00000  Uiso   1.00
C1401  C     0.13339   0.30926   0.73429   0.00000  Uiso   1.00
C1402  C     0.13347   0.02379   0.73412   0.00000  Uiso   1.00
C1403  C     0.19960   0.30953   0.76648   0.00000  Uiso   1.00
C1404  C     0.02150   0.12948   0.72768   0.00000  Uiso   1.00
H1405  H     0.22606   0.04218   0.77969   0.00000  Uiso   1.00
H1406  H     0.32346   0.19554   0.59125   0.00000  Uiso   1.00
H1407  H     0.32340   0.23237   0.54365   0.00000  Uiso   1.00
H1408  H     0.25243   0.11817   0.51534   0.00000  Uiso   1.00
H1409  H     0.25608   0.13679   0.95894   0.00000  Uiso   1.00
H1410  H     0.26642   0.05600   0.93516   0.00000  Uiso   1.00
H1411  H     0.30743   0.08111   0.96719   0.00000  Uiso   1.00
H1412  H     0.27894   0.04324   0.53538   0.00000  Uiso   1.00
H1413  H     0.29585   0.00424   0.99414   0.00000  Uiso   1.00
H1414  H     0.24111   0.01430   0.50067   0.00000  Uiso   1.00
H1415  H     0.07366   0.25520   0.99361   0.00000  Uiso   1.00
H1416  H     0.10666   0.29116   0.72178   0.00000  Uiso   1.00
H1417  H     0.08788   0.19787   0.50177   0.00000  Uiso   1.00
H1418  H     0.06775   0.24235   0.91147   0.00000  Uiso   1.00
H1419  H     0.07887   0.18341   0.92005   0.00000  Uiso   1.00
H1420  H     0.01693   0.17461   0.96728   0.00000  Uiso   1.00
H1421  H     0.00312   0.19749   0.91407   0.00000  Uiso   1.00
H1422  H     0.00544   0.23422   0.96142   0.00000  Uiso   1.00
H1423  H     0.07436   0.11494   0.98876   0.00000  Uiso   1.00
H1424  H     0.07304   0.13325   0.54508   0.00000  Uiso   1.00
H1425  H     0.06793   0.05123   0.56941   0.00000  Uiso   1.00
H1426  H     0.02397   0.07398   0.54039   0.00000  Uiso   1.00
H1427  H     0.10705   0.04163   0.72108   0.00000  Uiso   1.00
H1428  H     0.04981   0.03844   0.97016   0.00000  Uiso   1.00
H1429  H     0.03818   0.33123   0.51253   0.00000  Uiso   1.00
H1430  H     0.09151   0.01253   0.50179   0.00000  Uiso   1.00
H1431  H     0.12562   0.29443   0.64368   0.00000  Uiso   1.00
H1432  H     0.10928   0.23695   0.64906   0.00000  Uiso   1.00
H1433  H     0.10516   0.29204   0.56275   0.00000  Uiso   1.00
H1434  H     0.08564   0.23546   0.57198   0.00000  Uiso   1.00
H1435  H     0.03724   0.26343   0.62951   0.00000  Uiso   1.00
H1436  H     0.02882   0.29180   0.57775   0.00000  Uiso   1.00
H1437  H     0.05620   0.32052   0.62132   0.00000  Uiso   1.00
H1438  H     0.22570   0.29163   0.78025   0.00000  Uiso   1.00
H1439  H     0.15870   0.04119   0.84863   0.00000  Uiso   1.00
H1440  H     0.12593   0.08456   0.86973   0.00000  Uiso   1.00
H1441  H     0.16689   0.00966   0.92562   0.00000  Uiso   1.00
H1442  H     0.13145   0.05192   0.94510   0.00000  Uiso   1.00
H1443  H     0.07624   0.02285   0.89491   0.00000  Uiso   1.00
H1444  H     0.09566   0.31194   0.93021   0.00000  Uiso   1.00
H1445  H     0.11151   0.31450   0.87331   0.00000  Uiso   1.00
H1446  H     0.20153   0.29747   0.86015   0.00000  Uiso   1.00
H1447  H     0.21996   0.24117   0.85355   0.00000  Uiso   1.00
H1448  H     0.21846   0.29203   0.94218   0.00000  Uiso   1.00
H1449  H     0.25665   0.25639   0.51021   0.00000  Uiso   1.00
H1450  H     0.23973   0.23672   0.93167   0.00000  Uiso   1.00
H1451  H     0.28968   0.26903   0.87787   0.00000  Uiso   1.00
H1452  H     0.29550   0.29433   0.93128   0.00000  Uiso   1.00
H1453  H     0.26955   0.32500   0.88773   0.00000  Uiso   1.00
H1454  H     0.17385   0.04357   0.65308   0.00000  Uiso   1.00
H1455  H     0.20539   0.08530   0.62638   0.00000  Uiso   1.00
H1456  H     0.16004   0.00729   0.57913   0.00000  Uiso   1.00
H1457  H     0.19477   0.04778   0.55440   0.00000  Uiso   1.00
H1458  H     0.25217   0.02136   0.60452   0.00000  Uiso   1.00
H1459  H     0.23157   0.30989   0.57099   0.00000  Uiso   1.00
H1460  H     0.24212   0.19946   0.50018   0.00000  Uiso   1.00
H1461  H     0.21754   0.31340   0.62848   0.00000  Uiso   1.00
H1462  H     0.06523   0.07014   0.65194   0.00000  Uiso   1.00
H1463  H     0.07970   0.12687   0.66618   0.00000  Uiso   1.00
H1464  H     0.02778   0.11445   0.64669   0.00000  Uiso   1.00
H1465  H     0.27919   0.30712   0.72025   0.00000  Uiso   1.00
H1466  H     0.27757   0.25575   0.68892   0.00000  Uiso   1.00
H1467  H     0.32703   0.28089   0.70548   0.00000  Uiso   1.00
H1468  H     0.26731   0.11391   0.66609   0.00000  Uiso   1.00
H1469  H     0.25345   0.05690   0.68053   0.00000  Uiso   1.00
H1470  H     0.30459   0.06789   0.66088   0.00000  Uiso   1.00
H1471  H     0.25984   0.24106   0.59230   0.00000  Uiso   1.00
H1472  H     0.05725   0.27538   0.82967   0.00000  Uiso   1.00
H1473  H     0.06200   0.21495   0.82914   0.00000  Uiso   1.00
H1474  H     0.01111   0.24148   0.83190   0.00000  Uiso   1.00
H1475  H     0.24761   0.18258   0.58215   0.00000  Uiso   1.00
H1476  H     0.31064   0.17306   0.53771   0.00000  Uiso   1.00
N1477  N     0.16667   0.28573   0.75000   0.00000  Uiso   1.00
N1478  N     0.16667   0.04760   0.75000   0.00000  Uiso   1.00
O1479  O     0.10559   0.20487   0.74999   0.00000  Uiso   1.00
O1480  O     0.20412   0.09514   0.97637   0.00000  Uiso   1.00
O1481  O     0.13133   0.23965   0.97019   0.00000  Uiso   1.00
O1482  O     0.12570   0.09469   0.52452   0.00000  Uiso   1.00
O1483  O     0.16353   0.25017   0.61173   0.00000  Uiso   1.00
O1484  O     0.18978   0.08656   0.88747   0.00000  Uiso   1.00
O1485  O     0.16360   0.24971   0.88805   0.00000  Uiso   1.00
O1486  O     0.14062   0.08637   0.61355   0.00000  Uiso   1.00
O1487  O     0.04200   0.09224   0.71110   0.00000  Uiso   1.00
O1488  O     0.29260   0.24956   0.75579   0.00000  Uiso   1.00
O1489  O     0.29201   0.08702   0.72526   0.00000  Uiso   1.00
O1490  O     0.22774   0.12846   0.75000   0.00000  Uiso   1.00
O1491  O     0.04137   0.24558   0.77097   0.00000  Uiso   1.00
O1492  O     0.22774   0.20487   0.75000   0.00000  Uiso   1.00
O1493  O     0.10559   0.12846   0.74999   0.00000  Uiso   1.00
O1494  O     0.16666   0.20489   0.68453   0.00000  Uiso   1.00
O1495  O     0.16667   0.12845   0.81547   0.00000  Uiso   1.00
O1496  O     0.16667   0.20489   0.81547   0.00000  Uiso   1.00
O1497  O     0.16666   0.12845   0.68453   0.00000  Uiso   1.00
O1498  O     0.19778   0.24020   0.53032   0.00000  Uiso   1.00
Zn1499 Zn    0.16667   0.21771   0.75000   0.00000  Uiso   1.00
Zn1500 Zn    0.16667   0.11563   0.75000   0.00000  Uiso   1.00
C1501  C     0.42004   0.16672   0.74875   0.00000  Uiso   1.00
C1502  C     0.64581   0.20866   0.74977   0.00000  Uiso   1.00
C1503  C     0.64544   0.12818   0.73038   0.00000  Uiso   1.00
C1504  C     0.35464   0.20710   0.75584   0.00000  Uiso   1.00
C1505  C     0.50854   0.20483   0.54847   0.00000  Uiso   1.00
C1506  C     0.51660   0.12900   0.95399   0.00000  Uiso   1.00
C1507  C     0.48655   0.20422   0.95175   0.00000  Uiso   1.00
C1508  C     0.47952   0.12894   0.54675   0.00000  Uiso   1.00
C1509  C     0.49701   0.20781   0.59235   0.00000  Uiso   1.00
C1510  C     0.51338   0.12677   0.90820   0.00000  Uiso   1.00
C1511  C     0.49768   0.20737   0.90771   0.00000  Uiso   1.00
C1512  C     0.58003   0.16686   0.74806   0.00000  Uiso   1.00
C1513  C     0.48297   0.12682   0.59253   0.00000  Uiso   1.00
C1514  C     0.49178   0.16705   0.61608   0.00000  Uiso   1.00
C1515  C     0.50482   0.16690   0.88430   0.00000  Uiso   1.00
C1516  C     0.49662   0.16627   0.52431   0.00000  Uiso   1.00
C1517  C     0.49936   0.16618   0.97617   0.00000  Uiso   1.00
C1518  C     0.62419   0.16777   0.74278   0.00000  Uiso   1.00
C1519  C     0.37601   0.16752   0.74433   0.00000  Uiso   1.00
C1520  C     0.57312   0.22702   0.52456   0.00000  Uiso   1.00
C1521  C     0.59542   0.21343   0.56776   0.00000  Uiso   1.00
C1522  C     0.64107   0.20303   0.55945   0.00000  Uiso   1.00
C1523  C     0.49727   0.16671   0.66396   0.00000  Uiso   1.00
C1524  C     0.57982   0.10792   0.98065   0.00000  Uiso   1.00
C1525  C     0.60818   0.06864   0.96843   0.00000  Uiso   1.00
C1526  C     0.60565   0.03022   0.50182   0.00000  Uiso   1.00
C1527  C     0.42292   0.22623   0.97790   0.00000  Uiso   1.00
C1528  C     0.39888   0.21411   0.93548   0.00000  Uiso   1.00
C1529  C     0.35325   0.20457   0.94532   0.00000  Uiso   1.00
C1530  C     0.41602   0.10491   0.52301   0.00000  Uiso   1.00
C1531  C     0.39027   0.06372   0.53688   0.00000  Uiso   1.00
C1532  C     0.39275   0.02584   0.50313   0.00000  Uiso   1.00
C1533  C     0.45618   0.26193   0.62570   0.00000  Uiso   1.00
C1534  C     0.50187   0.16665   0.83616   0.00000  Uiso   1.00
C1535  C     0.42537   0.26858   0.58773   0.00000  Uiso   1.00
C1536  C     0.38444   0.28728   0.60520   0.00000  Uiso   1.00
C1537  C     0.48607   0.06231   0.87815   0.00000  Uiso   1.00
C1538  C     0.47368   0.03127   0.91618   0.00000  Uiso   1.00
C1539  C     0.43699   0.00165   0.90272   0.00000  Uiso   1.00
C1540  C     0.53780   0.26429   0.87707   0.00000  Uiso   1.00
C1541  C     0.56656   0.27032   0.91697   0.00000  Uiso   1.00
C1542  C     0.60782   0.29107   0.90255   0.00000  Uiso   1.00
C1543  C     0.51128   0.06266   0.62178   0.00000  Uiso   1.00
C1544  C     0.52078   0.02911   0.58522   0.00000  Uiso   1.00
C1545  C     0.53303   0.02407   0.76634   0.00000  Uiso   1.00
C1546  C     0.55777   0.33330   0.59821   0.00000  Uiso   1.00
C1547  C     0.38732   0.10181   0.66720   0.00000  Uiso   1.00
C1548  C     0.62778   0.27392   0.71566   0.00000  Uiso   1.00
C1549  C     0.61246   0.08196   0.68109   0.00000  Uiso   1.00
C1550  C     0.37607   0.24375   0.81744   0.00000  Uiso   1.00
C1551  C     0.46672   0.30926   0.73429   0.00000  Uiso   1.00
C1552  C     0.46681   0.02379   0.73412   0.00000  Uiso   1.00
C1553  C     0.53293   0.30953   0.76648   0.00000  Uiso   1.00
C1554  C     0.35483   0.12948   0.72768   0.00000  Uiso   1.00
H1555  H     0.55940   0.04218   0.77969   0.00000  Uiso   1.00
H1556  H     0.65679   0.19554   0.59125   0.00000  Uiso   1.00
H1557  H     0.65673   0.23237   0.54365   0.00000  Uiso   1.00
H1558  H     0.58576   0.11817   0.51534   0.00000  Uiso   1.00
H1559  H     0.58942   0.13679   0.95894   0.00000  Uiso   1.00
H1560  H     0.59975   0.05600   0.93516   0.00000  Uiso   1.00
H1561  H     0.64076   0.08111   0.96719   0.00000  Uiso   1.00
H1562  H     0.61227   0.04324   0.53538   0.00000  Uiso   1.00
H1563  H     0.62918   0.00424   0.99414   0.00000  Uiso   1.00
H1564  H     0.57444   0.01430   0.50067   0.00000  Uiso   1.00
H1565  H     0.40700   0.25520   0.99361   0.00000  Uiso   1.00
H1566  H     0.44000   0.29116   0.72178   0.00000  Uiso   1.00
H1567  H     0.42122   0.19787   0.50177   0.00000  Uiso   1.00
H1568  H     0.40108   0.24235   0.91147   0.00000  Uiso   1.00
H1569  H     0.41221   0.18341   0.92005   0.00000  Uiso   1.00
H1570  H     0.35027   0.17461   0.96728   0.00000  Uiso   1.00
H1571  H     0.33645   0.19749   0.91407   0.00000  Uiso   1.00
H1572  H     0.33877   0.23422   0.96142   0.00000  Uiso   1.00
H1573  H     0.40769   0.11494   0.98876   0.00000  Uiso   1.00
H1574  H     0.40637   0.13325   0.54508   0.00000  Uiso   1.00
H1575  H     0.40126   0.05123   0.56941   0.00000  Uiso   1.00
H1576  H     0.35731   0.07398   0.54039   0.00000  Uiso   1.00
H1577  H     0.44038   0.04163   0.72108   0.00000  Uiso   1.00
H1578  H     0.38315   0.03844   0.97016   0.00000  Uiso   1.00
H1579  H     0.37152   0.33123   0.51253   0.00000  Uiso   1.00
H1580  H     0.42485   0.01253   0.50179   0.00000  Uiso   1.00
H1581  H     0.45895   0.29443   0.64368   0.00000  Uiso   1.00
H1582  H     0.44262   0.23695   0.64906   0.00000  Uiso   1.00
H1583  H     0.43849   0.29204   0.56275   0.00000  Uiso   1.00
H1584  H     0.41897   0.23546   0.57198   0.00000  Uiso   1.00
H1585  H     0.37057   0.26343   0.62951   0.00000  Uiso   1.00
H1586  H     0.36215   0.29180   0.57775   0.00000  Uiso   1.00
H1587  H     0.38953   0.32052   0.62132   0.00000  Uiso   1.00
H1588  H     0.55903   0.29163   0.78025   0.00000  Uiso   1.00
H1589  H     0.49203   0.04119   0.84863   0.00000  Uiso   1.00
H1590  H     0.45926   0.08456   0.86973   0.00000  Uiso   1.00
H1591  H     0.50023   0.00966   0.92562   0.00000  Uiso   1.00
H1592  H     0.46478   0.05192   0.94510   0.00000  Uiso   1.00
H1593  H     0.40958   0.02285   0.89491   0.00000  Uiso   1.00
H1594  H     0.42899   0.31194   0.93021   0.00000  Uiso   1.00
H1595  H     0.44485   0.31450   0.87331   0.00000  Uiso   1.00
H1596  H     0.53487   0.29747   0.86015   0.00000  Uiso   1.00
H1597  H     0.55330   0.24117   0.85355   0.00000  Uiso   1.00
H1598  H     0.55179   0.29203   0.94218   0.00000  Uiso   1.00
H1599  H     0.58998   0.25639   0.51021   0.00000  Uiso   1.00
H1600  H     0.57307   0.23672   0.93167   0.00000  Uiso   1.00
H1601  H     0.62301   0.26903   0.87787   0.00000  Uiso   1.00
H1602  H     0.62884   0.29433   0.93128   0.00000  Uiso   1.00
H1603  H     0.60288   0.32500   0.88773   0.00000  Uiso   1.00
H1604  H     0.50718   0.04357   0.65308   0.00000  Uiso   1.00
H1605  H     0.53873   0.08530   0.62638   0.00000  Uiso   1.00
H1606  H     0.49338   0.00729   0.57913   0.00000  Uiso   1.00
H1607  H     0.52811   0.04778   0.55440   0.00000  Uiso   1.00
H1608  H     0.58551   0.02136   0.60452   0.00000  Uiso   1.00
H1609  H     0.56490   0.30989   0.57099   0.00000  Uiso   1.00
H1610  H     0.57545   0.19946   0.50018   0.00000  Uiso   1.00
H1611  H     0.55087   0.31340   0.62848   0.00000  Uiso   1.00
H1612  H     0.39856   0.07014   0.65194   0.00000  Uiso   1.00
H1613  H     0.41304   0.12687   0.66618   0.00000  Uiso   1.00
H1614  H     0.36111   0.11445   0.64669   0.00000  Uiso   1.00
H1615  H     0.61252   0.30712   0.72025   0.00000  Uiso   1.00
H1616  H     0.61090   0.25575   0.68892   0.00000  Uiso   1.00
H1617  H     0.66036   0.28089   0.70548   0.00000  Uiso   1.00
H1618  H     0.60065   0.11391   0.66609   0.00000  Uiso   1.00
H1619  H     0.58679   0.05690   0.68053   0.00000  Uiso   1.00
H1620  H     0.63793   0.06789   0.66088   0.00000  Uiso   1.00
H1621  H     0.59317   0.24106   0.59230   0.00000  Uiso   1.00
H1622  H     0.39059   0.27538   0.82967   0.00000  Uiso   1.00
H1623  H     0.39533   0.21495   0.82914   0.00000  Uiso   1.00
H1624  H     0.34444   0.24148   0.83190   0.00000  Uiso   1.00
H1625  H     0.58094   0.18258   0.58215   0.00000  Uiso   1.00
H1626  H     0.64397   0.17306   0.53771   0.00000  Uiso   1.00
N1627  N     0.50000   0.28573   0.75000   0.00000  Uiso   1.00
N1628  N     0.50000   0.04760   0.75000   0.00000  Uiso   1.00
O1629  O     0.43892   0.20487   0.74999   0.00000  Uiso   1.00
O1630  O     0.53745   0.09514   0.97637   0.00000  Uiso   1.00
O1631  O     0.46466   0.23965   0.97019   0.00000  Uiso   1.00
O1632  O     0.45903   0.09469   0.52452   0.00000  Uiso   1.00
O1633  O     0.49686   0.25017   0.61173   0.00000  Uiso   1.00
O1634  O     0.52312   0.08656   0.88747   0.00000  Uiso   1.00
O1635  O     0.49693   0.24971   0.88805   0.00000  Uiso   1.00
O1636  O     0.47396   0.08637   0.61355   0.00000  Uiso   1.00
O1637  O     0.37533   0.09224   0.71110   0.00000  Uiso   1.00
O1638  O     0.62593   0.24956   0.75579   0.00000  Uiso   1.00
O1639  O     0.62534   0.08702   0.72526   0.00000  Uiso   1.00
O1640  O     0.56108   0.12846   0.75000   0.00000  Uiso   1.00
O1641  O     0.37470   0.24558   0.77097   0.00000  Uiso   1.00
O1642  O     0.56108   0.20487   0.75000   0.00000  Uiso   1.00
O1643  O     0.43892   0.12846   0.74999   0.00000  Uiso   1.00
O1644  O     0.50000   0.20489   0.68453   0.00000  Uiso   1.00
O1645  O     0.50000   0.12845   0.81547   0.00000  Uiso   1.00
O1646  O     0.50000   0.20489   0.81547   0.00000  Uiso   1.00
O1647  O     0.50000   0.12845   0.68453   0.00000  Uiso   1.00
O1648  O     0.53111   0.24020   0.53032   0.00000  Uiso   1.00
Zn1649 Zn    0.50000   0.21771   0.75000   0.00000  Uiso   1.00
Zn1650 Zn    0.50000   0.11563   0.75000   0.00000  Uiso   1.00
C1651  C     0.75337   0.16672   0.74875   0.00000  Uiso   1.00
C1652  C     0.97914   0.20866   0.74977   0.00000  Uiso   1.00
C1653  C     0.97877   0.12818   0.73038   0.00000  Uiso   1.00
C1654  C     0.68797   0.20710   0.75584   0.00000  Uiso   1.00
C1655  C     0.84187   0.20483   0.54847   0.00000  Uiso   1.00
C1656  C     0.84994   0.12900   0.95399   0.00000  Uiso   1.00
C1657  C     0.81988   0.20422   0.95175   0.00000  Uiso   1.00
C1658  C     0.81285   0.12894   0.54675   0.00000  Uiso   1.00
C1659  C     0.83034   0.20781   0.59235   0.00000  Uiso   1.00
C1660  C     0.84672   0.12677   0.90820   0.00000  Uiso   1.00
C1661  C     0.83101   0.20737   0.90771   0.00000  Uiso   1.00
C1662  C     0.91337   0.16686   0.74806   0.00000  Uiso   1.00
C1663  C     0.81631   0.12682   0.59253   0.00000  Uiso   1.00
C1664  C     0.82512   0.16705   0.61608   0.00000  Uiso   1.00
C1665  C     0.83816   0.16690   0.88430   0.00000  Uiso   1.00
C1666  C     0.82995   0.16627   0.52431   0.00000  Uiso   1.00
C1667  C     0.83269   0.16618   0.97617   0.00000  Uiso   1.00
C1668  C     0.95752   0.16777   0.74278   0.00000  Uiso   1.00
C1669  C     0.70934   0.16752   0.74433   0.00000  Uiso   1.00
C1670  C     0.90645   0.22702   0.52456   0.00000  Uiso   1.00
C1671  C     0.92876   0.21343   0.56776   0.00000  Uiso   1.00
C1672  C     0.97441   0.20303   0.55945   0.00000  Uiso   1.00
C1673  C     0.83060   0.16671   0.66396   0.00000  Uiso   1.00
C1674  C     0.91315   0.10792   0.98065   0.00000  Uiso   1.00
C1675  C     0.94151   0.06864   0.96843   0.00000  Uiso   1.00
C1676  C     0.93898   0.03022   0.50182   0.00000  Uiso   1.00
C1677  C     0.75625   0.22623   0.97790   0.00000  Uiso   1.00
C1678  C     0.73221   0.21411   0.93548   0.00000  Uiso   1.00
C1679  C     0.68659   0.20457   0.94532   0.00000  Uiso   1.00
C1680  C     0.74935   0.10491   0.52301   0.00000  Uiso   1.00
C1681  C     0.72360   0.06372   0.53688   0.00000  Uiso   1.00
C1682  C     0.72609   0.02584   0.50313   0.00000  Uiso   1.00
C1683  C     0.78952   0.26193   0.62570   0.00000  Uiso   1.00
C1684  C     0.83520   0.16665   0.83616   0.00000  Uiso   1.00
C1685  C     0.75871   0.26858   0.58773   0.00000  Uiso   1.00
C1686  C     0.71778   0.28728   0.60520   0.00000  Uiso   1.00
C1687  C     0.81940   0.06231   0.87815   0.00000  Uiso   1.00
C1688  C     0.80702   0.03127   0.91618   0.00000  Uiso   1.00
C1689  C     0.77032   0.00165   0.90272   0.00000  Uiso   1.00
C1690  C     0.87113   0.26429   0.87707   0.00000  Uiso   1.00
C1691  C     0.89989   0.27032   0.91697   0.00000  Uiso   1.00
C1692  C     0.94115   0.29107   0.90255   0.00000  Uiso   1.00
C1693  C     0.84462   0.06266   0.62178   0.00000  Uiso   1.00
C1694  C     0.85411   0.02911   0.58522   0.00000  Uiso   1.00
C1695  C     0.86637   0.02407   0.76634   0.00000  Uiso   1.00
C1696  C     0.89111   0.33330   0.59821   0.00000  Uiso   1.00
C1697  C     0.72065   0.10181   0.66720   0.00000  Uiso   1.00
C1698  C     0.96111   0.27392   0.71566   0.00000  Uiso   1.00
C1699  C     0.94579   0.08196   0.68109   0.00000  Uiso   1.00
C1700  C     0.70941   0.24375   0.81744   0.00000  Uiso   1.00
C1701  C     0.80005   0.30926   0.73429   0.00000  Uiso   1.00
C1702  C     0.80014   0.02379   0.73412   0.00000  Uiso   1.00
C1703  C     0.86626   0.30953   0.76648   0.00000  Uiso   1.00
C1704  C     0.68817   0.12948   0.72768   0.00000  Uiso   1.00
H1705  H     0.89273   0.04218   0.77969   0.00000  Uiso   1.00
H1706  H     0.99013   0.19554   0.59125   0.00000  Uiso   1.00
H1707  H     0.99007   0.23237   0.54365   0.00000  Uiso   1.00
H1708  H     0.91909   0.11817   0.51534   0.00000  Uiso   1.00
H1709  H     0.92275   0.13679   0.95894   0.00000  Uiso   1.00
H1710  H     0.93308   0.05600   0.93516   0.00000  Uiso   1.00
H1711  H     0.97409   0.08111   0.96719   0.00000  Uiso   1.00
H1712  H     0.94560   0.04324   0.53538   0.00000  Uiso   1.00
H1713  H     0.96252   0.00424   0.99414   0.00000  Uiso   1.00
H1714  H     0.90778   0.01430   0.50067   0.00000  Uiso   1.00
H1715  H     0.74033   0.25520   0.99361   0.00000  Uiso   1.00
H1716  H     0.77333   0.29116   0.72178   0.00000  Uiso   1.00
H1717  H     0.75455   0.19787   0.50177   0.00000  Uiso   1.00
H1718  H     0.73442   0.24235   0.91147   0.00000  Uiso   1.00
H1719  H     0.74554   0.18341   0.92005   0.00000  Uiso   1.00
H1720  H     0.68360   0.17461   0.96728   0.00000  Uiso   1.00
H1721  H     0.66979   0.19749   0.91407   0.00000  Uiso   1.00
H1722  H     0.67211   0.23422   0.96142   0.00000  Uiso   1.00
H1723  H     0.74102   0.11494   0.98876   0.00000  Uiso   1.00
H1724  H     0.73970   0.13325   0.54508   0.00000  Uiso   1.00
H1725  H     0.73459   0.05123   0.56941   0.00000  Uiso   1.00
H1726  H     0.69064   0.07398   0.54039   0.00000  Uiso   1.00
H1727  H     0.77371   0.04163   0.72108   0.00000  Uiso   1.00
H1728  H     0.71648   0.03844   0.97016   0.00000  Uiso   1.00
H1729  H     0.70485   0.33123   0.51253   0.00000  Uiso   1.00
H1730  H     0.75818   0.01253   0.50179   0.00000  Uiso   1.00
H1731  H     0.79228   0.29443   0.64368   0.00000  Uiso   1.00
H1732  H     0.77595   0.23695   0.64906   0.00000  Uiso   1.00
H1733  H     0.77182   0.29204   0.56275   0.00000  Uiso   1.00
H1734  H     0.75230   0.23546   0.57198   0.00000  Uiso   1.00
H1735  H     0.70390   0.26343   0.62951   0.00000  Uiso   1.00
H1736  H     0.69548   0.29180   0.57775   0.00000  Uiso   1.00
H1737  H     0.72286   0.32052   0.62132   0.00000  Uiso   1.00
H1738  H     0.89237   0.29163   0.78025   0.00000  Uiso   1.00
H1739  H     0.82537   0.04119   0.84863   0.00000  Uiso   1.00
H1740  H     0.79259   0.08456   0.86973   0.00000  Uiso   1.00
H1741  H     0.83356   0.00966   0.92562   0.00000  Uiso   1.00
H1742  H     0.79812   0.05192   0.94510   0.00000  Uiso   1.00
H1743  H     0.74291   0.02285   0.89491   0.00000  Uiso   1.00
H1744  H     0.76232   0.31194   0.93021   0.00000  Uiso   1.00
H1745  H     0.77818   0.31450   0.87331   0.00000  Uiso   1.00
H1746  H     0.86820   0.29747   0.86015   0.00000  Uiso   1.00
H1747  H     0.88663   0.24117   0.85355   0.00000  Uiso   1.00
H1748  H     0.88513   0.29203   0.94218   0.00000  Uiso   1.00
H1749  H     0.92331   0.25639   0.51021   0.00000  Uiso   1.00
H1750  H     0.90640   0.23672   0.93167   0.00000  Uiso   1.00
H1751  H     0.95634   0.26903   0.87787   0.00000  Uiso   1.00
H1752  H     0.96217   0.29433   0.93128   0.00000  Uiso   1.00
H1753  H     0.93622   0.32500   0.88773   0.00000  Uiso   1.00
H1754  H     0.84051   0.04357   0.65308   0.00000  Uiso   1.00
H1755  H     0.87206   0.08530   0.62638   0.00000  Uiso   1.00
H1756  H     0.82671   0.00729   0.57913   0.00000  Uiso   1.00
H1757  H     0.86144   0.04778   0.55440   0.00000  Uiso   1.00
H1758  H     0.91884   0.02136   0.60452   0.00000  Uiso   1.00
H1759  H     0.89824   0.30989   0.57099   0.00000  Uiso   1.00
H1760  H     0.90879   0.19946   0.50018   0.00000  Uiso   1.00
H1761  H     0.88420   0.31340   0.62848   0.00000  Uiso   1.00
H1762  H     0.73190   0.07014   0.65194   0.00000  Uiso   1.00
H1763  H     0.74637   0.12687   0.66618   0.00000  Uiso   1.00
H1764  H     0.69444   0.11445   0.64669   0.00000  Uiso   1.00
H1765  H     0.94586   0.30712   0.72025   0.00000  Uiso   1.00
H1766  H     0.94424   0.25575   0.68892   0.00000  Uiso   1.00
H1767  H     0.99369   0.28089   0.70548   0.00000  Uiso   1.00
H1768  H     0.93398   0.11391   0.66609   0.00000  Uiso   1.00
H1769  H     0.92012   0.05690   0.68053   0.00000  Uiso   1.00
H1770  H     0.97126   0.06789   0.66088   0.00000  Uiso   1.00
H1771  H     0.92651   0.24106   0.59230   0.00000  Uiso   1.00
H1772  H     0.72392   0.27538   0.82967   0.00000  Uiso   1.00
H1773  H     0.72866   0.21495   0.82914   0.00000  Uiso   1.00
H1774  H     0.67778   0.24148   0.83190   0.00000  Uiso   1.00
H1775  H     0.91428   0.18258   0.58215   0.00000  Uiso   1.00
H1776  H     0.97731   0.17306   0.53771   0.00000  Uiso   1.00
N1777  N     0.83333   0.28573   0.75000   0.00000  Uiso   1.00
N1778  N     0.83333   0.04760   0.75000   0.00000  Uiso   1.00
O1779  O     0.77226   0.20487   0.74999   0.00000  Uiso   1.00
O1780  O     0.87079   0.09514   0.97637   0.00000  Uiso   1.00
O1781  O     0.79800   0.23965   0.97019   0.00000  Uiso   1.00
O1782  O     0.79237   0.09469   0.52452   0.00000  Uiso   1.00
O1783  O     0.83019   0.25017   0.61173   0.00000  Uiso   1.00
O1784  O     0.85645   0.08656   0.88747   0.00000  Uiso   1.00
O1785  O     0.83026   0.24971   0.88805   0.00000  Uiso   1.00
O1786  O     0.80729   0.08637   0.61355   0.00000  Uiso   1.00
O1787  O     0.70866   0.09224   0.71110   0.00000  Uiso   1.00
O1788  O     0.95926   0.24956   0.75579   0.00000  Uiso   1.00
O1789  O     0.95868   0.08702   0.72526   0.00000  Uiso   1.00
O1790  O     0.89441   0.12846   0.75000   0.00000  Uiso   1.00
O1791  O     0.70803   0.24558   0.77097   0.00000  Uiso   1.00
O1792  O     0.89441   0.20487   0.75000   0.00000  Uiso   1.00
O1793  O     0.77226   0.12846   0.74999   0.00000  Uiso   1.00
O1794  O     0.83333   0.20489   0.68453   0.00000  Uiso   1.00
O1795  O     0.83334   0.12845   0.81547   0.00000  Uiso   1.00
O1796  O     0.83334   0.20489   0.81547   0.00000  Uiso   1.00
O1797  O     0.83333   0.12845   0.68453   0.00000  Uiso   1.00
O1798  O     0.86445   0.24020   0.53032   0.00000  Uiso   1.00
Zn1799 Zn    0.83333   0.21771   0.75000   0.00000  Uiso   1.00
Zn1800 Zn    0.83333   0.11563   0.75000   0.00000  Uiso   1.00
C1801  C     0.08670   0.50005   0.74875   0.00000  Uiso   1.00
C1802  C     0.31247   0.54199   0.74977   0.00000  Uiso   1.00
C1803  C     0.31210   0.46151   0.73038   0.00000  Uiso   1.00
C1804  C     0.02131   0.54043   0.75584   0.00000  Uiso   1.00
C1805  C     0.17521   0.53816   0.54847   0.00000  Uiso   1.00
C1806  C     0.18327   0.46233   0.95399   0.00000  Uiso   1.00
C1807  C     0.15322   0.53755   0.95175   0.00000  Uiso   1.00
C1808  C     0.14619   0.46227   0.54675   0.00000  Uiso   1.00
C1809  C     0.16367   0.54114   0.59235   0.00000  Uiso   1.00
C1810  C     0.18005   0.46011   0.90820   0.00000  Uiso   1.00
C1811  C     0.16435   0.54070   0.90771   0.00000  Uiso   1.00
C1812  C     0.24670   0.50020   0.74806   0.00000  Uiso   1.00
C1813  C     0.14964   0.46015   0.59253   0.00000  Uiso   1.00
C1814  C     0.15845   0.50038   0.61608   0.00000  Uiso   1.00
C1815  C     0.17149   0.50023   0.88430   0.00000  Uiso   1.00
C1816  C     0.16329   0.49960   0.52431   0.00000  Uiso   1.00
C1817  C     0.16603   0.49952   0.97617   0.00000  Uiso   1.00
C1818  C     0.29085   0.50111   0.74278   0.00000  Uiso   1.00
C1819  C     0.04267   0.50086   0.74433   0.00000  Uiso   1.00
C1820  C     0.23978   0.56036   0.52456   0.00000  Uiso   1.00
C1821  C     0.26209   0.54676   0.56776   0.00000  Uiso   1.00
C1822  C     0.30774   0.53637   0.55945   0.00000  Uiso   1.00
C1823  C     0.16393   0.50004   0.66396   0.00000  Uiso   1.00
C1824  C     0.24648   0.44125   0.98065   0.00000  Uiso   1.00
C1825  C     0.27485   0.40197   0.96843   0.00000  Uiso   1.00
C1826  C     0.27232   0.36355   0.50182   0.00000  Uiso   1.00
C1827  C     0.08958   0.55957   0.97790   0.00000  Uiso   1.00
C1828  C     0.06555   0.54745   0.93548   0.00000  Uiso   1.00
C1829  C     0.01992   0.53790   0.94532   0.00000  Uiso   1.00
C1830  C     0.08268   0.43824   0.52301   0.00000  Uiso   1.00
C1831  C     0.05694   0.39706   0.53688   0.00000  Uiso   1.00
C1832  C     0.05942   0.35918   0.50313   0.00000  Uiso   1.00
C1833  C     0.12285   0.59526   0.62570   0.00000  Uiso   1.00
C1834  C     0.16853   0.49998   0.83616   0.00000  Uiso   1.00
C1835  C     0.09204   0.60191   0.58773   0.00000  Uiso   1.00
C1836  C     0.05111   0.62061   0.60520   0.00000  Uiso   1.00
C1837  C     0.15274   0.39564   0.87815   0.00000  Uiso   1.00
C1838  C     0.14035   0.36461   0.91618   0.00000  Uiso   1.00
C1839  C     0.10366   0.33498   0.90272   0.00000  Uiso   1.00
C1840  C     0.20446   0.59762   0.87707   0.00000  Uiso   1.00
C1841  C     0.23322   0.60365   0.91697   0.00000  Uiso   1.00
C1842  C     0.27449   0.62441   0.90255   0.00000  Uiso   1.00
C1843  C     0.17795   0.39599   0.62178   0.00000  Uiso   1.00
C1844  C     0.18744   0.36245   0.58522   0.00000  Uiso   1.00
C1845  C     0.19970   0.35741   0.76634   0.00000  Uiso   1.00
C1846  C     0.22444   0.66663   0.59821   0.00000  Uiso   1.00
C1847  C     0.05398   0.43515   0.66720   0.00000  Uiso   1.00
C1848  C     0.29444   0.60726   0.71566   0.00000  Uiso   1.00
C1849  C     0.27912   0.41529   0.68109   0.00000  Uiso   1.00
C1850  C     0.04274   0.57709   0.81744   0.00000  Uiso   1.00
C1851  C     0.13339   0.64259   0.73429   0.00000  Uiso   1.00
C1852  C     0.13347   0.35712   0.73412   0.00000  Uiso   1.00
C1853  C     0.19960   0.64286   0.76648   0.00000  Uiso   1.00
C1854  C     0.02150   0.46282   0.72768   0.00000  Uiso   1.00
H1855  H     0.22606   0.37551   0.77969   0.00000  Uiso   1.00
H1856  H     0.32346   0.52887   0.59125   0.00000  Uiso   1.00
H1857  H     0.32340   0.56570   0.54365   0.00000  Uiso   1.00
H1858  H     0.25243   0.45150   0.51534   0.00000  Uiso   1.00
H1859  H     0.25608   0.47013   0.95894   0.00000  Uiso   1.00
H1860  H     0.26642   0.38933   0.93516   0.00000  Uiso   1.00
H1861  H     0.30743   0.41444   0.96719   0.00000  Uiso   1.00
H1862  H     0.27894   0.37657   0.53538   0.00000  Uiso   1.00
H1863  H     0.29585   0.33757   0.99414   0.00000  Uiso   1.00
H1864  H     0.24111   0.34764   0.50067   0.00000  Uiso   1.00
H1865  H     0.07366   0.58853   0.99361   0.00000  Uiso   1.00
H1866  H     0.10666   0.62449   0.72178   0.00000  Uiso   1.00
H1867  H     0.08788   0.53121   0.50177   0.00000  Uiso   1.00
H1868  H     0.06775   0.57569   0.91147   0.00000  Uiso   1.00
H1869  H     0.07887   0.51674   0.92005   0.00000  Uiso   1.00
H1870  H     0.01693   0.50794   0.96728   0.00000  Uiso   1.00
H1871  H     0.00312   0.53082   0.91407   0.00000  Uiso   1.00
H1872  H     0.00544   0.56755   0.96142   0.00000  Uiso   1.00
H1873  H     0.07436   0.44827   0.98876   0.00000  Uiso   1.00
H1874  H     0.07304   0.46659   0.54508   0.00000  Uiso   1.00
H1875  H     0.06793   0.38456   0.56941   0.00000  Uiso   1.00
H1876  H     0.02397   0.40731   0.54039   0.00000  Uiso   1.00
H1877  H     0.10705   0.37496   0.72108   0.00000  Uiso   1.00
H1878  H     0.04981   0.37177   0.97016   0.00000  Uiso   1.00
H1879  H     0.03818   0.66457   0.51253   0.00000  Uiso   1.00
H1880  H     0.09151   0.34587   0.50179   0.00000  Uiso   1.00
H1881  H     0.12562   0.62776   0.64368   0.00000  Uiso   1.00
H1882  H     0.10928   0.57028   0.64906   0.00000  Uiso   1.00
H1883  H     0.10516   0.62538   0.56275   0.00000  Uiso   1.00
H1884  H     0.08564   0.56879   0.57198   0.00000  Uiso   1.00
H1885  H     0.03724   0.59676   0.62951   0.00000  Uiso   1.00
H1886  H     0.02882   0.62513   0.57775   0.00000  Uiso   1.00
H1887  H     0.05620   0.65385   0.62132   0.00000  Uiso   1.00
H1888  H     0.22570   0.62496   0.78025   0.00000  Uiso   1.00
H1889  H     0.15870   0.37452   0.84863   0.00000  Uiso   1.00
H1890  H     0.12593   0.41789   0.86973   0.00000  Uiso   1.00
H1891  H     0.16689   0.34300   0.92562   0.00000  Uiso   1.00
H1892  H     0.13145   0.38526   0.94510   0.00000  Uiso   1.00
H1893  H     0.07624   0.35619   0.89491   0.00000  Uiso   1.00
H1894  H     0.09566   0.64527   0.93021   0.00000  Uiso   1.00
H1895  H     0.11151   0.64783   0.87331   0.00000  Uiso   1.00
H1896  H     0.20153   0.63080   0.86015   0.00000  Uiso   1.00
H1897  H     0.21996   0.57451   0.85355   0.00000  Uiso   1.00
H1898  H     0.21846   0.62536   0.94218   0.00000  Uiso   1.00
H1899  H     0.25665   0.58972   0.51021   0.00000  Uiso   1.00
H1900  H     0.23973   0.57005   0.93167   0.00000  Uiso   1.00
H1901  H     0.28968   0.60236   0.87787   0.00000  Uiso   1.00
H1902  H     0.29550   0.62766   0.93128   0.00000  Uiso   1.00
H1903  H     0.26955   0.65834   0.88773   0.00000  Uiso   1.00
H1904  H     0.17385   0.37691   0.65308   0.00000  Uiso   1.00
H1905  H     0.20539   0.41863   0.62638   0.00000  Uiso   1.00
H1906  H     0.16004   0.34062   0.57913   0.00000  Uiso   1.00
H1907  H     0.19477   0.38111   0.55440   0.00000  Uiso   1.00
H1908  H     0.25217   0.35469   0.60452   0.00000  Uiso   1.00
H1909  H     0.23157   0.64322   0.57099   0.00000  Uiso   1.00
H1910  H     0.24212   0.53280   0.50018   0.00000  Uiso   1.00
H1911  H     0.21754   0.64674   0.62848   0.00000  Uiso   1.00
H1912  H     0.06523   0.40347   0.65194   0.00000  Uiso   1.00
H1913  H     0.07970   0.46020   0.66618   0.00000  Uiso   1.00
H1914  H     0.02778   0.44778   0.64669   0.00000  Uiso   1.00
H1915  H     0.27919   0.64045   0.72025   0.00000  Uiso   1.00
H1916  H     0.27757   0.58908   0.68892   0.00000  Uiso   1.00
H1917  H     0.32703   0.61422   0.70548   0.00000  Uiso   1.00
H1918  H     0.26731   0.44724   0.66609   0.00000  Uiso   1.00
H1919  H     0.25345   0.39024   0.68053   0.00000  Uiso   1.00
H1920  H     0.30459   0.40122   0.66088   0.00000  Uiso   1.00
H1921  H     0.25984   0.57439   0.59230   0.00000  Uiso   1.00
H1922  H     0.05725   0.60871   0.82967   0.00000  Uiso   1.00
H1923  H     0.06200   0.54828   0.82914   0.00000  Uiso   1.00
H1924  H     0.01111   0.57482   0.83190   0.00000  Uiso   1.00
H1925  H     0.24761   0.51592   0.58215   0.00000  Uiso   1.00
H1926  H     0.31064   0.50640   0.53771   0.00000  Uiso   1.00
N1927  N     0.16667   0.61907   0.75000   0.00000  Uiso   1.00
N1928  N     0.16667   0.38093   0.75000   0.00000  Uiso   1.00
O1929  O     0.10559   0.53821   0.74999   0.00000  Uiso   1.00
O1930  O     0.20412   0.42848   0.97637   0.00000  Uiso   1.00
O1931  O     0.13133   0.57298   0.97019   0.00000  Uiso   1.00
O1932  O     0.12570   0.42803   0.52452   0.00000  Uiso   1.00
O1933  O     0.16353   0.58350   0.61173   0.00000  Uiso   1.00
O1934  O     0.18978   0.41989   0.88747   0.00000  Uiso   1.00
O1935  O     0.16360   0.58304   0.88805   0.00000  Uiso   1.00
O1936  O     0.14062   0.41970   0.61355   0.00000  Uiso   1.00
O1937  O     0.04200   0.42558   0.71110   0.00000  Uiso   1.00
O1938  O     0.29260   0.58289   0.75579   0.00000  Uiso   1.00
O1939  O     0.29201   0.42035   0.72526   0.00000  Uiso   1.00
O1940  O     0.22774   0.46179   0.75000   0.00000  Uiso   1.00
O1941  O     0.04137   0.57891   0.77097   0.00000  Uiso   1.00
O1942  O     0.22774   0.53821   0.75000   0.00000  Uiso   1.00
O1943  O     0.10559   0.46179   0.74999   0.00000  Uiso   1.00
O1944  O     0.16666   0.53822   0.68453   0.00000  Uiso   1.00
O1945  O     0.16667   0.46178   0.81547   0.00000  Uiso   1.00
O1946  O     0.16667   0.53822   0.81547   0.00000  Uiso   1.00
O1947  O     0.16666   0.46178   0.68453   0.00000  Uiso   1.00
O1948  O     0.19778   0.57353   0.53032   0.00000  Uiso   1.00
Zn1949 Zn    0.16667   0.55104   0.75000   0.00000  Uiso   1.00
Zn1950 Zn    0.16667   0.44896   0.75000   0.00000  Uiso   1.00
C1951  C     0.42004   0.50005   0.74875   0.00000  Uiso   1.00
C1952  C     0.64581   0.54199   0.74977   0.00000  Uiso   1.00
C1953  C     0.64544   0.46151   0.73038   0.00000  Uiso   1.00
C1954  C     0.35464   0.54043   0.75584   0.00000  Uiso   1.00
C1955  C     0.50854   0.53816   0.54847   0.00000  Uiso   1.00
C1956  C     0.51660   0.46233   0.95399   0.00000  Uiso   1.00
C1957  C     0.48655   0.53755   0.95175   0.00000  Uiso   1.00
C1958  C     0.47952   0.46227   0.54675   0.00000  Uiso   1.00
C1959  C     0.49701   0.54114   0.59235   0.00000  Uiso   1.00
C1960  C     0.51338   0.46011   0.90820   0.00000  Uiso   1.00
C1961  C     0.49768   0.54070   0.90771   0.00000  Uiso   1.00
C1962  C     0.58003   0.50020   0.74806   0.00000  Uiso   1.00
C1963  C     0.48297   0.46015   0.59253   0.00000  Uiso   1.00
C1964  C     0.49178   0.50038   0.61608   0.00000  Uiso   1.00
C1965  C     0.50482   0.50023   0.88430   0.00000  Uiso   1.00
C1966  C     0.49662   0.49960   0.52431   0.00000  Uiso   1.00
C1967  C     0.49936   0.49952   0.97617   0.00000  Uiso   1.00
C1968  C     0.62419   0.50111   0.74278   0.00000  Uiso   1.00
C1969  C     0.37601   0.50086   0.74433   0.00000  Uiso   1.00
C1970  C     0.57312   0.56036   0.52456   0.00000  Uiso   1.00
C1971  C     0.59542   0.54676   0.56776   0.00000  Uiso   1.00
C1972  C     0.64107   0.53637   0.55945   0.00000  Uiso   1.00
C1973  C     0.49727   0.50004   0.66396   0.00000  Uiso   1.00
C1974  C     0.57982   0.44125   0.98065   0.00000  Uiso   1.00
C1975  C     0.60818   0.40197   0.96843   0.00000  Uiso   1.00
C1976  C     0.60565   0.36355   0.50182   0.00000  Uiso   1.00
C1977  C     0.42292   0.55957   0.97790   0.00000  Uiso   1.00
C1978  C     0.39888   0.54745   0.93548   0.00000  Uiso   1.00
C1979  C     0.35325   0.53790   0.94532   0.00000  Uiso   1.00
C1980  C     0.41602   0.43824   0.52301   0.00000  Uiso   1.00
C1981  C     0.39027   0.39706   0.53688   0.00000  Uiso   1.00
C1982  C     0.39275   0.35918   0.50313   0.00000  Uiso   1.00
C1983  C     0.45618   0.59526   0.62570   0.00000  Uiso   1.00
C1984  C     0.50187   0.49998   0.83616   0.00000  Uiso   1.00
C1985  C     0.42537   0.60191   0.58773   0.00000  Uiso   1.00
C1986  C     0.38444   0.62061   0.60520   0.00000  Uiso   1.00
C1987  C     0.48607   0.39564   0.87815   0.00000  Uiso   1.00
C1988  C     0.47368   0.36461   0.91618   0.00000  Uiso   1.00
C1989  C     0.43699   0.33498   0.90272   0.00000  Uiso   1.00
C1990  C     0.53780   0.59762   0.87707   0.00000  Uiso   1.00
C1991  C     0.56656   0.60365   0.91697   0.00000  Uiso   1.00
C1992  C     0.60782   0.62441   0.90255   0.00000  Uiso   1.00
C1993  C     0.51128   0.39599   0.62178   0.00000  Uiso   1.00
C1994  C     0.52078   0.36245   0.58522   0.00000  Uiso   1.00
C1995  C     0.53303   0.35741   0.76634   0.00000  Uiso   1.00
C1996  C     0.55777   0.66663   0.59821   0.00000  Uiso   1.00
C1997  C     0.38732   0.43515   0.66720   0.00000  Uiso   1.00
C1998  C     0.62778   0.60726   0.71566   0.00000  Uiso   1.00
C1999  C     0.61246   0.41529   0.68109   0.00000  Uiso   1.00
C2000  C     0.37607   0.57709   0.81744   0.00000  Uiso   1.00
C2001  C     0.46672   0.64259   0.73429   0.00000  Uiso   1.00
C2002  C     0.46681   0.35712   0.73412   0.00000  Uiso   1.00
C2003  C     0.53293   0.64286   0.76648   0.00000  Uiso   1.00
C2004  C     0.35483   0.46282   0.72768   0.00000  Uiso   1.00
H2005  H     0.55940   0.37551   0.77969   0.00000  Uiso   1.00
H2006  H     0.65679   0.52887   0.59125   0.00000  Uiso   1.00
H2007  H     0.65673   0.56570   0.54365   0.00000  Uiso   1.00
H2008  H     0.58576   0.45150   0.51534   0.00000  Uiso   1.00
H2009  H     0.58942   0.47013   0.95894   0.00000  Uiso   1.00
H2010  H     0.59975   0.38933   0.93516   0.00000  Uiso   1.00
H2011  H     0.64076   0.41444   0.96719   0.00000  Uiso   1.00
H2012  H     0.61227   0.37657   0.53538   0.00000  Uiso   1.00
H2013  H     0.62918   0.33757   0.99414   0.00000  Uiso   1.00
H2014  H     0.57444   0.34764   0.50067   0.00000  Uiso   1.00
H2015  H     0.40700   0.58853   0.99361   0.00000  Uiso   1.00
H2016  H     0.44000   0.62449   0.72178   0.00000  Uiso   1.00
H2017  H     0.42122   0.53121   0.50177   0.00000  Uiso   1.00
H2018  H     0.40108   0.57569   0.91147   0.00000  Uiso   1.00
H2019  H     0.41221   0.51674   0.92005   0.00000  Uiso   1.00
H2020  H     0.35027   0.50794   0.96728   0.00000  Uiso   1.00
H2021  H     0.33645   0.53082   0.91407   0.00000  Uiso   1.00
H2022  H     0.33877   0.56755   0.96142   0.00000  Uiso   1.00
H2023  H     0.40769   0.44827   0.98876   0.00000  Uiso   1.00
H2024  H     0.40637   0.46659   0.54508   0.00000  Uiso   1.00
H2025  H     0.40126   0.38456   0.56941   0.00000  Uiso   1.00
H2026  H     0.35731   0.40731   0.54039   0.00000  Uiso   1.00
H2027  H     0.44038   0.37496   0.72108   0.00000  Uiso   1.00
H2028  H     0.38315   0.37177   0.97016   0.00000  Uiso   1.00
H2029  H     0.37152   0.66457   0.51253   0.00000  Uiso   1.00
H2030  H     0.42485   0.34587   0.50179   0.00000  Uiso   1.00
H2031  H     0.45895   0.62776   0.64368   0.00000  Uiso   1.00
H2032  H     0.44262   0.57028   0.64906   0.00000  Uiso   1.00
H2033  H     0.43849   0.62538   0.56275   0.00000  Uiso   1.00
H2034  H     0.41897   0.56879   0.57198   0.00000  Uiso   1.00
H2035  H     0.37057   0.59676   0.62951   0.00000  Uiso   1.00
H2036  H     0.36215   0.62513   0.57775   0.00000  Uiso   1.00
H2037  H     0.38953   0.65385   0.62132   0.00000  Uiso   1.00
H2038  H     0.55903   0.62496   0.78025   0.00000  Uiso   1.00
H2039  H     0.49203   0.37452   0.84863   0.00000  Uiso   1.00
H2040  H     0.45926   0.41789   0.86973   0.00000  Uiso   1.00
H2041  H     0.50023   0.34300   0.92562   0.00000  Uiso   1.00
H2042  H     0.46478   0.38526   0.94510   0.00000  Uiso   1.00
H2043  H     0.40958   0.35619   0.89491   0.00000  Uiso   1.00
H2044  H     0.42899   0.64527   0.93021   0.00000  Uiso   1.00
H2045  H     0.44485   0.64783   0.87331   0.00000  Uiso   1.00
H2046  H     0.53487   0.63080   0.86015   0.00000  Uiso   1.00
H2047  H     0.55330   0.57451   0.85355   0.00000  Uiso   1.00
H2048  H     0.55179   0.62536   0.94218   0.00000  Uiso   1.00
H2049  H     0.58998   0.58972   0.51021   0.00000  Uiso   1.00
H2050  H     0.57307   0.57005   0.93167   0.00000  Uiso   1.00
H2051  H     0.62301   0.60236   0.87787   0.00000  Uiso   1.00
H2052  H     0.62884   0.62766   0.93128   0.00000  Uiso   1.00
H2053  H     0.60288   0.65834   0.88773   0.00000  Uiso   1.00
H2054  H     0.50718   0.37691   0.65308   0.00000  Uiso   1.00
H2055  H     0.53873   0.41863   0.62638   0.00000  Uiso   1.00
H2056  H     0.49338   0.34062   0.57913   0.00000  Uiso   1.00
H2057  H     0.52811   0.38111   0.55440   0.00000  Uiso   1.00
H2058  H     0.58551   0.35469   0.60452   0.00000  Uiso   1.00
H2059  H     0.56490   0.64322   0.57099   0.00000  Uiso   1.00
H2060  H     0.57545   0.53280   0.50018   0.00000  Uiso   1.00
H2061  H     0.55087   0.64674   0.62848   0.00000  Uiso   1.00
H2062  H     0.39856   0.40347   0.65194   0.00000  Uiso   1.00
H2063  H     0.41304   0.46020   0.66618   0.00000  Uiso   1.00
H2064  H     0.36111   0.44778   0.64669   0.00000  Uiso   1.00
H2065  H     0.61252   0.64045   0.72025   0.00000  Uiso   1.00
H2066  H     0.61090   0.58908   0.68892   0.00000  Uiso   1.00
H2067  H     0.66036   0.61422   0.70548   0.00000  Uiso   1.00
H2068  H     0.60065   0.44724   0.66609   0.00000  Uiso   1.00
H2069  H     0.58679   0.39024   0.68053   0.00000  Uiso   1.00
H2070  H     0.63793   0.40122   0.66088   0.00000  Uiso   1.00
H2071  H     0.59317   0.57439   0.59230   0.00000  Uiso   1.00
H2072  H     0.39059   0.60871   0.82967   0.00000  Uiso   1.00
H2073  H     0.39533   0.54828   0.82914   0.00000  Uiso   1.00
H2074  H     0.34444   0.57482   0.83190   0.00000  Uiso   1.00
H2075  H     0.58094   0.51592   0.58215   0.00000  Uiso   1.00
H2076  H     0.64397   0.50640   0.53771   0.00000  Uiso   1.00
N2077  N     0.50000   0.61907   0.75000   0.00000  Uiso   1.00
N2078  N     0.50000   0.38093   0.75000   0.00000  Uiso   1.00
O2079  O     0.43892   0.53821   0.74999   0.00000  Uiso   1.00
O2080  O     0.53745   0.42848   0.97637   0.00000  Uiso   1.00
O2081  O     0.46466   0.57298   0.97019   0.00000  Uiso   1.00
O2082  O     0.45903   0.42803   0.52452   0.00000  Uiso   1.00
O2083  O     0.49686   0.58350   0.61173   0.00000  Uiso   1.00
O2084  O     0.52312   0.41989   0.88747   0.00000  Uiso   1.00
O2085  O     0.49693   0.58304   0.88805   0.00000  Uiso   1.00
O2086  O     0.47396   0.41970   0.61355   0.00000  Uiso   1.00
O2087  O     0.37533   0.42558   0.71110   0.00000  Uiso   1.00
O2088  O     0.62593   0.58289   0.75579   0.00000  Uiso   1.00
O2089  O     0.62534   0.42035   0.72526   0.00000  Uiso   1.00
O2090  O     0.56108   0.46179   0.75000   0.00000  Uiso   1.00
O2091  O     0.37470   0.57891   0.77097   0.00000  Uiso   1.00
O2092  O     0.56108   0.53821   0.75000   0.00000  Uiso   1.00
O2093  O     0.43892   0.46179   0.74999   0.00000  Uiso   1.00
O2094  O     0.50000   0.53822   0.68453   0.00000  Uiso   1.00
O2095  O     0.50000   0.46178   0.81547   0.00000  Uiso   1.00
O2096  O     0.50000   0.53822   0.81547   0.00000  Uiso   1.00
O2097  O     0.50000   0.46178   0.68453   0.00000  Uiso   1.00
O2098  O     0.53111   0.57353   0.53032   0.00000  Uiso   1.00
Zn2099 Zn    0.50000   0.55104   0.75000   0.00000  Uiso   1.00
Zn2100 Zn    0.50000   0.44896   0.75000   0.00000  Uiso   1.00
C2101  C     0.75337   0.50005   0.74875   0.00000  Uiso   1.00
C2102  C     0.97914   0.54199   0.74977   0.00000  Uiso   1.00
C2103  C     0.97877   0.46151   0.73038   0.00000  Uiso   1.00
C2104  C     0.68797   0.54043   0.75584   0.00000  Uiso   1.00
C2105  C     0.84187   0.53816   0.54847   0.00000  Uiso   1.00
C2106  C     0.84994   0.46233   0.95399   0.00000  Uiso   1.00
C2107  C     0.81988   0.53755   0.95175   0.00000  Uiso   1.00
C2108  C     0.81285   0.46227   0.54675   0.00000  Uiso   1.00
C2109  C     0.83034   0.54114   0.59235   0.00000  Uiso   1.00
C2110  C     0.84672   0.46011   0.90820   0.00000  Uiso   1.00
C2111  C     0.83101   0.54070   0.90771   0.00000  Uiso   1.00
C2112  C     0.91337   0.50020   0.74806   0.00000  Uiso   1.00
C2113  C     0.81631   0.46015   0.59253   0.00000  Uiso   1.00
C2114  C     0.82512   0.50038   0.61608   0.00000  Uiso   1.00
C2115  C     0.83816   0.50023   0.88430   0.00000  Uiso   1.00
C2116  C     0.82995   0.49960   0.52431   0.00000  Uiso   1.00
C2117  C     0.83269   0.49952   0.97617   0.00000  Uiso   1.00
C2118  C     0.95752   0.50111   0.74278   0.00000  Uiso   1.00
C2119  C     0.70934   0.50086   0.74433   0.00000  Uiso   1.00
C2120  C     0.90645   0.56036   0.52456   0.00000  Uiso   1.00
C2121  C     0.92876   0.54676   0.56776   0.00000  Uiso   1.00
C2122  C     0.97441   0.53637   0.55945   0.00000  Uiso   1.00
C2123  C     0.83060   0.50004   0.66396   0.00000  Uiso   1.00
C2124  C     0.91315   0.44125   0.98065   0.00000  Uiso   1.00
C2125  C     0.94151   0.40197   0.96843   0.00000  Uiso   1.00
C2126  C     0.93898   0.36355   0.50182   0.00000  Uiso   1.00
C2127  C     0.75625   0.55957   0.97790   0.00000  Uiso   1.00
C2128  C     0.73221   0.54745   0.93548   0.00000  Uiso   1.00
C2129  C     0.68659   0.53790   0.94532   0.00000  Uiso   1.00
C2130  C     0.74935   0.43824   0.52301   0.00000  Uiso   1.00
C2131  C     0.72360   0.39706   0.53688   0.00000  Uiso   1.00
C2132  C     0.72609   0.35918   0.50313   0.00000  Uiso   1.00
C2133  C     0.78952   0.59526   0.62570   0.00000  Uiso   1.00
C2134  C     0.83520   0.49998   0.83616   0.00000  Uiso   1.00
C2135  C     0.75871   0.60191   0.58773   0.00000  Uiso   1.00
C2136  C     0.71778   0.62061   0.60520   0.00000  Uiso   1.00
C2137  C     0.81940   0.39564   0.87815   0.00000  Uiso   1.00
C2138  C     0.80702   0.36461   0.91618   0.00000  Uiso   1.00
C2139  C     0.77032   0.33498   0.90272   0.00000  Uiso   1.00
C2140  C     0.87113   0.59762   0.87707   0.00000  Uiso   1.00
C2141  C     0.89989   0.60365   0.91697   0.00000  Uiso   1.00
C2142  C     0.94115   0.62441   0.90255   0.00000  Uiso   1.00
C2143  C     0.84462   0.39599   0.62178   0.00000  Uiso   1.00
C2144  C     0.85411   0.36245   0.58522   0.00000  Uiso   1.00
C2145  C     0.86637   0.35741   0.76634   0.00000  Uiso   1.00
C2146  C     0.89111   0.66663   0.59821   0.00000  Uiso   1.00
C2147  C     0.72065   0.43515   0.66720   0.00000  Uiso   1.00
C2148  C     0.96111   0.60726   0.71566   0.00000  Uiso   1.00
C2149  C     0.94579   0.41529   0.68109   0.00000  Uiso   1.00
C2150  C     0.70941   0.57709   0.81744   0.00000  Uiso   1.00
C2151  C     0.80005   0.64259   0.73429   0.00000  Uiso   1.00
C2152  C     0.80014   0.35712   0.73412   0.00000  Uiso   1.00
C2153  C     0.86626   0.64286   0.76648   0.00000  Uiso   1.00
C2154  C     0.68817   0.46282   0.72768   0.00000  Uiso   1.00
H2155  H     0.89273   0.37551   0.77969   0.00000  Uiso   1.00
H2156  H     0.99013   0.52887   0.59125   0.00000  Uiso   1.00
H2157  H     0.99007   0.56570   0.54365   0.00000  Uiso   1.00
H2158  H     0.91909   0.45150   0.51534   0.00000  Uiso   1.00
H2159  H     0.92275   0.47013   0.95894   0.00000  Uiso   1.00
H2160  H     0.93308   0.38933   0.93516   0.00000  Uiso   1.00
H2161  H     0.97409   0.41444   0.96719   0.00000  Uiso   1.00
H2162  H     0.94560   0.37657   0.53538   0.00000  Uiso   1.00
H2163  H     0.96252   0.33757   0.99414   0.00000  Uiso   1.00
H2164  H     0.90778   0.34764   0.50067   0.00000  Uiso   1.00
H2165  H     0.74033   0.58853   0.99361   0.00000  Uiso   1.00
H2166  H     0.77333   0.62449   0.72178   0.00000  Uiso   1.00
H2167  H     0.75455   0.53121   0.50177   0.00000  Uiso   1.00
H2168  H     0.73442   0.57569   0.91147   0.00000  Uiso   1.00
H2169  H     0.74554   0.51674   0.92005   0.00000  Uiso   1.00
H2170  H     0.68360   0.50794   0.96728   0.00000  Uiso   1.00
H2171  H     0.66979   0.53082   0.91407   0.00000  Uiso   1.00
H2172  H     0.67211   0.56755   0.96142   0.00000  Uiso   1.00
H2173  H     0.74102   0.44827   0.98876   0.00000  Uiso   1.00
H2174  H     0.73970   0.46659   0.54508   0.00000  Uiso   1.00
H2175  H     0.73459   0.38456   0.56941   0.00000  Uiso   1.00
H2176  H     0.69064   0.40731   0.54039   0.00000  Uiso   1.00
H2177  H     0.77371   0.37496   0.72108   0.00000  Uiso   1.00
H2178  H     0.71648   0.37177   0.97016   0.00000  Uiso   1.00
H2179  H     0.70485   0.66457   0.51253   0.00000  Uiso   1.00
H2180  H     0.75818   0.34587   0.50179   0.00000  Uiso   1.00
H2181  H     0.79228   0.62776   0.64368   0.00000  Uiso   1.00
H2182  H     0.77595   0.57028   0.64906   0.00000  Uiso   1.00
H2183  H     0.77182   0.62538   0.56275   0.00000  Uiso   1.00
H2184  H     0.75230   0.56879   0.57198   0.00000  Uiso   1.00
H2185  H     0.70390   0.59676   0.62951   0.00000  Uiso   1.00
H2186  H     0.69548   0.62513   0.57775   0.00000  Uiso   1.00
H2187  H     0.72286   0.65385   0.62132   0.00000  Uiso   1.00
H2188  H     0.89237   0.62496   0.78025   0.00000  Uiso   1.00
H2189  H     0.82537   0.37452   0.84863   0.00000  Uiso   1.00
H2190  H     0.79259   0.41789   0.86973   0.00000  Uiso   1.00
H2191  H     0.83356   0.34300   0.92562   0.00000  Uiso   1.00
H2192  H     0.79812   0.38526   0.94510   0.00000  Uiso   1.00
H2193  H     0.74291   0.35619   0.89491   0.00000  Uiso   1.00
H2194  H     0.76232   0.64527   0.93021   0.00000  Uiso   1.00
H2195  H     0.77818   0.64783   0.87331   0.00000  Uiso   1.00
H2196  H     0.86820   0.63080   0.86015   0.00000  Uiso   1.00
H2197  H     0.88663   0.57451   0.85355   0.00000  Uiso   1.00
H2198  H     0.88513   0.62536   0.94218   0.00000  Uiso   1.00
H2199  H     0.92331   0.58972   0.51021   0.00000  Uiso   1.00
H2200  H     0.90640   0.57005   0.93167   0.00000  Uiso   1.00
H2201  H     0.95634   0.60236   0.87787   0.00000  Uiso   1.00
H2202  H     0.96217   0.62766   0.93128   0.00000  Uiso   1.00
H2203  H     0.93622   0.65834   0.88773   0.00000  Uiso   1.00
H2204  H     0.84051   0.37691   0.65308   0.00000  Uiso   1.00
H2205  H     0.87206   0.41863   0.62638   0.00000  Uiso   1.00
H2206  H     0.82671   0.34062   0.57913   0.00000  Uiso   1.00
H2207  H     0.86144   0.38111   0.55440   0.00000  Uiso   1.00
H2208  H     0.91884   0.35469   0.60452   0.00000  Uiso   1.00
H2209  H     0.89824   0.64322   0.57099   0.00000  Uiso   1.00
H2210  H     0.90879   0.53280   0.50018   0.00000  Uiso   1.00
H2211  H     0.88420   0.64674   0.62848   0.00000  Uiso   1.00
H2212  H     0.73190   0.40347   0.65194   0.00000  Uiso   1.00
H2213  H     0.74637   0.46020   0.66618   0.00000  Uiso   1.00
H2214  H     0.69444   0.44778   0.64669   0.00000  Uiso   1.00
H2215  H     0.94586   0.64045   0.72025   0.00000  Uiso   1.00
H2216  H     0.94424   0.58908   0.68892   0.00000  Uiso   1.00
H2217  H     0.99369   0.61422   0.70548   0.00000  Uiso   1.00
H2218  H     0.93398   0.44724   0.66609   0.00000  Uiso   1.00
H2219  H     0.92012   0.39024   0.68053   0.00000  Uiso   1.00
H2220  H     0.97126   0.40122   0.66088   0.00000  Uiso   1.00
H2221  H     0.92651   0.57439   0.59230   0.00000  Uiso   1.00
H2222  H     0.72392   0.60871   0.82967   0.00000  Uiso   1.00
H2223  H     0.72866   0.54828   0.82914   0.00000  Uiso   1.00
H2224  H     0.67778   0.57482   0.83190   0.00000  Uiso   1.00
H2225  H     0.91428   0.51592   0.58215   0.00000  Uiso   1.00
H2226  H     0.97731   0.50640   0.53771   0.00000  Uiso   1.00
N2227  N     0.83333   0.61907   0.75000   0.00000  Uiso   1.00
N2228  N     0.83333   0.38093   0.75000   0.00000  Uiso   1.00
O2229  O     0.77226   0.53821   0.74999   0.00000  Uiso   1.00
O2230  O     0.87079   0.42848   0.97637   0.00000  Uiso   1.00
O2231  O     0.79800   0.57298   0.97019   0.00000  Uiso   1.00
O2232  O     0.79237   0.42803   0.52452   0.00000  Uiso   1.00
O2233  O     0.83019   0.58350   0.61173   0.00000  Uiso   1.00
O2234  O     0.85645   0.41989   0.88747   0.00000  Uiso   1.00
O2235  O     0.83026   0.58304   0.88805   0.00000  Uiso   1.00
O2236  O     0.80729   0.41970   0.61355   0.00000  Uiso   1.00
O2237  O     0.70866   0.42558   0.71110   0.00000  Uiso   1.00
O2238  O     0.95926   0.58289   0.75579   0.00000  Uiso   1.00
O2239  O     0.95868   0.42035   0.72526   0.00000  Uiso   1.00
O2240  O     0.89441   0.46179   0.75000   0.00000  Uiso   1.00
O2241  O     0.70803   0.57891   0.77097   0.00000  Uiso   1.00
O2242  O     0.89441   0.53821   0.75000   0.00000  Uiso   1.00
O2243  O     0.77226   0.46179   0.74999   0.00000  Uiso   1.00
O2244  O     0.83333   0.53822   0.68453   0.00000  Uiso   1.00
O2245  O     0.83334   0.46178   0.81547   0.00000  Uiso   1.00
O2246  O     0.83334   0.53822   0.81547   0.00000  Uiso   1.00
O2247  O     0.83333   0.46178   0.68453   0.00000  Uiso   1.00
O2248  O     0.86445   0.57353   0.53032   0.00000  Uiso   1.00
Zn2249 Zn    0.83333   0.55104   0.75000   0.00000  Uiso   1.00
Zn2250 Zn    0.83333   0.44896   0.75000   0.00000  Uiso   1.00
C2251  C     0.08670   0.83339   0.74875   0.00000  Uiso   1.00
C2252  C     0.31247   0.87533   0.74977   0.00000  Uiso   1.00
C2253  C     0.31210   0.79484   0.73038   0.00000  Uiso   1.00
C2254  C     0.02131   0.87377   0.75584   0.00000  Uiso   1.00
C2255  C     0.17521   0.87150   0.54847   0.00000  Uiso   1.00
C2256  C     0.18327   0.79567   0.95399   0.00000  Uiso   1.00
C2257  C     0.15322   0.87089   0.95175   0.00000  Uiso   1.00
C2258  C     0.14619   0.79560   0.54675   0.00000  Uiso   1.00
C2259  C     0.16367   0.87448   0.59235   0.00000  Uiso   1.00
C2260  C     0.18005   0.79344   0.90820   0.00000  Uiso   1.00
C2261  C     0.16435   0.87403   0.90771   0.00000  Uiso   1.00
C2262  C     0.24670   0.83353   0.74806   0.00000  Uiso   1.00
C2263  C     0.14964   0.79349   0.59253   0.00000  Uiso   1.00
C2264  C     0.15845   0.83372   0.61608   0.00000  Uiso   1.00
C2265  C     0.17149   0.83356   0.88430   0.00000  Uiso   1.00
C2266  C     0.16329   0.83294   0.52431   0.00000  Uiso   1.00
C2267  C     0.16603   0.83285   0.97617   0.00000  Uiso   1.00
C2268  C     0.29085   0.83444   0.74278   0.00000  Uiso   1.00
C2269  C     0.04267   0.83419   0.74433   0.00000  Uiso   1.00
C2270  C     0.23978   0.89369   0.52456   0.00000  Uiso   1.00
C2271  C     0.26209   0.88009   0.56776   0.00000  Uiso   1.00
C2272  C     0.30774   0.86970   0.55945   0.00000  Uiso   1.00
C2273  C     0.16393   0.83337   0.66396   0.00000  Uiso   1.00
C2274  C     0.24648   0.77459   0.98065   0.00000  Uiso   1.00
C2275  C     0.27485   0.73530   0.96843   0.00000  Uiso   1.00
C2276  C     0.27232   0.69689   0.50182   0.00000  Uiso   1.00
C2277  C     0.08958   0.89290   0.97790   0.00000  Uiso   1.00
C2278  C     0.06555   0.88078   0.93548   0.00000  Uiso   1.00
C2279  C     0.01992   0.87124   0.94532   0.00000  Uiso   1.00
C2280  C     0.08268   0.77157   0.52301   0.00000  Uiso   1.00
C2281  C     0.05694   0.73039   0.53688   0.00000  Uiso   1.00
C2282  C     0.05942   0.69251   0.50313   0.00000  Uiso   1.00
C2283  C     0.12285   0.92860   0.62570   0.00000  Uiso   1.00
C2284  C     0.16853   0.83332   0.83616   0.00000  Uiso   1.00
C2285  C     0.09204   0.93524   0.58773   0.00000  Uiso   1.00
C2286  C     0.05111   0.95394   0.60520   0.00000  Uiso   1.00
C2287  C     0.15274   0.72898   0.87815   0.00000  Uiso   1.00
C2288  C     0.14035   0.69794   0.91618   0.00000  Uiso   1.00
C2289  C     0.10366   0.66831   0.90272   0.00000  Uiso   1.00
C2290  C     0.20446   0.93095   0.87707   0.00000  Uiso   1.00
C2291  C     0.23322   0.93699   0.91697   0.00000  Uiso   1.00
C2292  C     0.27449   0.95774   0.90255   0.00000  Uiso   1.00
C2293  C     0.17795   0.72932   0.62178   0.00000  Uiso   1.00
C2294  C     0.18744   0.69578   0.58522   0.00000  Uiso   1.00
C2295  C     0.19970   0.69074   0.76634   0.00000  Uiso   1.00
C2296  C     0.22444   0.99996   0.59821   0.00000  Uiso   1.00
C2297  C     0.05398   0.76848   0.66720   0.00000  Uiso   1.00
C2298  C     0.29444   0.94059   0.71566   0.00000  Uiso   1.00
C2299  C     0.27912   0.74862   0.68109   0.00000  Uiso   1.00
C2300  C     0.04274   0.91042   0.81744   0.00000  Uiso   1.00
C2301  C     0.13339   0.97592   0.73429   0.00000  Uiso   1.00
C2302  C     0.13347   0.69045   0.73412   0.00000  Uiso   1.00
C2303  C     0.19960   0.97620   0.76648   0.00000  Uiso   1.00
C2304  C     0.02150   0.79615   0.72768   0.00000  Uiso   1.00
H2305  H     0.22606   0.70885   0.77969   0.00000  Uiso   1.00
H2306  H     0.32346   0.86220   0.59125   0.00000  Uiso   1.00
H2307  H     0.32340   0.89904   0.54365   0.00000  Uiso   1.00
H2308  H     0.25243   0.78483   0.51534   0.00000  Uiso   1.00
H2309  H     0.25608   0.80346   0.95894   0.00000  Uiso   1.00
H2310  H     0.26642   0.72267   0.93516   0.00000  Uiso   1.00
H2311  H     0.30743   0.74778   0.96719   0.00000  Uiso   1.00
H2312  H     0.27894   0.70991   0.53538   0.00000  Uiso   1.00
H2313  H     0.29585   0.67090   0.99414   0.00000  Uiso   1.00
H2314  H     0.24111   0.68097   0.50067   0.00000  Uiso   1.00
H2315  H     0.07366   0.92187   0.99361   0.00000  Uiso   1.00
H2316  H     0.10666   0.95782   0.72178   0.00000  Uiso   1.00
H2317  H     0.08788   0.86454   0.50177   0.00000  Uiso   1.00
H2318  H     0.06775   0.90902   0.91147   0.00000  Uiso   1.00
H2319  H     0.07887   0.85007   0.92005   0.00000  Uiso   1.00
H2320  H     0.01693   0.84127   0.96728   0.00000  Uiso   1.00
H2321  H     0.00312   0.86415   0.91407   0.00000  Uiso   1.00
H2322  H     0.00544   0.90089   0.96142   0.00000  Uiso   1.00
H2323  H     0.07436   0.78161   0.98876   0.00000  Uiso   1.00
H2324  H     0.07304   0.79992   0.54508   0.00000  Uiso   1.00
H2325  H     0.06793   0.71790   0.56941   0.00000  Uiso   1.00
H2326  H     0.02397   0.74065   0.54039   0.00000  Uiso   1.00
H2327  H     0.10705   0.70829   0.72108   0.00000  Uiso   1.00
H2328  H     0.04981   0.70511   0.97016   0.00000  Uiso   1.00
H2329  H     0.03818   0.99790   0.51253   0.00000  Uiso   1.00
H2330  H     0.09151   0.67920   0.50179   0.00000  Uiso   1.00
H2331  H     0.12562   0.96109   0.64368   0.00000  Uiso   1.00
H2332  H     0.10928   0.90362   0.64906   0.00000  Uiso   1.00
H2333  H     0.10516   0.95871   0.56275   0.00000  Uiso   1.00
H2334  H     0.08564   0.90212   0.57198   0.00000  Uiso   1.00
H2335  H     0.03724   0.93010   0.62951   0.00000  Uiso   1.00
H2336  H     0.02882   0.95846   0.57775   0.00000  Uiso   1.00
H2337  H     0.05620   0.98718   0.62132   0.00000  Uiso   1.00
H2338  H     0.22570   0.95829   0.78025   0.00000  Uiso   1.00
H2339  H     0.15870   0.70785   0.84863   0.00000  Uiso   1.00
H2340  H     0.12593   0.75122   0.86973   0.00000  Uiso   1.00
H2341  H     0.16689   0.67633   0.92562   0.00000  Uiso   1.00
H2342  H     0.13145   0.71859   0.94510   0.00000  Uiso   1.00
H2343  H     0.07624   0.68952   0.89491   0.00000  Uiso   1.00
H2344  H     0.09566   0.97860   0.93021   0.00000  Uiso   1.00
H2345  H     0.11151   0.98116   0.87331   0.00000  Uiso   1.00
H2346  H     0.20153   0.96413   0.86015   0.00000  Uiso   1.00
H2347  H     0.21996   0.90784   0.85355   0.00000  Uiso   1.00
H2348  H     0.21846   0.95869   0.94218   0.00000  Uiso   1.00
H2349  H     0.25665   0.92305   0.51021   0.00000  Uiso   1.00
H2350  H     0.23973   0.90338   0.93167   0.00000  Uiso   1.00
H2351  H     0.28968   0.93569   0.87787   0.00000  Uiso   1.00
H2352  H     0.29550   0.96099   0.93128   0.00000  Uiso   1.00
H2353  H     0.26955   0.99167   0.88773   0.00000  Uiso   1.00
H2354  H     0.17385   0.71024   0.65308   0.00000  Uiso   1.00
H2355  H     0.20539   0.75197   0.62638   0.00000  Uiso   1.00
H2356  H     0.16004   0.67396   0.57913   0.00000  Uiso   1.00
H2357  H     0.19477   0.71444   0.55440   0.00000  Uiso   1.00
H2358  H     0.25217   0.68802   0.60452   0.00000  Uiso   1.00
H2359  H     0.23157   0.97655   0.57099   0.00000  Uiso   1.00
H2360  H     0.24212   0.86613   0.50018   0.00000  Uiso   1.00
H2361  H     0.21754   0.98007   0.62848   0.00000  Uiso   1.00
H2362  H     0.06523   0.73681   0.65194   0.00000  Uiso   1.00
H2363  H     0.07970   0.79353   0.66618   0.00000  Uiso   1.00
H2364  H     0.02778   0.78112   0.64669   0.00000  Uiso   1.00
H2365  H     0.27919   0.97378   0.72025   0.00000  Uiso   1.00
H2366  H     0.27757   0.92242   0.68892   0.00000  Uiso   1.00
H2367  H     0.32703   0.94756   0.70548   0.00000  Uiso   1.00
H2368  H     0.26731   0.78057   0.66609   0.00000  Uiso   1.00
H2369  H     0.25345   0.72357   0.68053   0.00000  Uiso   1.00
H2370  H     0.30459   0.73455   0.66088   0.00000  Uiso   1.00
H2371  H     0.25984   0.90773   0.59230   0.00000  Uiso   1.00
H2372  H     0.05725   0.94205   0.82967   0.00000  Uiso   1.00
H2373  H     0.06200   0.88162   0.82914   0.00000  Uiso   1.00
H2374  H     0.01111   0.90815   0.83190   0.00000  Uiso   1.00
H2375  H     0.24761   0.84925   0.58215   0.00000  Uiso   1.00
H2376  H     0.31064   0.83973   0.53771   0.00000  Uiso   1.00
N2377  N     0.16667   0.95240   0.75000   0.00000  Uiso   1.00
N2378  N     0.16667   0.71427   0.75000   0.00000  Uiso   1.00
O2379  O     0.10559   0.87154   0.74999   0.00000  Uiso   1.00
O2380  O     0.20412   0.76181   0.97637   0.00000  Uiso   1.00
O2381  O     0.13133   0.90631   0.97019   0.00000  Uiso   1.00
O2382  O     0.12570   0.76136   0.52452   0.00000  Uiso   1.00
O2383  O     0.16353   0.91684   0.61173   0.00000  Uiso   1.00
O2384  O     0.18978   0.75322   0.88747   0.00000  Uiso   1.00
O2385  O     0.16360   0.91638   0.88805   0.00000  Uiso   1.00
O2386  O     0.14062   0.75304   0.61355   0.00000  Uiso   1.00
O2387  O     0.04200   0.75891   0.71110   0.00000  Uiso   1.00
O2388  O     0.29260   0.91622   0.75579   0.00000  Uiso   1.00
O2389  O     0.29201   0.75368   0.72526   0.00000  Uiso   1.00
O2390  O     0.22774   0.79513   0.75000   0.00000  Uiso   1.00
O2391  O     0.04137   0.91224   0.77097   0.00000  Uiso   1.00
O2392  O     0.22774   0.87154   0.75000   0.00000  Uiso   1.00
O2393  O     0.10559   0.79513   0.74999   0.00000  Uiso   1.00
O2394  O     0.16666   0.87155   0.68453   0.00000  Uiso   1.00
O2395  O     0.16667   0.79511   0.81547   0.00000  Uiso   1.00
O2396  O     0.16667   0.87155   0.81547   0.00000  Uiso   1.00
O2397  O     0.16666   0.79511   0.68453   0.00000  Uiso   1.00
O2398  O     0.19778   0.90687   0.53032   0.00000  Uiso   1.00
Zn2399 Zn    0.16667   0.88437   0.75000   0.00000  Uiso   1.00
Zn2400 Zn    0.16667   0.78229   0.75000   0.00000  Uiso   1.00
C2401  C     0.42004   0.83339   0.74875   0.00000  Uiso   1.00
C2402  C     0.64581   0.87533   0.74977   0.00000  Uiso   1.00
C2403  C     0.64544   0.79484   0.73038   0.00000  Uiso   1.00
C2404  C     0.35464   0.87377   0.75584   0.00000  Uiso   1.00
C2405  C     0.50854   0.87150   0.54847   0.00000  Uiso   1.00
C2406  C     0.51660   0.79567   0.95399   0.00000  Uiso   1.00
C2407  C     0.48655   0.87089   0.95175   0.00000  Uiso   1.00
C2408  C     0.47952   0.79560   0.54675   0.00000  Uiso   1.00
C2409  C     0.49701   0.87448   0.59235   0.00000  Uiso   1.00
C2410  C     0.51338   0.79344   0.90820   0.00000  Uiso   1.00
C2411  C     0.49768   0.87403   0.90771   0.00000  Uiso   1.00
C2412  C     0.58003   0.83353   0.74806   0.00000  Uiso   1.00
C2413  C     0.48297   0.79349   0.59253   0.00000  Uiso   1.00
C2414  C     0.49178   0.83372   0.61608   0.00000  Uiso   1.00
C2415  C     0.50482   0.83356   0.88430   0.00000  Uiso   1.00
C2416  C     0.49662   0.83294   0.52431   0.00000  Uiso   1.00
C2417  C     0.49936   0.83285   0.97617   0.00000  Uiso   1.00
C2418  C     0.62419   0.83444   0.74278   0.00000  Uiso   1.00
C2419  C     0.37601   0.83419   0.74433   0.00000  Uiso   1.00
C2420  C     0.57312   0.89369   0.52456   0.00000  Uiso   1.00
C2421  C     0.59542   0.88009   0.56776   0.00000  Uiso   1.00
C2422  C     0.64107   0.86970   0.55945   0.00000  Uiso   1.00
C2423  C     0.49727   0.83337   0.66396   0.00000  Uiso   1.00
C2424  C     0.57982   0.77459   0.98065   0.00000  Uiso   1.00
C2425  C     0.60818   0.73530   0.96843   0.00000  Uiso   1.00
C2426  C     0.60565   0.69689   0.50182   0.00000  Uiso   1.00
C2427  C     0.42292   0.89290   0.97790   0.00000  Uiso   1.00
C2428  C     0.39888   0.88078   0.93548   0.00000  Uiso   1.00
C2429  C     0.35325   0.87124   0.94532   0.00000  Uiso   1.00
C2430  C     0.41602   0.77157   0.52301   0.00000  Uiso   1.00
C2431  C     0.39027   0.73039   0.53688   0.00000  Uiso   1.00
C2432  C     0.39275   0.69251   0.50313   0.00000  Uiso   1.00
C2433  C     0.45618   0.92860   0.62570   0.00000  Uiso   1.00
C2434  C     0.50187   0.83332   0.83616   0.00000  Uiso   1.00
C2435  C     0.42537   0.93524   0.58773   0.00000  Uiso   1.00
C2436  C     0.38444   0.95394   0.60520   0.00000  Uiso   1.00
C2437  C     0.48607   0.72898   0.87815   0.00000  Uiso   1.00
C2438  C     0.47368   0.69794   0.91618   0.00000  Uiso   1.00
C2439  C     0.43699   0.66831   0.90272   0.00000  Uiso   1.00
C2440  C     0.53780   0.93095   0.87707   0.00000  Uiso   1.00
C2441  C     0.56656   0.93699   0.91697   0.00000  Uiso   1.00
C2442  C     0.60782   0.95774   0.90255   0.00000  Uiso   1.00
C2443  C     0.51128   0.72932   0.62178   0.00000  Uiso   1.00
C2444  C     0.52078   0.69578   0.58522   0.00000  Uiso   1.00
C2445  C     0.53303   0.69074   0.76634   0.00000  Uiso   1.00
C2446  C     0.55777   0.99996   0.59821   0.00000  Uiso   1.00
C2447  C     0.38732   0.76848   0.66720   0.00000  Uiso   1.00
C2448  C     0.62778   0.94059   0.71566   0.00000  Uiso   1.00
C2449  C     0.61246   0.74862   0.68109   0.00000  Uiso   1.00
C2450  C     0.37607   0.91042   0.81744   0.00000  Uiso   1.00
C2451  C     0.46672   0.97592   0.73429   0.00000  Uiso   1.00
C2452  C     0.46681   0.69045   0.73412   0.00000  Uiso   1.00
C2453  C     0.53293   0.97620   0.76648   0.00000  Uiso   1.00
C2454  C     0.35483   0.79615   0.72768   0.00000  Uiso   1.00
H2455  H     0.55940   0.70885   0.77969   0.00000  Uiso   1.00
H2456  H     0.65679   0.86220   0.59125   0.00000  Uiso   1.00
H2457  H     0.65673   0.89904   0.54365   0.00000  Uiso   1.00
H2458  H     0.58576   0.78483   0.51534   0.00000  Uiso   1.00
H2459  H     0.58942   0.80346   0.95894   0.00000  Uiso   1.00
H2460  H     0.59975   0.72267   0.93516   0.00000  Uiso   1.00
H2461  H     0.64076   0.74778   0.96719   0.00000  Uiso   1.00
H2462  H     0.61227   0.70991   0.53538   0.00000  Uiso   1.00
H2463  H     0.62918   0.67090   0.99414   0.00000  Uiso   1.00
H2464  H     0.57444   0.68097   0.50067   0.00000  Uiso   1.00
H2465  H     0.40700   0.92187   0.99361   0.00000  Uiso   1.00
H2466  H     0.44000   0.95782   0.72178   0.00000  Uiso   1.00
H2467  H     0.42122   0.86454   0.50177   0.00000  Uiso   1.00
H2468  H     0.40108   0.90902   0.91147   0.00000  Uiso   1.00
H2469  H     0.41221   0.85007   0.92005   0.00000  Uiso   1.00
H2470  H     0.35027   0.84127   0.96728   0.00000  Uiso   1.00
H2471  H     0.33645   0.86415   0.91407   0.00000  Uiso   1.00
H2472  H     0.33877   0.90089   0.96142   0.00000  Uiso   1.00
H2473  H     0.40769   0.78161   0.98876   0.00000  Uiso   1.00
H2474  H     0.40637   0.79992   0.54508   0.00000  Uiso   1.00
H2475  H     0.40126   0.71790   0.56941   0.00000  Uiso   1.00
H2476  H     0.35731   0.74065   0.54039   0.00000  Uiso   1.00
H2477  H     0.44038   0.70829   0.72108   0.00000  Uiso   1.00
H2478  H     0.38315   0.70511   0.97016   0.00000  Uiso   1.00
H2479  H     0.37152   0.99790   0.51253   0.00000  Uiso   1.00
H2480  H     0.42485   0.67920   0.50179   0.00000  Uiso   1.00
H2481  H     0.45895   0.96109   0.64368   0.00000  Uiso   1.00
H2482  H     0.44262   0.90362   0.64906   0.00000  Uiso   1.00
H2483  H     0.43849   0.95871   0.56275   0.00000  Uiso   1.00
H2484  H     0.41897   0.90212   0.57198   0.00000  Uiso   1.00
H2485  H     0.37057   0.93010   0.62951   0.00000  Uiso   1.00
H2486  H     0.36215   0.95846   0.57775   0.00000  Uiso   1.00
H2487  H     0.38953   0.98718   0.62132   0.00000  Uiso   1.00
H2488  H     0.55903   0.95829   0.78025   0.00000  Uiso   1.00
H2489  H     0.49203   0.70785   0.84863   0.00000  Uiso   1.00
H2490  H     0.45926   0.75122   0.86973   0.00000  Uiso   1.00
H2491  H     0.50023   0.67633   0.92562   0.00000  Uiso   1.00
H2492  H     0.46478   0.71859   0.94510   0.00000  Uiso   1.00
H2493  H     0.40958   0.68952   0.89491   0.00000  Uiso   1.00
H2494  H     0.42899   0.97860   0.93021   0.00000  Uiso   1.00
H2495  H     0.44485   0.98116   0.87331   0.00000  Uiso   1.00
H2496  H     0.53487   0.96413   0.86015   0.00000  Uiso   1.00
H2497  H     0.55330   0.90784   0.85355   0.00000  Uiso   1.00
H2498  H     0.55179   0.95869   0.94218   0.00000  Uiso   1.00
H2499  H     0.58998   0.92305   0.51021   0.00000  Uiso   1.00
H2500  H     0.57307   0.90338   0.93167   0.00000  Uiso   1.00
H2501  H     0.62301   0.93569   0.87787   0.00000  Uiso   1.00
H2502  H     0.62884   0.96099   0.93128   0.00000  Uiso   1.00
H2503  H     0.60288   0.99167   0.88773   0.00000  Uiso   1.00
H2504  H     0.50718   0.71024   0.65308   0.00000  Uiso   1.00
H2505  H     0.53873   0.75197   0.62638   0.00000  Uiso   1.00
H2506  H     0.49338   0.67396   0.57913   0.00000  Uiso   1.00
H2507  H     0.52811   0.71444   0.55440   0.00000  Uiso   1.00
H2508  H     0.58551   0.68802   0.60452   0.00000  Uiso   1.00
H2509  H     0.56490   0.97655   0.57099   0.00000  Uiso   1.00
H2510  H     0.57545   0.86613   0.50018   0.00000  Uiso   1.00
H2511  H     0.55087   0.98007   0.62848   0.00000  Uiso   1.00
H2512  H     0.39856   0.73681   0.65194   0.00000  Uiso   1.00
H2513  H     0.41304   0.79353   0.66618   0.00000  Uiso   1.00
H2514  H     0.36111   0.78112   0.64669   0.00000  Uiso   1.00
H2515  H     0.61252   0.97378   0.72025   0.00000  Uiso   1.00
H2516  H     0.61090   0.92242   0.68892   0.00000  Uiso   1.00
H2517  H     0.66036   0.94756   0.70548   0.00000  Uiso   1.00
H2518  H     0.60065   0.78057   0.66609   0.00000  Uiso   1.00
H2519  H     0.58679   0.72357   0.68053   0.00000  Uiso   1.00
H2520  H     0.63793   0.73455   0.66088   0.00000  Uiso   1.00
H2521  H     0.59317   0.90773   0.59230   0.00000  Uiso   1.00
H2522  H     0.39059   0.94205   0.82967   0.00000  Uiso   1.00
H2523  H     0.39533   0.88162   0.82914   0.00000  Uiso   1.00
H2524  H     0.34444   0.90815   0.83190   0.00000  Uiso   1.00
H2525  H     0.58094   0.84925   0.58215   0.00000  Uiso   1.00
H2526  H     0.64397   0.83973   0.53771   0.00000  Uiso   1.00
N2527  N     0.50000   0.95240   0.75000   0.00000  Uiso   1.00
N2528  N     0.50000   0.71427   0.75000   0.00000  Uiso   1.00
O2529  O     0.43892   0.87154   0.74999   0.00000  Uiso   1.00
O2530  O     0.53745   0.76181   0.97637   0.00000  Uiso   1.00
O2531  O     0.46466   0.90631   0.97019   0.00000  Uiso   1.00
O2532  O     0.45903   0.76136   0.52452   0.00000  Uiso   1.00
O2533  O     0.49686   0.91684   0.61173   0.00000  Uiso   1.00
O2534  O     0.52312   0.75322   0.88747   0.00000  Uiso   1.00
O2535  O     0.49693   0.91638   0.88805   0.00000  Uiso   1.00
O2536  O     0.47396   0.75304   0.61355   0.00000  Uiso   1.00
O2537  O     0.37533   0.75891   0.71110   0.00000  Uiso   1.00
O2538  O     0.62593   0.91622   0.75579   0.00000  Uiso   1.00
O2539  O     0.62534   0.75368   0.72526   0.00000  Uiso   1.00
O2540  O     0.56108   0.79513   0.75000   0.00000  Uiso   1.00
O2541  O     0.37470   0.91224   0.77097   0.00000  Uiso   1.00
O2542  O     0.56108   0.87154   0.75000   0.00000  Uiso   1.00
O2543  O     0.43892   0.79513   0.74999   0.00000  Uiso   1.00
O2544  O     0.50000   0.87155   0.68453   0.00000  Uiso   1.00
O2545  O     0.50000   0.79511   0.81547   0.00000  Uiso   1.00
O2546  O     0.50000   0.87155   0.81547   0.00000  Uiso   1.00
O2547  O     0.50000   0.79511   0.68453   0.00000  Uiso   1.00
O2548  O     0.53111   0.90687   0.53032   0.00000  Uiso   1.00
Zn2549 Zn    0.50000   0.88437   0.75000   0.00000  Uiso   1.00
Zn2550 Zn    0.50000   0.78229   0.75000   0.00000  Uiso   1.00
C2551  C     0.75337   0.83339   0.74875   0.00000  Uiso   1.00
C2552  C     0.97914   0.87533   0.74977   0.00000  Uiso   1.00
C2553  C     0.97877   0.79484   0.73038   0.00000  Uiso   1.00
C2554  C     0.68797   0.87377   0.75584   0.00000  Uiso   1.00
C2555  C     0.84187   0.87150   0.54847   0.00000  Uiso   1.00
C2556  C     0.84994   0.79567   0.95399   0.00000  Uiso   1.00
C2557  C     0.81988   0.87089   0.95175   0.00000  Uiso   1.00
C2558  C     0.81285   0.79560   0.54675   0.00000  Uiso   1.00
C2559  C     0.83034   0.87448   0.59235   0.00000  Uiso   1.00
C2560  C     0.84672   0.79344   0.90820   0.00000  Uiso   1.00
C2561  C     0.83101   0.87403   0.90771   0.00000  Uiso   1.00
C2562  C     0.91337   0.83353   0.74806   0.00000  Uiso   1.00
C2563  C     0.81631   0.79349   0.59253   0.00000  Uiso   1.00
C2564  C     0.82512   0.83372   0.61608   0.00000  Uiso   1.00
C2565  C     0.83816   0.83356   0.88430   0.00000  Uiso   1.00
C2566  C     0.82995   0.83294   0.52431   0.00000  Uiso   1.00
C2567  C     0.83269   0.83285   0.97617   0.00000  Uiso   1.00
C2568  C     0.95752   0.83444   0.74278   0.00000  Uiso   1.00
C2569  C     0.70934   0.83419   0.74433   0.00000  Uiso   1.00
C2570  C     0.90645   0.89369   0.52456   0.00000  Uiso   1.00
C2571  C     0.92876   0.88009   0.56776   0.00000  Uiso   1.00
C2572  C     0.97441   0.86970   0.55945   0.00000  Uiso   1.00
C2573  C     0.83060   0.83337   0.66396   0.00000  Uiso   1.00
C2574  C     0.91315   0.77459   0.98065   0.00000  Uiso   1.00
C2575  C     0.94151   0.73530   0.96843   0.00000  Uiso   1.00
C2576  C     0.93898   0.69689   0.50182   0.00000  Uiso   1.00
C2577  C     0.75625   0.89290   0.97790   0.00000  Uiso   1.00
C2578  C     0.73221   0.88078   0.93548   0.00000  Uiso   1.00
C2579  C     0.68659   0.87124   0.94532   0.00000  Uiso   1.00
C2580  C     0.74935   0.77157   0.52301   0.00000  Uiso   1.00
C2581  C     0.72360   0.73039   0.53688   0.00000  Uiso   1.00
C2582  C     0.72609   0.69251   0.50313   0.00000  Uiso   1.00
C2583  C     0.78952   0.92860   0.62570   0.00000  Uiso   1.00
C2584  C     0.83520   0.83332   0.83616   0.00000  Uiso   1.00
C2585  C     0.75871   0.93524   0.58773   0.00000  Uiso   1.00
C2586  C     0.71778   0.95394   0.60520   0.00000  Uiso   1.00
C2587  C     0.81940   0.72898   0.87815   0.00000  Uiso   1.00
C2588  C     0.80702   0.69794   0.91618   0.00000  Uiso   1.00
C2589  C     0.77032   0.66831   0.90272   0.00000  Uiso   1.00
C2590  C     0.87113   0.93095   0.87707   0.00000  Uiso   1.00
C2591  C     0.89989   0.93699   0.91697   0.00000  Uiso   1.00
C2592  C     0.94115   0.95774   0.90255   0.00000  Uiso   1.00
C2593  C     0.84462   0.72932   0.62178   0.00000  Uiso   1.00
C2594  C     0.85411   0.69578   0.58522   0.00000  Uiso   1.00
C2595  C     0.86637   0.69074   0.76634   0.00000  Uiso   1.00
C2596  C     0.89111   0.99996   0.59821   0.00000  Uiso   1.00
C2597  C     0.72065   0.76848   0.66720   0.00000  Uiso   1.00
C2598  C     0.96111   0.94059   0.71566   0.00000  Uiso   1.00
C2599  C     0.94579   0.74862   0.68109   0.00000  Uiso   1.00
C2600  C     0.70941   0.91042   0.81744   0.00000  Uiso   1.00
C2601  C     0.80005   0.97592   0.73429   0.00000  Uiso   1.00
C2602  C     0.80014   0.69045   0.73412   0.00000  Uiso   1.00
C2603  C     0.86626   0.97620   0.76648   0.00000  Uiso   1.00
C2604  C     0.68817   0.79615   0.72768   0.00000  Uiso   1.00
H2605  H     0.89273   0.70885   0.77969   0.00000  Uiso   1.00
H2606  H     0.99013   0.86220   0.59125   0.00000  Uiso   1.00
H2607  H     0.99007   0.89904   0.54365   0.00000  Uiso   1.00
H2608  H     0.91909   0.78483   0.51534   0.00000  Uiso   1.00
H2609  H     0.92275   0.80346   0.95894   0.00000  Uiso   1.00
H2610  H     0.93308   0.72267   0.93516   0.00000  Uiso   1.00
H2611  H     0.97409   0.74778   0.96719   0.00000  Uiso   1.00
H2612  H     0.94560   0.70991   0.53538   0.00000  Uiso   1.00
H2613  H     0.96252   0.67090   0.99414   0.00000  Uiso   1.00
H2614  H     0.90778   0.68097   0.50067   0.00000  Uiso   1.00
H2615  H     0.74033   0.92187   0.99361   0.00000  Uiso   1.00
H2616  H     0.77333   0.95782   0.72178   0.00000  Uiso   1.00
H2617  H     0.75455   0.86454   0.50177   0.00000  Uiso   1.00
H2618  H     0.73442   0.90902   0.91147   0.00000  Uiso   1.00
H2619  H     0.74554   0.85007   0.92005   0.00000  Uiso   1.00
H2620  H     0.68360   0.84127   0.96728   0.00000  Uiso   1.00
H2621  H     0.66979   0.86415   0.91407   0.00000  Uiso   1.00
H2622  H     0.67211   0.90089   0.96142   0.00000  Uiso   1.00
H2623  H     0.74102   0.78161   0.98876   0.00000  Uiso   1.00
H2624  H     0.73970   0.79992   0.54508   0.00000  Uiso   1.00
H2625  H     0.73459   0.71790   0.56941   0.00000  Uiso   1.00
H2626  H     0.69064   0.74065   0.54039   0.00000  Uiso   1.00
H2627  H     0.77371   0.70829   0.72108   0.00000  Uiso   1.00
H2628  H     0.71648   0.70511   0.97016   0.00000  Uiso   1.00
H2629  H     0.70485   0.99790   0.51253   0.00000  Uiso   1.00
H2630  H     0.75818   0.67920   0.50179   0.00000  Uiso   1.00
H2631  H     0.79228   0.96109   0.64368   0.00000  Uiso   1.00
H2632  H     0.77595   0.90362   0.64906   0.00000  Uiso   1.00
H2633  H     0.77182   0.95871   0.56275   0.00000  Uiso   1.00
H2634  H     0.75230   0.90212   0.57198   0.00000  Uiso   1.00
H2635  H     0.70390   0.93010   0.62951   0.00000  Uiso   1.00
H2636  H     0.69548   0.95846   0.57775   0.00000  Uiso   1.00
H2637  H     0.72286   0.98718   0.62132   0.00000  Uiso   1.00
H2638  H     0.89237   0.95829   0.78025   0.00000  Uiso   1.00
H2639  H     0.82537   0.70785   0.84863   0.00000  Uiso   1.00
H2640  H     0.79259   0.75122   0.86973   0.00000  Uiso   1.00
H2641  H     0.83356   0.67633   0.92562   0.00000  Uiso   1.00
H2642  H     0.79812   0.71859   0.94510   0.00000  Uiso   1.00
H2643  H     0.74291   0.68952   0.89491   0.00000  Uiso   1.00
H2644  H     0.76232   0.97860   0.93021   0.00000  Uiso   1.00
H2645  H     0.77818   0.98116   0.87331   0.00000  Uiso   1.00
H2646  H     0.86820   0.96413   0.86015   0.00000  Uiso   1.00
H2647  H     0.88663   0.90784   0.85355   0.00000  Uiso   1.00
H2648  H     0.88513   0.95869   0.94218   0.00000  Uiso   1.00
H2649  H     0.92331   0.92305   0.51021   0.00000  Uiso   1.00
H2650  H     0.90640   0.90338   0.93167   0.00000  Uiso   1.00
H2651  H     0.95634   0.93569   0.87787   0.00000  Uiso   1.00
H2652  H     0.96217   0.96099   0.93128   0.00000  Uiso   1.00
H2653  H     0.93622   0.99167   0.88773   0.00000  Uiso   1.00
H2654  H     0.84051   0.71024   0.65308   0.00000  Uiso   1.00
H2655  H     0.87206   0.75197   0.62638   0.00000  Uiso   1.00
H2656  H     0.82671   0.67396   0.57913   0.00000  Uiso   1.00
H2657  H     0.86144   0.71444   0.55440   0.00000  Uiso   1.00
H2658  H     0.91884   0.68802   0.60452   0.00000  Uiso   1.00
H2659  H     0.89824   0.97655   0.57099   0.00000  Uiso   1.00
H2660  H     0.90879   0.86613   0.50018   0.00000  Uiso   1.00
H2661  H     0.88420   0.98007   0.62848   0.00000  Uiso   1.00
H2662  H     0.73190   0.73681   0.65194   0.00000  Uiso   1.00
H2663  H     0.74637   0.79353   0.66618   0.00000  Uiso   1.00
H2664  H     0.69444   0.78112   0.64669   0.00000  Uiso   1.00
H2665  H     0.94586   0.97378   0.72025   0.00000  Uiso   1.00
H2666  H     0.94424   0.92242   0.68892   0.00000  Uiso   1.00
H2667  H     0.99369   0.94756   0.70548   0.00000  Uiso   1.00
H2668  H     0.93398   0.78057   0.66609   0.00000  Uiso   1.00
H2669  H     0.92012   0.72357   0.68053   0.00000  Uiso   1.00
H2670  H     0.97126   0.73455   0.66088   0.00000  Uiso   1.00
H2671  H     0.92651   0.90773   0.59230   0.00000  Uiso   1.00
H2672  H     0.72392   0.94205   0.82967   0.00000  Uiso   1.00
H2673  H     0.72866   0.88162   0.82914   0.00000  Uiso   1.00
H2674  H     0.67778   0.90815   0.83190   0.00000  Uiso   1.00
H2675  H     0.91428   0.84925   0.58215   0.00000  Uiso   1.00
H2676  H     0.97731   0.83973   0.53771   0.00000  Uiso   1.00
N2677  N     0.83333   0.95240   0.75000   0.00000  Uiso   1.00
N2678  N     0.83333   0.71427   0.75000   0.00000  Uiso   1.00
O2679  O     0.77226   0.87154   0.74999   0.00000  Uiso   1.00
O2680  O     0.87079   0.76181   0.97637   0.00000  Uiso   1.00
O2681  O     0.79800   0.90631   0.97019   0.00000  Uiso   1.00
O2682  O     0.79237   0.76136   0.52452   0.00000  Uiso   1.00
O2683  O     0.83019   0.91684   0.61173   0.00000  Uiso   1.00
O2684  O     0.85645   0.75322   0.88747   0.00000  Uiso   1.00
O2685  O     0.83026   0.91638   0.88805   0.00000  Uiso   1.00
O2686  O     0.80729   0.75304   0.61355   0.00000  Uiso   1.00
O2687  O     0.70866   0.75891   0.71110   0.00000  Uiso   1.00
O2688  O     0.95926   0.91622   0.75579   0.00000  Uiso   1.00
O2689  O     0.95868   0.75368   0.72526   0.00000  Uiso   1.00
O2690  O     0.89441   0.79513   0.75000   0.00000  Uiso   1.00
O2691  O     0.70803   0.91224   0.77097   0.00000  Uiso   1.00
O2692  O     0.89441   0.87154   0.75000   0.00000  Uiso   1.00
O2693  O     0.77226   0.79513   0.74999   0.00000  Uiso   1.00
O2694  O     0.83333   0.87155   0.68453   0.00000  Uiso   1.00
O2695  O     0.83334   0.79511   0.81547   0.00000  Uiso   1.00
O2696  O     0.83334   0.87155   0.81547   0.00000  Uiso   1.00
O2697  O     0.83333   0.79511   0.68453   0.00000  Uiso   1.00
O2698  O     0.86445   0.90687   0.53032   0.00000  Uiso   1.00
Zn2699 Zn    0.83333   0.88437   0.75000   0.00000  Uiso   1.00
Zn2700 Zn    0.83333   0.78229   0.75000   0.00000  Uiso   1.00
loop_
_geom_bond_atom_site_label_1
_geom_bond_atom_site_label_2
_geom_bond_distance
_geom_bond_site_symmetry_2
_ccdc_geom_bond_type
C1     O143    1.287   .     A
C1     O129    1.280   .     A
C1     C19     1.426   .     S
C2     C18     1.409   .     A
C2     O138    1.384   .     S
C2     C154    1.372   .     S
C3     C18     1.411   .     A
C3     O139    1.385   .     S
C3     C204    1.380   .     S
C4     C19     1.406   .     A
C4     O141    1.385   .     S
C4     C302    1.372   1_455 S
C5     C16     1.409   .     A
C5     O148    1.384   .     S
C5     C9      1.385   .     A
C6     O130    1.384   .     S
C6     C17     1.407   .     A
C6     C10     1.394   .     A
C7     C11     1.385   .     A
C7     C17     1.408   .     A
C7     O131    1.385   .     S
C8     C13     1.393   .     A
C8     O132    1.383   .     S
C8     C16     1.406   .     A
C9     C14     1.411   .     A
C9     O133    1.385   .     S
C10    C15     1.416   .     A
C10    O134    1.384   .     S
C11    C15     1.413   .     A
C11    O135    1.385   .     S
C12    O140    1.288   .     A
C12    O142    1.283   .     A
C12    C18     1.433   .     S
C13    C14     1.417   .     A
C13    O136    1.383   .     S
C14    C23     1.462   .     S
C15    C34     1.462   .     S
C16    C1367   1.462   1_554 S
C17    C1366   1.462   .     S
C19    C54     1.407   .     A
C20    O148    1.422   .     S
C20    H110    1.105   .     S
C20    H99     1.110   .     S
C20    C21     1.546   .     S
C21    C22     1.526   .     S
C21    H125    1.111   .     S
C21    H121    1.109   .     S
C22    H57     1.109   .     S
C22    H126    1.110   .     S
C22    H56     1.111   .     S
C23    O147    1.293   .     A
C23    O144    1.294   .     A
C24    O130    1.421   .     S
C24    C25     1.528   .     S
C24    H59     1.119   .     S
C24    H1408   1.111   .     S
C25    H60     1.110   .     S
C25    H61     1.112   .     S
C25    C1376   1.521   .     S
C26    H64     1.109   .     S
C26    H62     1.109   .     S
C26    C1375   1.521   1_554 S
C26    H1413   1.108   1_554 S
C27    O131    1.421   .     S
C27    H65     1.109   .     S
C27    C28     1.543   .     S
C27    H1417   1.107   .     S
C28    H69     1.111   .     S
C28    C29     1.526   .     S
C28    H68     1.108   .     S
C29    H72     1.110   .     S
C29    H70     1.110   .     S
C29    H71     1.110   .     S
C30    C31     1.529   .     S
C30    H74     1.119   .     S
C30    O132    1.421   .     S
C30    H1423   1.112   1_554 S
C31    H75     1.110   .     S
C31    C32     1.522   .     S
C31    H76     1.112   .     S
C32    H80     1.109   .     S
C32    H1428   1.110   1_554 S
C32    H979    1.107   1_545 S
C33    C35     1.532   .     S
C33    H82     1.110   .     S
C33    O133    1.423   .     S
C33    H81     1.109   .     S
C34    O145    1.295   .     A
C34    O146    1.293   .     A
C35    H83     1.108   .     S
C35    H84     1.109   .     S
C35    C36     1.529   .     S
C36    H87     1.110   .     S
C36    H86     1.107   .     S
C36    H85     1.111   .     S
C37    C38     1.524   .     S
C37    H90     1.117   .     S
C37    O134    1.419   .     S
C37    H89     1.110   .     S
C38    H92     1.109   .     S
C38    C39     1.525   .     S
C38    H91     1.107   .     S
C39    H93     1.111   .     S
C39    H994    1.105   1_545 S
C39    H995    1.109   1_545 S
C40    H96     1.110   .     S
C40    O135    1.424   .     S
C40    H97     1.110   .     S
C40    C41     1.533   .     S
C41    C42     1.526   .     S
C41    H100    1.108   .     S
C41    H98     1.109   .     S
C42    H103    1.110   .     S
C42    H102    1.107   .     S
C42    H101    1.109   .     S
C43    H105    1.116   .     S
C43    H104    1.110   .     S
C43    C44     1.522   .     S
C43    O136    1.417   .     S
C44    H107    1.109   .     S
C44    H106    1.107   .     S
C44    C946    1.525   1_545 S
C45    N128    1.366   .     A
C45    H55     1.081   .     S
C45    C953    1.415   1_545 S
C46    H109    1.104   .     S
C46    H111    1.110   .     S
C46    C494    1.525   .     S
C46    H558    1.110   .     S
C47    H114    1.113   .     S
C47    H112    1.108   .     S
C47    O137    1.414   .     S
C47    H113    1.110   .     S
C48    H116    1.114   .     S
C48    H115    1.109   .     S
C48    H117    1.113   .     S
C48    O138    1.413   .     S
C49    H118    1.115   .     S
C49    O139    1.410   .     S
C49    H119    1.108   .     S
C49    H120    1.108   .     S
C50    H122    1.108   .     S
C50    O141    1.410   .     S
C50    H124    1.112   .     S
C50    H123    1.113   .     S
C51    H66     1.081   .     S
C51    N127    1.366   .     A
C51    C502    1.415   .     S
C52    N128    1.366   .     A
C52    H77     1.078   .     S
C52    C951    1.415   1_545 S
C53    N127    1.366   .     A
C53    H88     1.079   .     S
C53    C495    1.415   .     S
C54    O137    1.383   .     S
C54    C303    1.380   1_455 S
H58    C1374   1.111   1_554 S
H63    C1376   1.108   .     S
H67    C1377   1.107   1_554 S
H73    C1380   1.112   .     S
H78    C1382   1.110   .     S
H79    C482    1.107   .     S
H94    C489    1.105   .     S
H95    C489    1.109   .     S
H108   C946    1.110   1_545 S
N127   Zn149   2.011   .     S
N128   Zn150   2.011   .     S
O129   Zn149   2.003   .     S
O140   Zn150   2.003   .     S
O142   Zn149   2.007   .     S
O143   Zn150   2.007   .     S
O144   Zn149   2.022   .     S
O145   Zn150   2.022   .     S
O146   Zn149   2.019   .     S
O147   Zn150   2.019   .     S
C151   O293    1.287   .     A
C151   O279    1.280   .     A
C151   C169    1.426   .     S
C152   C168    1.409   .     A
C152   O288    1.384   .     S
C152   C304    1.372   .     S
C153   C168    1.411   .     A
C153   O289    1.385   .     S
C153   C354    1.380   .     S
C154   C169    1.406   .     A
C154   O291    1.385   .     S
C155   C166    1.409   .     A
C155   O298    1.384   .     S
C155   C159    1.385   .     A
C156   O280    1.384   .     S
C156   C167    1.407   .     A
C156   C160    1.394   .     A
C157   C161    1.385   .     A
C157   C167    1.408   .     A
C157   O281    1.385   .     S
C158   C163    1.393   .     A
C158   O282    1.383   .     S
C158   C166    1.406   .     A
C159   C164    1.411   .     A
C159   O283    1.385   .     S
C160   C165    1.416   .     A
C160   O284    1.384   .     S
C161   C165    1.413   .     A
C161   O285    1.385   .     S
C162   O290    1.288   .     A
C162   O292    1.283   .     A
C162   C168    1.433   .     S
C163   C164    1.417   .     A
C163   O286    1.383   .     S
C164   C173    1.462   .     S
C165   C184    1.462   .     S
C166   C1517   1.462   1_554 S
C167   C1516   1.462   .     S
C169   C204    1.407   .     A
C170   O298    1.422   .     S
C170   H260    1.105   .     S
C170   H249    1.110   .     S
C170   C171    1.546   .     S
C171   C172    1.526   .     S
C171   H275    1.111   .     S
C171   H271    1.109   .     S
C172   H207    1.109   .     S
C172   H276    1.110   .     S
C172   H206    1.111   .     S
C173   O297    1.293   .     A
C173   O294    1.294   .     A
C174   O280    1.421   .     S
C174   C175    1.528   .     S
C174   H209    1.119   .     S
C174   H1558   1.111   .     S
C175   H210    1.110   .     S
C175   H211    1.112   .     S
C175   C1526   1.521   .     S
C176   H214    1.109   .     S
C176   H212    1.109   .     S
C176   C1525   1.521   1_554 S
C176   H1563   1.108   1_554 S
C177   O281    1.421   .     S
C177   H215    1.109   .     S
C177   C178    1.543   .     S
C177   H1567   1.107   .     S
C178   H219    1.111   .     S
C178   C179    1.526   .     S
C178   H218    1.108   .     S
C179   H222    1.110   .     S
C179   H220    1.110   .     S
C179   H221    1.110   .     S
C180   C181    1.529   .     S
C180   H224    1.119   .     S
C180   O282    1.421   .     S
C180   H1573   1.112   1_554 S
C181   H225    1.110   .     S
C181   C182    1.522   .     S
C181   H226    1.112   .     S
C182   H230    1.109   .     S
C182   H1578   1.110   1_554 S
C182   H1129   1.107   1_545 S
C183   C185    1.532   .     S
C183   H232    1.110   .     S
C183   O283    1.423   .     S
C183   H231    1.109   .     S
C184   O295    1.295   .     A
C184   O296    1.293   .     A
C185   H233    1.108   .     S
C185   H234    1.109   .     S
C185   C186    1.529   .     S
C186   H237    1.110   .     S
C186   H236    1.107   .     S
C186   H235    1.111   .     S
C187   C188    1.524   .     S
C187   H240    1.117   .     S
C187   O284    1.419   .     S
C187   H239    1.110   .     S
C188   H242    1.109   .     S
C188   C189    1.525   .     S
C188   H241    1.107   .     S
C189   H243    1.111   .     S
C189   H1144   1.105   1_545 S
C189   H1145   1.109   1_545 S
C190   H246    1.110   .     S
C190   O285    1.424   .     S
C190   H247    1.110   .     S
C190   C191    1.533   .     S
C191   C192    1.526   .     S
C191   H250    1.108   .     S
C191   H248    1.109   .     S
C192   H253    1.110   .     S
C192   H252    1.107   .     S
C192   H251    1.109   .     S
C193   H255    1.116   .     S
C193   H254    1.110   .     S
C193   C194    1.522   .     S
C193   O286    1.417   .     S
C194   H257    1.109   .     S
C194   H256    1.107   .     S
C194   C1096   1.525   1_545 S
C195   N278    1.366   .     A
C195   H205    1.081   .     S
C195   C1103   1.415   1_545 S
C196   H259    1.104   .     S
C196   H261    1.110   .     S
C196   C644    1.525   .     S
C196   H708    1.110   .     S
C197   H264    1.113   .     S
C197   H262    1.108   .     S
C197   O287    1.414   .     S
C197   H263    1.110   .     S
C198   H266    1.114   .     S
C198   H265    1.109   .     S
C198   H267    1.113   .     S
C198   O288    1.413   .     S
C199   H268    1.115   .     S
C199   O289    1.410   .     S
C199   H269    1.108   .     S
C199   H270    1.108   .     S
C200   H272    1.108   .     S
C200   O291    1.410   .     S
C200   H274    1.112   .     S
C200   H273    1.113   .     S
C201   H216    1.081   .     S
C201   N277    1.366   .     A
C201   C652    1.415   .     S
C202   N278    1.366   .     A
C202   H227    1.078   .     S
C202   C1101   1.415   1_545 S
C203   N277    1.366   .     A
C203   H238    1.079   .     S
C203   C645    1.415   .     S
C204   O287    1.383   .     S
H208   C1524   1.111   1_554 S
H213   C1526   1.108   .     S
H217   C1527   1.107   1_554 S
H223   C1530   1.112   .     S
H228   C1532   1.110   .     S
H229   C632    1.107   .     S
H244   C639    1.105   .     S
H245   C639    1.109   .     S
H258   C1096   1.110   1_545 S
N277   Zn299   2.011   .     S
N278   Zn300   2.011   .     S
O279   Zn299   2.003   .     S
O290   Zn300   2.003   .     S
O292   Zn299   2.007   .     S
O293   Zn300   2.007   .     S
O294   Zn299   2.022   .     S
O295   Zn300   2.022   .     S
O296   Zn299   2.019   .     S
O297   Zn300   2.019   .     S
C301   O443    1.287   .     A
C301   O429    1.280   .     A
C301   C319    1.426   .     S
C302   C318    1.409   .     A
C302   O438    1.384   .     S
C302   C4      1.372   1_655 S
C303   C318    1.411   .     A
C303   O439    1.385   .     S
C303   C54     1.380   1_655 S
C304   C319    1.406   .     A
C304   O441    1.385   .     S
C305   C316    1.409   .     A
C305   O448    1.384   .     S
C305   C309    1.385   .     A
C306   O430    1.384   .     S
C306   C317    1.407   .     A
C306   C310    1.394   .     A
C307   C311    1.385   .     A
C307   C317    1.408   .     A
C307   O431    1.385   .     S
C308   C313    1.393   .     A
C308   O432    1.383   .     S
C308   C316    1.406   .     A
C309   C314    1.411   .     A
C309   O433    1.385   .     S
C310   C315    1.416   .     A
C310   O434    1.384   .     S
C311   C315    1.413   .     A
C311   O435    1.385   .     S
C312   O440    1.288   .     A
C312   O442    1.283   .     A
C312   C318    1.433   .     S
C313   C314    1.417   .     A
C313   O436    1.383   .     S
C314   C323    1.462   .     S
C315   C334    1.462   .     S
C316   C1667   1.462   1_554 S
C317   C1666   1.462   .     S
C319   C354    1.407   .     A
C320   O448    1.422   .     S
C320   H410    1.105   .     S
C320   H399    1.110   .     S
C320   C321    1.546   .     S
C321   C322    1.526   .     S
C321   H425    1.111   .     S
C321   H421    1.109   .     S
C322   H357    1.109   .     S
C322   H426    1.110   .     S
C322   H356    1.111   .     S
C323   O447    1.293   .     A
C323   O444    1.294   .     A
C324   O430    1.421   .     S
C324   C325    1.528   .     S
C324   H359    1.119   .     S
C324   H1708   1.111   .     S
C325   H360    1.110   .     S
C325   H361    1.112   .     S
C325   C1676   1.521   .     S
C326   H364    1.109   .     S
C326   H362    1.109   .     S
C326   C1675   1.521   1_554 S
C326   H1713   1.108   1_554 S
C327   O431    1.421   .     S
C327   H365    1.109   .     S
C327   C328    1.543   .     S
C327   H1717   1.107   .     S
C328   H369    1.111   .     S
C328   C329    1.526   .     S
C328   H368    1.108   .     S
C329   H372    1.110   .     S
C329   H370    1.110   .     S
C329   H371    1.110   .     S
C330   C331    1.529   .     S
C330   H374    1.119   .     S
C330   O432    1.421   .     S
C330   H1723   1.112   1_554 S
C331   H375    1.110   .     S
C331   C332    1.522   .     S
C331   H376    1.112   .     S
C332   H380    1.109   .     S
C332   H1728   1.110   1_554 S
C332   H1279   1.107   1_545 S
C333   C335    1.532   .     S
C333   H382    1.110   .     S
C333   O433    1.423   .     S
C333   H381    1.109   .     S
C334   O445    1.295   .     A
C334   O446    1.293   .     A
C335   H383    1.108   .     S
C335   H384    1.109   .     S
C335   C336    1.529   .     S
C336   H387    1.110   .     S
C336   H386    1.107   .     S
C336   H385    1.111   .     S
C337   C338    1.524   .     S
C337   H390    1.117   .     S
C337   O434    1.419   .     S
C337   H389    1.110   .     S
C338   H392    1.109   .     S
C338   C339    1.525   .     S
C338   H391    1.107   .     S
C339   H393    1.111   .     S
C339   H1294   1.105   1_545 S
C339   H1295   1.109   1_545 S
C340   H396    1.110   .     S
C340   O435    1.424   .     S
C340   H397    1.110   .     S
C340   C341    1.533   .     S
C341   C342    1.526   .     S
C341   H400    1.108   .     S
C341   H398    1.109   .     S
C342   H403    1.110   .     S
C342   H402    1.107   .     S
C342   H401    1.109   .     S
C343   H405    1.116   .     S
C343   H404    1.110   .     S
C343   C344    1.522   .     S
C343   O436    1.417   .     S
C344   H407    1.109   .     S
C344   H406    1.107   .     S
C344   C1246   1.525   1_545 S
C345   N428    1.366   .     A
C345   H355    1.081   .     S
C345   C1253   1.415   1_545 S
C346   H409    1.104   .     S
C346   H411    1.110   .     S
C346   C794    1.525   .     S
C346   H858    1.110   .     S
C347   H414    1.113   .     S
C347   H412    1.108   .     S
C347   O437    1.414   .     S
C347   H413    1.110   .     S
C348   H416    1.114   .     S
C348   H415    1.109   .     S
C348   H417    1.113   .     S
C348   O438    1.413   .     S
C349   H418    1.115   .     S
C349   O439    1.410   .     S
C349   H419    1.108   .     S
C349   H420    1.108   .     S
C350   H422    1.108   .     S
C350   O441    1.410   .     S
C350   H424    1.112   .     S
C350   H423    1.113   .     S
C351   H366    1.081   .     S
C351   N427    1.366   .     A
C351   C802    1.415   .     S
C352   N428    1.366   .     A
C352   H377    1.078   .     S
C352   C1251   1.415   1_545 S
C353   N427    1.366   .     A
C353   H388    1.079   .     S
C353   C795    1.415   .     S
C354   O437    1.383   .     S
H358   C1674   1.111   1_554 S
H363   C1676   1.108   .     S
H367   C1677   1.107   1_554 S
H373   C1680   1.112   .     S
H378   C1682   1.110   .     S
H379   C782    1.107   .     S
H394   C789    1.105   .     S
H395   C789    1.109   .     S
H408   C1246   1.110   1_545 S
N427   Zn449   2.011   .     S
N428   Zn450   2.011   .     S
O429   Zn449   2.003   .     S
O440   Zn450   2.003   .     S
O442   Zn449   2.007   .     S
O443   Zn450   2.007   .     S
O444   Zn449   2.022   .     S
O445   Zn450   2.022   .     S
O446   Zn449   2.019   .     S
O447   Zn450   2.019   .     S
C451   O593    1.287   .     A
C451   O579    1.280   .     A
C451   C469    1.426   .     S
C452   C468    1.409   .     A
C452   O588    1.384   .     S
C452   C604    1.372   .     S
C453   C468    1.411   .     A
C453   O589    1.385   .     S
C453   C654    1.380   .     S
C454   C469    1.406   .     A
C454   O591    1.385   .     S
C454   C752    1.372   1_455 S
C455   C466    1.409   .     A
C455   O598    1.384   .     S
C455   C459    1.385   .     A
C456   O580    1.384   .     S
C456   C467    1.407   .     A
C456   C460    1.394   .     A
C457   C461    1.385   .     A
C457   C467    1.408   .     A
C457   O581    1.385   .     S
C458   C463    1.393   .     A
C458   O582    1.383   .     S
C458   C466    1.406   .     A
C459   C464    1.411   .     A
C459   O583    1.385   .     S
C460   C465    1.416   .     A
C460   O584    1.384   .     S
C461   C465    1.413   .     A
C461   O585    1.385   .     S
C462   O590    1.288   .     A
C462   O592    1.283   .     A
C462   C468    1.433   .     S
C463   C464    1.417   .     A
C463   O586    1.383   .     S
C464   C473    1.462   .     S
C465   C484    1.462   .     S
C466   C1817   1.462   1_554 S
C467   C1816   1.462   .     S
C469   C504    1.407   .     A
C470   O598    1.422   .     S
C470   H560    1.105   .     S
C470   H549    1.110   .     S
C470   C471    1.546   .     S
C471   C472    1.526   .     S
C471   H575    1.111   .     S
C471   H571    1.109   .     S
C472   H507    1.109   .     S
C472   H576    1.110   .     S
C472   H506    1.111   .     S
C473   O597    1.293   .     A
C473   O594    1.294   .     A
C474   O580    1.421   .     S
C474   C475    1.528   .     S
C474   H509    1.119   .     S
C474   H1858   1.111   .     S
C475   H510    1.110   .     S
C475   H511    1.112   .     S
C475   C1826   1.521   .     S
C476   H514    1.109   .     S
C476   H512    1.109   .     S
C476   C1825   1.521   1_554 S
C476   H1863   1.108   1_554 S
C477   O581    1.421   .     S
C477   H515    1.109   .     S
C477   C478    1.543   .     S
C477   H1867   1.107   .     S
C478   H519    1.111   .     S
C478   C479    1.526   .     S
C478   H518    1.108   .     S
C479   H522    1.110   .     S
C479   H520    1.110   .     S
C479   H521    1.110   .     S
C480   C481    1.529   .     S
C480   H524    1.119   .     S
C480   O582    1.421   .     S
C480   H1873   1.112   1_554 S
C481   H525    1.110   .     S
C481   C482    1.522   .     S
C481   H526    1.112   .     S
C482   H530    1.109   .     S
C482   H1878   1.110   1_554 S
C483   C485    1.532   .     S
C483   H532    1.110   .     S
C483   O583    1.423   .     S
C483   H531    1.109   .     S
C484   O595    1.295   .     A
C484   O596    1.293   .     A
C485   H533    1.108   .     S
C485   H534    1.109   .     S
C485   C486    1.529   .     S
C486   H537    1.110   .     S
C486   H536    1.107   .     S
C486   H535    1.111   .     S
C487   C488    1.524   .     S
C487   H540    1.117   .     S
C487   O584    1.419   .     S
C487   H539    1.110   .     S
C488   H542    1.109   .     S
C488   C489    1.525   .     S
C488   H541    1.107   .     S
C489   H543    1.111   .     S
C490   H546    1.110   .     S
C490   O585    1.424   .     S
C490   H547    1.110   .     S
C490   C491    1.533   .     S
C491   C492    1.526   .     S
C491   H550    1.108   .     S
C491   H548    1.109   .     S
C492   H553    1.110   .     S
C492   H552    1.107   .     S
C492   H551    1.109   .     S
C493   H555    1.116   .     S
C493   H554    1.110   .     S
C493   C494    1.522   .     S
C493   O586    1.417   .     S
C494   H557    1.109   .     S
C494   H556    1.107   .     S
C495   N578    1.366   .     A
C495   H505    1.081   .     S
C496   H559    1.104   .     S
C496   H561    1.110   .     S
C496   C944    1.525   .     S
C496   H1008   1.110   .     S
C497   H564    1.113   .     S
C497   H562    1.108   .     S
C497   O587    1.414   .     S
C497   H563    1.110   .     S
C498   H566    1.114   .     S
C498   H565    1.109   .     S
C498   H567    1.113   .     S
C498   O588    1.413   .     S
C499   H568    1.115   .     S
C499   O589    1.410   .     S
C499   H569    1.108   .     S
C499   H570    1.108   .     S
C500   H572    1.108   .     S
C500   O591    1.410   .     S
C500   H574    1.112   .     S
C500   H573    1.113   .     S
C501   H516    1.081   .     S
C501   N577    1.366   .     A
C501   C952    1.415   .     S
C502   N578    1.366   .     A
C502   H527    1.078   .     S
C503   N577    1.366   .     A
C503   H538    1.079   .     S
C503   C945    1.415   .     S
C504   O587    1.383   .     S
C504   C753    1.380   1_455 S
H508   C1824   1.111   1_554 S
H513   C1826   1.108   .     S
H517   C1827   1.107   1_554 S
H523   C1830   1.112   .     S
H528   C1832   1.110   .     S
H529   C932    1.107   .     S
H544   C939    1.105   .     S
H545   C939    1.109   .     S
N577   Zn599   2.011   .     S
N578   Zn600   2.011   .     S
O579   Zn599   2.003   .     S
O590   Zn600   2.003   .     S
O592   Zn599   2.007   .     S
O593   Zn600   2.007   .     S
O594   Zn599   2.022   .     S
O595   Zn600   2.022   .     S
O596   Zn599   2.019   .     S
O597   Zn600   2.019   .     S
C601   O743    1.287   .     A
C601   O729    1.280   .     A
C601   C619    1.426   .     S
C602   C618    1.409   .     A
C602   O738    1.384   .     S
C602   C754    1.372   .     S
C603   C618    1.411   .     A
C603   O739    1.385   .     S
C603   C804    1.380   .     S
C604   C619    1.406   .     A
C604   O741    1.385   .     S
C605   C616    1.409   .     A
C605   O748    1.384   .     S
C605   C609    1.385   .     A
C606   O730    1.384   .     S
C606   C617    1.407   .     A
C606   C610    1.394   .     A
C607   C611    1.385   .     A
C607   C617    1.408   .     A
C607   O731    1.385   .     S
C608   C613    1.393   .     A
C608   O732    1.383   .     S
C608   C616    1.406   .     A
C609   C614    1.411   .     A
C609   O733    1.385   .     S
C610   C615    1.416   .     A
C610   O734    1.384   .     S
C611   C615    1.413   .     A
C611   O735    1.385   .     S
C612   O740    1.288   .     A
C612   O742    1.283   .     A
C612   C618    1.433   .     S
C613   C614    1.417   .     A
C613   O736    1.383   .     S
C614   C623    1.462   .     S
C615   C634    1.462   .     S
C616   C1967   1.462   1_554 S
C617   C1966   1.462   .     S
C619   C654    1.407   .     A
C620   O748    1.422   .     S
C620   H710    1.105   .     S
C620   H699    1.110   .     S
C620   C621    1.546   .     S
C621   C622    1.526   .     S
C621   H725    1.111   .     S
C621   H721    1.109   .     S
C622   H657    1.109   .     S
C622   H726    1.110   .     S
C622   H656    1.111   .     S
C623   O747    1.293   .     A
C623   O744    1.294   .     A
C624   O730    1.421   .     S
C624   C625    1.528   .     S
C624   H659    1.119   .     S
C624   H2008   1.111   .     S
C625   H660    1.110   .     S
C625   H661    1.112   .     S
C625   C1976   1.521   .     S
C626   H664    1.109   .     S
C626   H662    1.109   .     S
C626   C1975   1.521   1_554 S
C626   H2013   1.108   1_554 S
C627   O731    1.421   .     S
C627   H665    1.109   .     S
C627   C628    1.543   .     S
C627   H2017   1.107   .     S
C628   H669    1.111   .     S
C628   C629    1.526   .     S
C628   H668    1.108   .     S
C629   H672    1.110   .     S
C629   H670    1.110   .     S
C629   H671    1.110   .     S
C630   C631    1.529   .     S
C630   H674    1.119   .     S
C630   O732    1.421   .     S
C630   H2023   1.112   1_554 S
C631   H675    1.110   .     S
C631   C632    1.522   .     S
C631   H676    1.112   .     S
C632   H680    1.109   .     S
C632   H2028   1.110   1_554 S
C633   C635    1.532   .     S
C633   H682    1.110   .     S
C633   O733    1.423   .     S
C633   H681    1.109   .     S
C634   O745    1.295   .     A
C634   O746    1.293   .     A
C635   H683    1.108   .     S
C635   H684    1.109   .     S
C635   C636    1.529   .     S
C636   H687    1.110   .     S
C636   H686    1.107   .     S
C636   H685    1.111   .     S
C637   C638    1.524   .     S
C637   H690    1.117   .     S
C637   O734    1.419   .     S
C637   H689    1.110   .     S
C638   H692    1.109   .     S
C638   C639    1.525   .     S
C638   H691    1.107   .     S
C639   H693    1.111   .     S
C640   H696    1.110   .     S
C640   O735    1.424   .     S
C640   H697    1.110   .     S
C640   C641    1.533   .     S
C641   C642    1.526   .     S
C641   H700    1.108   .     S
C641   H698    1.109   .     S
C642   H703    1.110   .     S
C642   H702    1.107   .     S
C642   H701    1.109   .     S
C643   H705    1.116   .     S
C643   H704    1.110   .     S
C643   C644    1.522   .     S
C643   O736    1.417   .     S
C644   H707    1.109   .     S
C644   H706    1.107   .     S
C645   N728    1.366   .     A
C645   H655    1.081   .     S
C646   H709    1.104   .     S
C646   H711    1.110   .     S
C646   C1094   1.525   .     S
C646   H1158   1.110   .     S
C647   H714    1.113   .     S
C647   H712    1.108   .     S
C647   O737    1.414   .     S
C647   H713    1.110   .     S
C648   H716    1.114   .     S
C648   H715    1.109   .     S
C648   H717    1.113   .     S
C648   O738    1.413   .     S
C649   H718    1.115   .     S
C649   O739    1.410   .     S
C649   H719    1.108   .     S
C649   H720    1.108   .     S
C650   H722    1.108   .     S
C650   O741    1.410   .     S
C650   H724    1.112   .     S
C650   H723    1.113   .     S
C651   H666    1.081   .     S
C651   N727    1.366   .     A
C651   C1102   1.415   .     S
C652   N728    1.366   .     A
C652   H677    1.078   .     S
C653   N727    1.366   .     A
C653   H688    1.079   .     S
C653   C1095   1.415   .     S
C654   O737    1.383   .     S
H658   C1974   1.111   1_554 S
H663   C1976   1.108   .     S
H667   C1977   1.107   1_554 S
H673   C1980   1.112   .     S
H678   C1982   1.110   .     S
H679   C1082   1.107   .     S
H694   C1089   1.105   .     S
H695   C1089   1.109   .     S
N727   Zn749   2.011   .     S
N728   Zn750   2.011   .     S
O729   Zn749   2.003   .     S
O740   Zn750   2.003   .     S
O742   Zn749   2.007   .     S
O743   Zn750   2.007   .     S
O744   Zn749   2.022   .     S
O745   Zn750   2.022   .     S
O746   Zn749   2.019   .     S
O747   Zn750   2.019   .     S
C751   O893    1.287   .     A
C751   O879    1.280   .     A
C751   C769    1.426   .     S
C752   C768    1.409   .     A
C752   O888    1.384   .     S
C752   C454    1.372   1_655 S
C753   C768    1.411   .     A
C753   O889    1.385   .     S
C753   C504    1.380   1_655 S
C754   C769    1.406   .     A
C754   O891    1.385   .     S
C755   C766    1.409   .     A
C755   O898    1.384   .     S
C755   C759    1.385   .     A
C756   O880    1.384   .     S
C756   C767    1.407   .     A
C756   C760    1.394   .     A
C757   C761    1.385   .     A
C757   C767    1.408   .     A
C757   O881    1.385   .     S
C758   C763    1.393   .     A
C758   O882    1.383   .     S
C758   C766    1.406   .     A
C759   C764    1.411   .     A
C759   O883    1.385   .     S
C760   C765    1.416   .     A
C760   O884    1.384   .     S
C761   C765    1.413   .     A
C761   O885    1.385   .     S
C762   O890    1.288   .     A
C762   O892    1.283   .     A
C762   C768    1.433   .     S
C763   C764    1.417   .     A
C763   O886    1.383   .     S
C764   C773    1.462   .     S
C765   C784    1.462   .     S
C766   C2117   1.462   1_554 S
C767   C2116   1.462   .     S
C769   C804    1.407   .     A
C770   O898    1.422   .     S
C770   H860    1.105   .     S
C770   H849    1.110   .     S
C770   C771    1.546   .     S
C771   C772    1.526   .     S
C771   H875    1.111   .     S
C771   H871    1.109   .     S
C772   H807    1.109   .     S
C772   H876    1.110   .     S
C772   H806    1.111   .     S
C773   O897    1.293   .     A
C773   O894    1.294   .     A
C774   O880    1.421   .     S
C774   C775    1.528   .     S
C774   H809    1.119   .     S
C774   H2158   1.111   .     S
C775   H810    1.110   .     S
C775   H811    1.112   .     S
C775   C2126   1.521   .     S
C776   H814    1.109   .     S
C776   H812    1.109   .     S
C776   C2125   1.521   1_554 S
C776   H2163   1.108   1_554 S
C777   O881    1.421   .     S
C777   H815    1.109   .     S
C777   C778    1.543   .     S
C777   H2167   1.107   .     S
C778   H819    1.111   .     S
C778   C779    1.526   .     S
C778   H818    1.108   .     S
C779   H822    1.110   .     S
C779   H820    1.110   .     S
C779   H821    1.110   .     S
C780   C781    1.529   .     S
C780   H824    1.119   .     S
C780   O882    1.421   .     S
C780   H2173   1.112   1_554 S
C781   H825    1.110   .     S
C781   C782    1.522   .     S
C781   H826    1.112   .     S
C782   H830    1.109   .     S
C782   H2178   1.110   1_554 S
C783   C785    1.532   .     S
C783   H832    1.110   .     S
C783   O883    1.423   .     S
C783   H831    1.109   .     S
C784   O895    1.295   .     A
C784   O896    1.293   .     A
C785   H833    1.108   .     S
C785   H834    1.109   .     S
C785   C786    1.529   .     S
C786   H837    1.110   .     S
C786   H836    1.107   .     S
C786   H835    1.111   .     S
C787   C788    1.524   .     S
C787   H840    1.117   .     S
C787   O884    1.419   .     S
C787   H839    1.110   .     S
C788   H842    1.109   .     S
C788   C789    1.525   .     S
C788   H841    1.107   .     S
C789   H843    1.111   .     S
C790   H846    1.110   .     S
C790   O885    1.424   .     S
C790   H847    1.110   .     S
C790   C791    1.533   .     S
C791   C792    1.526   .     S
C791   H850    1.108   .     S
C791   H848    1.109   .     S
C792   H853    1.110   .     S
C792   H852    1.107   .     S
C792   H851    1.109   .     S
C793   H855    1.116   .     S
C793   H854    1.110   .     S
C793   C794    1.522   .     S
C793   O886    1.417   .     S
C794   H857    1.109   .     S
C794   H856    1.107   .     S
C795   N878    1.366   .     A
C795   H805    1.081   .     S
C796   H859    1.104   .     S
C796   H861    1.110   .     S
C796   C1244   1.525   .     S
C796   H1308   1.110   .     S
C797   H864    1.113   .     S
C797   H862    1.108   .     S
C797   O887    1.414   .     S
C797   H863    1.110   .     S
C798   H866    1.114   .     S
C798   H865    1.109   .     S
C798   H867    1.113   .     S
C798   O888    1.413   .     S
C799   H868    1.115   .     S
C799   O889    1.410   .     S
C799   H869    1.108   .     S
C799   H870    1.108   .     S
C800   H872    1.108   .     S
C800   O891    1.410   .     S
C800   H874    1.112   .     S
C800   H873    1.113   .     S
C801   H816    1.081   .     S
C801   N877    1.366   .     A
C801   C1252   1.415   .     S
C802   N878    1.366   .     A
C802   H827    1.078   .     S
C803   N877    1.366   .     A
C803   H838    1.079   .     S
C803   C1245   1.415   .     S
C804   O887    1.383   .     S
H808   C2124   1.111   1_554 S
H813   C2126   1.108   .     S
H817   C2127   1.107   1_554 S
H823   C2130   1.112   .     S
H828   C2132   1.110   .     S
H829   C1232   1.107   .     S
H844   C1239   1.105   .     S
H845   C1239   1.109   .     S
N877   Zn899   2.011   .     S
N878   Zn900   2.011   .     S
O879   Zn899   2.003   .     S
O890   Zn900   2.003   .     S
O892   Zn899   2.007   .     S
O893   Zn900   2.007   .     S
O894   Zn899   2.022   .     S
O895   Zn900   2.022   .     S
O896   Zn899   2.019   .     S
O897   Zn900   2.019   .     S
C901   O1043   1.287   .     A
C901   O1029   1.280   .     A
C901   C919    1.426   .     S
C902   C918    1.409   .     A
C902   O1038   1.384   .     S
C902   C1054   1.372   .     S
C903   C918    1.411   .     A
C903   O1039   1.385   .     S
C903   C1104   1.380   .     S
C904   C919    1.406   .     A
C904   O1041   1.385   .     S
C904   C1202   1.372   1_455 S
C905   C916    1.409   .     A
C905   O1048   1.384   .     S
C905   C909    1.385   .     A
C906   O1030   1.384   .     S
C906   C917    1.407   .     A
C906   C910    1.394   .     A
C907   C911    1.385   .     A
C907   C917    1.408   .     A
C907   O1031   1.385   .     S
C908   C913    1.393   .     A
C908   O1032   1.383   .     S
C908   C916    1.406   .     A
C909   C914    1.411   .     A
C909   O1033   1.385   .     S
C910   C915    1.416   .     A
C910   O1034   1.384   .     S
C911   C915    1.413   .     A
C911   O1035   1.385   .     S
C912   O1040   1.288   .     A
C912   O1042   1.283   .     A
C912   C918    1.433   .     S
C913   C914    1.417   .     A
C913   O1036   1.383   .     S
C914   C923    1.462   .     S
C915   C934    1.462   .     S
C916   C2267   1.462   1_554 S
C917   C2266   1.462   .     S
C919   C954    1.407   .     A
C920   O1048   1.422   .     S
C920   H1010   1.105   .     S
C920   H999    1.110   .     S
C920   C921    1.546   .     S
C921   C922    1.526   .     S
C921   H1025   1.111   .     S
C921   H1021   1.109   .     S
C922   H957    1.109   .     S
C922   H1026   1.110   .     S
C922   H956    1.111   .     S
C923   O1047   1.293   .     A
C923   O1044   1.294   .     A
C924   O1030   1.421   .     S
C924   C925    1.528   .     S
C924   H959    1.119   .     S
C924   H2308   1.111   .     S
C925   H960    1.110   .     S
C925   H961    1.112   .     S
C925   C2276   1.521   .     S
C926   H964    1.109   .     S
C926   H962    1.109   .     S
C926   C2275   1.521   1_554 S
C926   H2313   1.108   1_554 S
C927   O1031   1.421   .     S
C927   H965    1.109   .     S
C927   C928    1.543   .     S
C927   H2317   1.107   .     S
C928   H969    1.111   .     S
C928   C929    1.526   .     S
C928   H968    1.108   .     S
C929   H972    1.110   .     S
C929   H970    1.110   .     S
C929   H971    1.110   .     S
C930   C931    1.529   .     S
C930   H974    1.119   .     S
C930   O1032   1.421   .     S
C930   H2323   1.112   1_554 S
C931   H975    1.110   .     S
C931   C932    1.522   .     S
C931   H976    1.112   .     S
C932   H980    1.109   .     S
C932   H2328   1.110   1_554 S
C933   C935    1.532   .     S
C933   H982    1.110   .     S
C933   O1033   1.423   .     S
C933   H981    1.109   .     S
C934   O1045   1.295   .     A
C934   O1046   1.293   .     A
C935   H983    1.108   .     S
C935   H984    1.109   .     S
C935   C936    1.529   .     S
C936   H987    1.110   .     S
C936   H986    1.107   .     S
C936   H985    1.111   .     S
C937   C938    1.524   .     S
C937   H990    1.117   .     S
C937   O1034   1.419   .     S
C937   H989    1.110   .     S
C938   H992    1.109   .     S
C938   C939    1.525   .     S
C938   H991    1.107   .     S
C939   H993    1.111   .     S
C940   H996    1.110   .     S
C940   O1035   1.424   .     S
C940   H997    1.110   .     S
C940   C941    1.533   .     S
C941   C942    1.526   .     S
C941   H1000   1.108   .     S
C941   H998    1.109   .     S
C942   H1003   1.110   .     S
C942   H1002   1.107   .     S
C942   H1001   1.109   .     S
C943   H1005   1.116   .     S
C943   H1004   1.110   .     S
C943   C944    1.522   .     S
C943   O1036   1.417   .     S
C944   H1007   1.109   .     S
C944   H1006   1.107   .     S
C945   N1028   1.366   .     A
C945   H955    1.081   .     S
C946   H1009   1.104   .     S
C946   H1011   1.110   .     S
C946   C44     1.525   1_565 S
C946   H108    1.110   1_565 S
C947   H1014   1.113   .     S
C947   H1012   1.108   .     S
C947   O1037   1.414   .     S
C947   H1013   1.110   .     S
C948   H1016   1.114   .     S
C948   H1015   1.109   .     S
C948   H1017   1.113   .     S
C948   O1038   1.413   .     S
C949   H1018   1.115   .     S
C949   O1039   1.410   .     S
C949   H1019   1.108   .     S
C949   H1020   1.108   .     S
C950   H1022   1.108   .     S
C950   O1041   1.410   .     S
C950   H1024   1.112   .     S
C950   H1023   1.113   .     S
C951   H966    1.081   .     S
C951   N1027   1.366   .     A
C951   C52     1.415   1_565 S
C952   N1028   1.366   .     A
C952   H977    1.078   .     S
C953   N1027   1.366   .     A
C953   H988    1.079   .     S
C953   C45     1.415   1_565 S
C954   O1037   1.383   .     S
C954   C1203   1.380   1_455 S
H958   C2274   1.111   1_554 S
H963   C2276   1.108   .     S
H967   C2277   1.107   1_554 S
H973   C2280   1.112   .     S
H978   C2282   1.110   .     S
H979   C32     1.107   1_565 S
H994   C39     1.105   1_565 S
H995   C39     1.109   1_565 S
N1027  Zn1049  2.011   .     S
N1028  Zn1050  2.011   .     S
O1029  Zn1049  2.003   .     S
O1040  Zn1050  2.003   .     S
O1042  Zn1049  2.007   .     S
O1043  Zn1050  2.007   .     S
O1044  Zn1049  2.022   .     S
O1045  Zn1050  2.022   .     S
O1046  Zn1049  2.019   .     S
O1047  Zn1050  2.019   .     S
C1051  O1193   1.287   .     A
C1051  O1179   1.280   .     A
C1051  C1069   1.426   .     S
C1052  C1068   1.409   .     A
C1052  O1188   1.384   .     S
C1052  C1204   1.372   .     S
C1053  C1068   1.411   .     A
C1053  O1189   1.385   .     S
C1053  C1254   1.380   .     S
C1054  C1069   1.406   .     A
C1054  O1191   1.385   .     S
C1055  C1066   1.409   .     A
C1055  O1198   1.384   .     S
C1055  C1059   1.385   .     A
C1056  O1180   1.384   .     S
C1056  C1067   1.407   .     A
C1056  C1060   1.394   .     A
C1057  C1061   1.385   .     A
C1057  C1067   1.408   .     A
C1057  O1181   1.385   .     S
C1058  C1063   1.393   .     A
C1058  O1182   1.383   .     S
C1058  C1066   1.406   .     A
C1059  C1064   1.411   .     A
C1059  O1183   1.385   .     S
C1060  C1065   1.416   .     A
C1060  O1184   1.384   .     S
C1061  C1065   1.413   .     A
C1061  O1185   1.385   .     S
C1062  O1190   1.288   .     A
C1062  O1192   1.283   .     A
C1062  C1068   1.433   .     S
C1063  C1064   1.417   .     A
C1063  O1186   1.383   .     S
C1064  C1073   1.462   .     S
C1065  C1084   1.462   .     S
C1066  C2417   1.462   1_554 S
C1067  C2416   1.462   .     S
C1069  C1104   1.407   .     A
C1070  O1198   1.422   .     S
C1070  H1160   1.105   .     S
C1070  H1149   1.110   .     S
C1070  C1071   1.546   .     S
C1071  C1072   1.526   .     S
C1071  H1175   1.111   .     S
C1071  H1171   1.109   .     S
C1072  H1107   1.109   .     S
C1072  H1176   1.110   .     S
C1072  H1106   1.111   .     S
C1073  O1197   1.293   .     A
C1073  O1194   1.294   .     A
C1074  O1180   1.421   .     S
C1074  C1075   1.528   .     S
C1074  H1109   1.119   .     S
C1074  H2458   1.111   .     S
C1075  H1110   1.110   .     S
C1075  H1111   1.112   .     S
C1075  C2426   1.521   .     S
C1076  H1114   1.109   .     S
C1076  H1112   1.109   .     S
C1076  C2425   1.521   1_554 S
C1076  H2463   1.108   1_554 S
C1077  O1181   1.421   .     S
C1077  H1115   1.109   .     S
C1077  C1078   1.543   .     S
C1077  H2467   1.107   .     S
C1078  H1119   1.111   .     S
C1078  C1079   1.526   .     S
C1078  H1118   1.108   .     S
C1079  H1122   1.110   .     S
C1079  H1120   1.110   .     S
C1079  H1121   1.110   .     S
C1080  C1081   1.529   .     S
C1080  H1124   1.119   .     S
C1080  O1182   1.421   .     S
C1080  H2473   1.112   1_554 S
C1081  H1125   1.110   .     S
C1081  C1082   1.522   .     S
C1081  H1126   1.112   .     S
C1082  H1130   1.109   .     S
C1082  H2478   1.110   1_554 S
C1083  C1085   1.532   .     S
C1083  H1132   1.110   .     S
C1083  O1183   1.423   .     S
C1083  H1131   1.109   .     S
C1084  O1195   1.295   .     A
C1084  O1196   1.293   .     A
C1085  H1133   1.108   .     S
C1085  H1134   1.109   .     S
C1085  C1086   1.529   .     S
C1086  H1137   1.110   .     S
C1086  H1136   1.107   .     S
C1086  H1135   1.111   .     S
C1087  C1088   1.524   .     S
C1087  H1140   1.117   .     S
C1087  O1184   1.419   .     S
C1087  H1139   1.110   .     S
C1088  H1142   1.109   .     S
C1088  C1089   1.525   .     S
C1088  H1141   1.107   .     S
C1089  H1143   1.111   .     S
C1090  H1146   1.110   .     S
C1090  O1185   1.424   .     S
C1090  H1147   1.110   .     S
C1090  C1091   1.533   .     S
C1091  C1092   1.526   .     S
C1091  H1150   1.108   .     S
C1091  H1148   1.109   .     S
C1092  H1153   1.110   .     S
C1092  H1152   1.107   .     S
C1092  H1151   1.109   .     S
C1093  H1155   1.116   .     S
C1093  H1154   1.110   .     S
C1093  C1094   1.522   .     S
C1093  O1186   1.417   .     S
C1094  H1157   1.109   .     S
C1094  H1156   1.107   .     S
C1095  N1178   1.366   .     A
C1095  H1105   1.081   .     S
C1096  H1159   1.104   .     S
C1096  H1161   1.110   .     S
C1096  C194    1.525   1_565 S
C1096  H258    1.110   1_565 S
C1097  H1164   1.113   .     S
C1097  H1162   1.108   .     S
C1097  O1187   1.414   .     S
C1097  H1163   1.110   .     S
C1098  H1166   1.114   .     S
C1098  H1165   1.109   .     S
C1098  H1167   1.113   .     S
C1098  O1188   1.413   .     S
C1099  H1168   1.115   .     S
C1099  O1189   1.410   .     S
C1099  H1169   1.108   .     S
C1099  H1170   1.108   .     S
C1100  H1172   1.108   .     S
C1100  O1191   1.410   .     S
C1100  H1174   1.112   .     S
C1100  H1173   1.113   .     S
C1101  H1116   1.081   .     S
C1101  N1177   1.366   .     A
C1101  C202    1.415   1_565 S
C1102  N1178   1.366   .     A
C1102  H1127   1.078   .     S
C1103  N1177   1.366   .     A
C1103  H1138   1.079   .     S
C1103  C195    1.415   1_565 S
C1104  O1187   1.383   .     S
H1108  C2424   1.111   1_554 S
H1113  C2426   1.108   .     S
H1117  C2427   1.107   1_554 S
H1123  C2430   1.112   .     S
H1128  C2432   1.110   .     S
H1129  C182    1.107   1_565 S
H1144  C189    1.105   1_565 S
H1145  C189    1.109   1_565 S
N1177  Zn1199  2.011   .     S
N1178  Zn1200  2.011   .     S
O1179  Zn1199  2.003   .     S
O1190  Zn1200  2.003   .     S
O1192  Zn1199  2.007   .     S
O1193  Zn1200  2.007   .     S
O1194  Zn1199  2.022   .     S
O1195  Zn1200  2.022   .     S
O1196  Zn1199  2.019   .     S
O1197  Zn1200  2.019   .     S
C1201  O1343   1.287   .     A
C1201  O1329   1.280   .     A
C1201  C1219   1.426   .     S
C1202  C1218   1.409   .     A
C1202  O1338   1.384   .     S
C1202  C904    1.372   1_655 S
C1203  C1218   1.411   .     A
C1203  O1339   1.385   .     S
C1203  C954    1.380   1_655 S
C1204  C1219   1.406   .     A
C1204  O1341   1.385   .     S
C1205  C1216   1.409   .     A
C1205  O1348   1.384   .     S
C1205  C1209   1.385   .     A
C1206  O1330   1.384   .     S
C1206  C1217   1.407   .     A
C1206  C1210   1.394   .     A
C1207  C1211   1.385   .     A
C1207  C1217   1.408   .     A
C1207  O1331   1.385   .     S
C1208  C1213   1.393   .     A
C1208  O1332   1.383   .     S
C1208  C1216   1.406   .     A
C1209  C1214   1.411   .     A
C1209  O1333   1.385   .     S
C1210  C1215   1.416   .     A
C1210  O1334   1.384   .     S
C1211  C1215   1.413   .     A
C1211  O1335   1.385   .     S
C1212  O1340   1.288   .     A
C1212  O1342   1.283   .     A
C1212  C1218   1.433   .     S
C1213  C1214   1.417   .     A
C1213  O1336   1.383   .     S
C1214  C1223   1.462   .     S
C1215  C1234   1.462   .     S
C1216  C2567   1.462   1_554 S
C1217  C2566   1.462   .     S
C1219  C1254   1.407   .     A
C1220  O1348   1.422   .     S
C1220  H1310   1.105   .     S
C1220  H1299   1.110   .     S
C1220  C1221   1.546   .     S
C1221  C1222   1.526   .     S
C1221  H1325   1.111   .     S
C1221  H1321   1.109   .     S
C1222  H1257   1.109   .     S
C1222  H1326   1.110   .     S
C1222  H1256   1.111   .     S
C1223  O1347   1.293   .     A
C1223  O1344   1.294   .     A
C1224  O1330   1.421   .     S
C1224  C1225   1.528   .     S
C1224  H1259   1.119   .     S
C1224  H2608   1.111   .     S
C1225  H1260   1.110   .     S
C1225  H1261   1.112   .     S
C1225  C2576   1.521   .     S
C1226  H1264   1.109   .     S
C1226  H1262   1.109   .     S
C1226  C2575   1.521   1_554 S
C1226  H2613   1.108   1_554 S
C1227  O1331   1.421   .     S
C1227  H1265   1.109   .     S
C1227  C1228   1.543   .     S
C1227  H2617   1.107   .     S
C1228  H1269   1.111   .     S
C1228  C1229   1.526   .     S
C1228  H1268   1.108   .     S
C1229  H1272   1.110   .     S
C1229  H1270   1.110   .     S
C1229  H1271   1.110   .     S
C1230  C1231   1.529   .     S
C1230  H1274   1.119   .     S
C1230  O1332   1.421   .     S
C1230  H2623   1.112   1_554 S
C1231  H1275   1.110   .     S
C1231  C1232   1.522   .     S
C1231  H1276   1.112   .     S
C1232  H1280   1.109   .     S
C1232  H2628   1.110   1_554 S
C1233  C1235   1.532   .     S
C1233  H1282   1.110   .     S
C1233  O1333   1.423   .     S
C1233  H1281   1.109   .     S
C1234  O1345   1.295   .     A
C1234  O1346   1.293   .     A
C1235  H1283   1.108   .     S
C1235  H1284   1.109   .     S
C1235  C1236   1.529   .     S
C1236  H1287   1.110   .     S
C1236  H1286   1.107   .     S
C1236  H1285   1.111   .     S
C1237  C1238   1.524   .     S
C1237  H1290   1.117   .     S
C1237  O1334   1.419   .     S
C1237  H1289   1.110   .     S
C1238  H1292   1.109   .     S
C1238  C1239   1.525   .     S
C1238  H1291   1.107   .     S
C1239  H1293   1.111   .     S
C1240  H1296   1.110   .     S
C1240  O1335   1.424   .     S
C1240  H1297   1.110   .     S
C1240  C1241   1.533   .     S
C1241  C1242   1.526   .     S
C1241  H1300   1.108   .     S
C1241  H1298   1.109   .     S
C1242  H1303   1.110   .     S
C1242  H1302   1.107   .     S
C1242  H1301   1.109   .     S
C1243  H1305   1.116   .     S
C1243  H1304   1.110   .     S
C1243  C1244   1.522   .     S
C1243  O1336   1.417   .     S
C1244  H1307   1.109   .     S
C1244  H1306   1.107   .     S
C1245  N1328   1.366   .     A
C1245  H1255   1.081   .     S
C1246  H1309   1.104   .     S
C1246  H1311   1.110   .     S
C1246  C344    1.525   1_565 S
C1246  H408    1.110   1_565 S
C1247  H1314   1.113   .     S
C1247  H1312   1.108   .     S
C1247  O1337   1.414   .     S
C1247  H1313   1.110   .     S
C1248  H1316   1.114   .     S
C1248  H1315   1.109   .     S
C1248  H1317   1.113   .     S
C1248  O1338   1.413   .     S
C1249  H1318   1.115   .     S
C1249  O1339   1.410   .     S
C1249  H1319   1.108   .     S
C1249  H1320   1.108   .     S
C1250  H1322   1.108   .     S
C1250  O1341   1.410   .     S
C1250  H1324   1.112   .     S
C1250  H1323   1.113   .     S
C1251  H1266   1.081   .     S
C1251  N1327   1.366   .     A
C1251  C352    1.415   1_565 S
C1252  N1328   1.366   .     A
C1252  H1277   1.078   .     S
C1253  N1327   1.366   .     A
C1253  H1288   1.079   .     S
C1253  C345    1.415   1_565 S
C1254  O1337   1.383   .     S
H1258  C2574   1.111   1_554 S
H1263  C2576   1.108   .     S
H1267  C2577   1.107   1_554 S
H1273  C2580   1.112   .     S
H1278  C2582   1.110   .     S
H1279  C332    1.107   1_565 S
H1294  C339    1.105   1_565 S
H1295  C339    1.109   1_565 S
N1327  Zn1349  2.011   .     S
N1328  Zn1350  2.011   .     S
O1329  Zn1349  2.003   .     S
O1340  Zn1350  2.003   .     S
O1342  Zn1349  2.007   .     S
O1343  Zn1350  2.007   .     S
O1344  Zn1349  2.022   .     S
O1345  Zn1350  2.022   .     S
O1346  Zn1349  2.019   .     S
O1347  Zn1350  2.019   .     S
C1351  O1493   1.287   .     A
C1351  O1479   1.280   .     A
C1351  C1369   1.426   .     S
C1352  C1368   1.409   .     A
C1352  O1488   1.384   .     S
C1352  C1504   1.372   .     S
C1353  C1368   1.411   .     A
C1353  O1489   1.385   .     S
C1353  C1554   1.380   .     S
C1354  C1369   1.406   .     A
C1354  O1491   1.385   .     S
C1354  C1652   1.372   1_455 S
C1355  C1366   1.409   .     A
C1355  O1498   1.384   .     S
C1355  C1359   1.385   .     A
C1356  O1480   1.384   .     S
C1356  C1367   1.407   .     A
C1356  C1360   1.394   .     A
C1357  C1361   1.385   .     A
C1357  C1367   1.408   .     A
C1357  O1481   1.385   .     S
C1358  C1363   1.393   .     A
C1358  O1482   1.383   .     S
C1358  C1366   1.406   .     A
C1359  C1364   1.411   .     A
C1359  O1483   1.385   .     S
C1360  C1365   1.416   .     A
C1360  O1484   1.384   .     S
C1361  C1365   1.413   .     A
C1361  O1485   1.385   .     S
C1362  O1490   1.288   .     A
C1362  O1492   1.283   .     A
C1362  C1368   1.433   .     S
C1363  C1364   1.417   .     A
C1363  O1486   1.383   .     S
C1364  C1373   1.462   .     S
C1365  C1384   1.462   .     S
C1367  C16     1.462   1_556 S
C1369  C1404   1.407   .     A
C1370  O1498   1.422   .     S
C1370  H1460   1.105   .     S
C1370  H1449   1.110   .     S
C1370  C1371   1.546   .     S
C1371  C1372   1.526   .     S
C1371  H1475   1.111   .     S
C1371  H1471   1.109   .     S
C1372  H1407   1.109   .     S
C1372  H1476   1.110   .     S
C1372  H1406   1.111   .     S
C1373  O1497   1.293   .     A
C1373  O1494   1.294   .     A
C1374  O1480   1.421   .     S
C1374  C1375   1.528   .     S
C1374  H1409   1.119   .     S
C1374  H58     1.111   1_556 S
C1375  H1410   1.110   .     S
C1375  H1411   1.112   .     S
C1375  C26     1.521   1_556 S
C1376  H1414   1.109   .     S
C1376  H1412   1.109   .     S
C1377  O1481   1.421   .     S
C1377  H1415   1.109   .     S
C1377  C1378   1.543   .     S
C1377  H67     1.107   1_556 S
C1378  H1419   1.111   .     S
C1378  C1379   1.526   .     S
C1378  H1418   1.108   .     S
C1379  H1422   1.110   .     S
C1379  H1420   1.110   .     S
C1379  H1421   1.110   .     S
C1380  C1381   1.529   .     S
C1380  H1424   1.119   .     S
C1380  O1482   1.421   .     S
C1381  H1425   1.110   .     S
C1381  C1382   1.522   .     S
C1381  H1426   1.112   .     S
C1382  H1430   1.109   .     S
C1382  H2329   1.107   1_545 S
C1383  C1385   1.532   .     S
C1383  H1432   1.110   .     S
C1383  O1483   1.423   .     S
C1383  H1431   1.109   .     S
C1384  O1495   1.295   .     A
C1384  O1496   1.293   .     A
C1385  H1433   1.108   .     S
C1385  H1434   1.109   .     S
C1385  C1386   1.529   .     S
C1386  H1437   1.110   .     S
C1386  H1436   1.107   .     S
C1386  H1435   1.111   .     S
C1387  C1388   1.524   .     S
C1387  H1440   1.117   .     S
C1387  O1484   1.419   .     S
C1387  H1439   1.110   .     S
C1388  H1442   1.109   .     S
C1388  C1389   1.525   .     S
C1388  H1441   1.107   .     S
C1389  H1443   1.111   .     S
C1389  H2344   1.105   1_545 S
C1389  H2345   1.109   1_545 S
C1390  H1446   1.110   .     S
C1390  O1485   1.424   .     S
C1390  H1447   1.110   .     S
C1390  C1391   1.533   .     S
C1391  C1392   1.526   .     S
C1391  H1450   1.108   .     S
C1391  H1448   1.109   .     S
C1392  H1453   1.110   .     S
C1392  H1452   1.107   .     S
C1392  H1451   1.109   .     S
C1393  H1455   1.116   .     S
C1393  H1454   1.110   .     S
C1393  C1394   1.522   .     S
C1393  O1486   1.417   .     S
C1394  H1457   1.109   .     S
C1394  H1456   1.107   .     S
C1394  C2296   1.525   1_545 S
C1395  N1478   1.366   .     A
C1395  H1405   1.081   .     S
C1395  C2303   1.415   1_545 S
C1396  H1459   1.104   .     S
C1396  H1461   1.110   .     S
C1396  C1844   1.525   .     S
C1396  H1908   1.110   .     S
C1397  H1464   1.113   .     S
C1397  H1462   1.108   .     S
C1397  O1487   1.414   .     S
C1397  H1463   1.110   .     S
C1398  H1466   1.114   .     S
C1398  H1465   1.109   .     S
C1398  H1467   1.113   .     S
C1398  O1488   1.413   .     S
C1399  H1468   1.115   .     S
C1399  O1489   1.410   .     S
C1399  H1469   1.108   .     S
C1399  H1470   1.108   .     S
C1400  H1472   1.108   .     S
C1400  O1491   1.410   .     S
C1400  H1474   1.112   .     S
C1400  H1473   1.113   .     S
C1401  H1416   1.081   .     S
C1401  N1477   1.366   .     A
C1401  C1852   1.415   .     S
C1402  N1478   1.366   .     A
C1402  H1427   1.078   .     S
C1402  C2301   1.415   1_545 S
C1403  N1477   1.366   .     A
C1403  H1438   1.079   .     S
C1403  C1845   1.415   .     S
C1404  O1487   1.383   .     S
C1404  C1653   1.380   1_455 S
H1413  C26     1.108   1_556 S
H1423  C30     1.112   1_556 S
H1428  C32     1.110   1_556 S
H1429  C1832   1.107   .     S
H1444  C1839   1.105   .     S
H1445  C1839   1.109   .     S
H1458  C2296   1.110   1_545 S
N1477  Zn1499  2.011   .     S
N1478  Zn1500  2.011   .     S
O1479  Zn1499  2.003   .     S
O1490  Zn1500  2.003   .     S
O1492  Zn1499  2.007   .     S
O1493  Zn1500  2.007   .     S
O1494  Zn1499  2.022   .     S
O1495  Zn1500  2.022   .     S
O1496  Zn1499  2.019   .     S
O1497  Zn1500  2.019   .     S
C1501  O1643   1.287   .     A
C1501  O1629   1.280   .     A
C1501  C1519   1.426   .     S
C1502  C1518   1.409   .     A
C1502  O1638   1.384   .     S
C1502  C1654   1.372   .     S
C1503  C1518   1.411   .     A
C1503  O1639   1.385   .     S
C1503  C1704   1.380   .     S
C1504  C1519   1.406   .     A
C1504  O1641   1.385   .     S
C1505  C1516   1.409   .     A
C1505  O1648   1.384   .     S
C1505  C1509   1.385   .     A
C1506  O1630   1.384   .     S
C1506  C1517   1.407   .     A
C1506  C1510   1.394   .     A
C1507  C1511   1.385   .     A
C1507  C1517   1.408   .     A
C1507  O1631   1.385   .     S
C1508  C1513   1.393   .     A
C1508  O1632   1.383   .     S
C1508  C1516   1.406   .     A
C1509  C1514   1.411   .     A
C1509  O1633   1.385   .     S
C1510  C1515   1.416   .     A
C1510  O1634   1.384   .     S
C1511  C1515   1.413   .     A
C1511  O1635   1.385   .     S
C1512  O1640   1.288   .     A
C1512  O1642   1.283   .     A
C1512  C1518   1.433   .     S
C1513  C1514   1.417   .     A
C1513  O1636   1.383   .     S
C1514  C1523   1.462   .     S
C1515  C1534   1.462   .     S
C1517  C166    1.462   1_556 S
C1519  C1554   1.407   .     A
C1520  O1648   1.422   .     S
C1520  H1610   1.105   .     S
C1520  H1599   1.110   .     S
C1520  C1521   1.546   .     S
C1521  C1522   1.526   .     S
C1521  H1625   1.111   .     S
C1521  H1621   1.109   .     S
C1522  H1557   1.109   .     S
C1522  H1626   1.110   .     S
C1522  H1556   1.111   .     S
C1523  O1647   1.293   .     A
C1523  O1644   1.294   .     A
C1524  O1630   1.421   .     S
C1524  C1525   1.528   .     S
C1524  H1559   1.119   .     S
C1524  H208    1.111   1_556 S
C1525  H1560   1.110   .     S
C1525  H1561   1.112   .     S
C1525  C176    1.521   1_556 S
C1526  H1564   1.109   .     S
C1526  H1562   1.109   .     S
C1527  O1631   1.421   .     S
C1527  H1565   1.109   .     S
C1527  C1528   1.543   .     S
C1527  H217    1.107   1_556 S
C1528  H1569   1.111   .     S
C1528  C1529   1.526   .     S
C1528  H1568   1.108   .     S
C1529  H1572   1.110   .     S
C1529  H1570   1.110   .     S
C1529  H1571   1.110   .     S
C1530  C1531   1.529   .     S
C1530  H1574   1.119   .     S
C1530  O1632   1.421   .     S
C1531  H1575   1.110   .     S
C1531  C1532   1.522   .     S
C1531  H1576   1.112   .     S
C1532  H1580   1.109   .     S
C1532  H2479   1.107   1_545 S
C1533  C1535   1.532   .     S
C1533  H1582   1.110   .     S
C1533  O1633   1.423   .     S
C1533  H1581   1.109   .     S
C1534  O1645   1.295   .     A
C1534  O1646   1.293   .     A
C1535  H1583   1.108   .     S
C1535  H1584   1.109   .     S
C1535  C1536   1.529   .     S
C1536  H1587   1.110   .     S
C1536  H1586   1.107   .     S
C1536  H1585   1.111   .     S
C1537  C1538   1.524   .     S
C1537  H1590   1.117   .     S
C1537  O1634   1.419   .     S
C1537  H1589   1.110   .     S
C1538  H1592   1.109   .     S
C1538  C1539   1.525   .     S
C1538  H1591   1.107   .     S
C1539  H1593   1.111   .     S
C1539  H2494   1.105   1_545 S
C1539  H2495   1.109   1_545 S
C1540  H1596   1.110   .     S
C1540  O1635   1.424   .     S
C1540  H1597   1.110   .     S
C1540  C1541   1.533   .     S
C1541  C1542   1.526   .     S
C1541  H1600   1.108   .     S
C1541  H1598   1.109   .     S
C1542  H1603   1.110   .     S
C1542  H1602   1.107   .     S
C1542  H1601   1.109   .     S
C1543  H1605   1.116   .     S
C1543  H1604   1.110   .     S
C1543  C1544   1.522   .     S
C1543  O1636   1.417   .     S
C1544  H1607   1.109   .     S
C1544  H1606   1.107   .     S
C1544  C2446   1.525   1_545 S
C1545  N1628   1.366   .     A
C1545  H1555   1.081   .     S
C1545  C2453   1.415   1_545 S
C1546  H1609   1.104   .     S
C1546  H1611   1.110   .     S
C1546  C1994   1.525   .     S
C1546  H2058   1.110   .     S
C1547  H1614   1.113   .     S
C1547  H1612   1.108   .     S
C1547  O1637   1.414   .     S
C1547  H1613   1.110   .     S
C1548  H1616   1.114   .     S
C1548  H1615   1.109   .     S
C1548  H1617   1.113   .     S
C1548  O1638   1.413   .     S
C1549  H1618   1.115   .     S
C1549  O1639   1.410   .     S
C1549  H1619   1.108   .     S
C1549  H1620   1.108   .     S
C1550  H1622   1.108   .     S
C1550  O1641   1.410   .     S
C1550  H1624   1.112   .     S
C1550  H1623   1.113   .     S
C1551  H1566   1.081   .     S
C1551  N1627   1.366   .     A
C1551  C2002   1.415   .     S
C1552  N1628   1.366   .     A
C1552  H1577   1.078   .     S
C1552  C2451   1.415   1_545 S
C1553  N1627   1.366   .     A
C1553  H1588   1.079   .     S
C1553  C1995   1.415   .     S
C1554  O1637   1.383   .     S
H1563  C176    1.108   1_556 S
H1573  C180    1.112   1_556 S
H1578  C182    1.110   1_556 S
H1579  C1982   1.107   .     S
H1594  C1989   1.105   .     S
H1595  C1989   1.109   .     S
H1608  C2446   1.110   1_545 S
N1627  Zn1649  2.011   .     S
N1628  Zn1650  2.011   .     S
O1629  Zn1649  2.003   .     S
O1640  Zn1650  2.003   .     S
O1642  Zn1649  2.007   .     S
O1643  Zn1650  2.007   .     S
O1644  Zn1649  2.022   .     S
O1645  Zn1650  2.022   .     S
O1646  Zn1649  2.019   .     S
O1647  Zn1650  2.019   .     S
C1651  O1793   1.287   .     A
C1651  O1779   1.280   .     A
C1651  C1669   1.426   .     S
C1652  C1668   1.409   .     A
C1652  O1788   1.384   .     S
C1652  C1354   1.372   1_655 S
C1653  C1668   1.411   .     A
C1653  O1789   1.385   .     S
C1653  C1404   1.380   1_655 S
C1654  C1669   1.406   .     A
C1654  O1791   1.385   .     S
C1655  C1666   1.409   .     A
C1655  O1798   1.384   .     S
C1655  C1659   1.385   .     A
C1656  O1780   1.384   .     S
C1656  C1667   1.407   .     A
C1656  C1660   1.394   .     A
C1657  C1661   1.385   .     A
C1657  C1667   1.408   .     A
C1657  O1781   1.385   .     S
C1658  C1663   1.393   .     A
C1658  O1782   1.383   .     S
C1658  C1666   1.406   .     A
C1659  C1664   1.411   .     A
C1659  O1783   1.385   .     S
C1660  C1665   1.416   .     A
C1660  O1784   1.384   .     S
C1661  C1665   1.413   .     A
C1661  O1785   1.385   .     S
C1662  O1790   1.288   .     A
C1662  O1792   1.283   .     A
C1662  C1668   1.433   .     S
C1663  C1664   1.417   .     A
C1663  O1786   1.383   .     S
C1664  C1673   1.462   .     S
C1665  C1684   1.462   .     S
C1667  C316    1.462   1_556 S
C1669  C1704   1.407   .     A
C1670  O1798   1.422   .     S
C1670  H1760   1.105   .     S
C1670  H1749   1.110   .     S
C1670  C1671   1.546   .     S
C1671  C1672   1.526   .     S
C1671  H1775   1.111   .     S
C1671  H1771   1.109   .     S
C1672  H1707   1.109   .     S
C1672  H1776   1.110   .     S
C1672  H1706   1.111   .     S
C1673  O1797   1.293   .     A
C1673  O1794   1.294   .     A
C1674  O1780   1.421   .     S
C1674  C1675   1.528   .     S
C1674  H1709   1.119   .     S
C1674  H358    1.111   1_556 S
C1675  H1710   1.110   .     S
C1675  H1711   1.112   .     S
C1675  C326    1.521   1_556 S
C1676  H1714   1.109   .     S
C1676  H1712   1.109   .     S
C1677  O1781   1.421   .     S
C1677  H1715   1.109   .     S
C1677  C1678   1.543   .     S
C1677  H367    1.107   1_556 S
C1678  H1719   1.111   .     S
C1678  C1679   1.526   .     S
C1678  H1718   1.108   .     S
C1679  H1722   1.110   .     S
C1679  H1720   1.110   .     S
C1679  H1721   1.110   .     S
C1680  C1681   1.529   .     S
C1680  H1724   1.119   .     S
C1680  O1782   1.421   .     S
C1681  H1725   1.110   .     S
C1681  C1682   1.522   .     S
C1681  H1726   1.112   .     S
C1682  H1730   1.109   .     S
C1682  H2629   1.107   1_545 S
C1683  C1685   1.532   .     S
C1683  H1732   1.110   .     S
C1683  O1783   1.423   .     S
C1683  H1731   1.109   .     S
C1684  O1795   1.295   .     A
C1684  O1796   1.293   .     A
C1685  H1733   1.108   .     S
C1685  H1734   1.109   .     S
C1685  C1686   1.529   .     S
C1686  H1737   1.110   .     S
C1686  H1736   1.107   .     S
C1686  H1735   1.111   .     S
C1687  C1688   1.524   .     S
C1687  H1740   1.117   .     S
C1687  O1784   1.419   .     S
C1687  H1739   1.110   .     S
C1688  H1742   1.109   .     S
C1688  C1689   1.525   .     S
C1688  H1741   1.107   .     S
C1689  H1743   1.111   .     S
C1689  H2644   1.105   1_545 S
C1689  H2645   1.109   1_545 S
C1690  H1746   1.110   .     S
C1690  O1785   1.424   .     S
C1690  H1747   1.110   .     S
C1690  C1691   1.533   .     S
C1691  C1692   1.526   .     S
C1691  H1750   1.108   .     S
C1691  H1748   1.109   .     S
C1692  H1753   1.110   .     S
C1692  H1752   1.107   .     S
C1692  H1751   1.109   .     S
C1693  H1755   1.116   .     S
C1693  H1754   1.110   .     S
C1693  C1694   1.522   .     S
C1693  O1786   1.417   .     S
C1694  H1757   1.109   .     S
C1694  H1756   1.107   .     S
C1694  C2596   1.525   1_545 S
C1695  N1778   1.366   .     A
C1695  H1705   1.081   .     S
C1695  C2603   1.415   1_545 S
C1696  H1759   1.104   .     S
C1696  H1761   1.110   .     S
C1696  C2144   1.525   .     S
C1696  H2208   1.110   .     S
C1697  H1764   1.113   .     S
C1697  H1762   1.108   .     S
C1697  O1787   1.414   .     S
C1697  H1763   1.110   .     S
C1698  H1766   1.114   .     S
C1698  H1765   1.109   .     S
C1698  H1767   1.113   .     S
C1698  O1788   1.413   .     S
C1699  H1768   1.115   .     S
C1699  O1789   1.410   .     S
C1699  H1769   1.108   .     S
C1699  H1770   1.108   .     S
C1700  H1772   1.108   .     S
C1700  O1791   1.410   .     S
C1700  H1774   1.112   .     S
C1700  H1773   1.113   .     S
C1701  H1716   1.081   .     S
C1701  N1777   1.366   .     A
C1701  C2152   1.415   .     S
C1702  N1778   1.366   .     A
C1702  H1727   1.078   .     S
C1702  C2601   1.415   1_545 S
C1703  N1777   1.366   .     A
C1703  H1738   1.079   .     S
C1703  C2145   1.415   .     S
C1704  O1787   1.383   .     S
H1713  C326    1.108   1_556 S
H1723  C330    1.112   1_556 S
H1728  C332    1.110   1_556 S
H1729  C2132   1.107   .     S
H1744  C2139   1.105   .     S
H1745  C2139   1.109   .     S
H1758  C2596   1.110   1_545 S
N1777  Zn1799  2.011   .     S
N1778  Zn1800  2.011   .     S
O1779  Zn1799  2.003   .     S
O1790  Zn1800  2.003   .     S
O1792  Zn1799  2.007   .     S
O1793  Zn1800  2.007   .     S
O1794  Zn1799  2.022   .     S
O1795  Zn1800  2.022   .     S
O1796  Zn1799  2.019   .     S
O1797  Zn1800  2.019   .     S
C1801  O1943   1.287   .     A
C1801  O1929   1.280   .     A
C1801  C1819   1.426   .     S
C1802  C1818   1.409   .     A
C1802  O1938   1.384   .     S
C1802  C1954   1.372   .     S
C1803  C1818   1.411   .     A
C1803  O1939   1.385   .     S
C1803  C2004   1.380   .     S
C1804  C1819   1.406   .     A
C1804  O1941   1.385   .     S
C1804  C2102   1.372   1_455 S
C1805  C1816   1.409   .     A
C1805  O1948   1.384   .     S
C1805  C1809   1.385   .     A
C1806  O1930   1.384   .     S
C1806  C1817   1.407   .     A
C1806  C1810   1.394   .     A
C1807  C1811   1.385   .     A
C1807  C1817   1.408   .     A
C1807  O1931   1.385   .     S
C1808  C1813   1.393   .     A
C1808  O1932   1.383   .     S
C1808  C1816   1.406   .     A
C1809  C1814   1.411   .     A
C1809  O1933   1.385   .     S
C1810  C1815   1.416   .     A
C1810  O1934   1.384   .     S
C1811  C1815   1.413   .     A
C1811  O1935   1.385   .     S
C1812  O1940   1.288   .     A
C1812  O1942   1.283   .     A
C1812  C1818   1.433   .     S
C1813  C1814   1.417   .     A
C1813  O1936   1.383   .     S
C1814  C1823   1.462   .     S
C1815  C1834   1.462   .     S
C1817  C466    1.462   1_556 S
C1819  C1854   1.407   .     A
C1820  O1948   1.422   .     S
C1820  H1910   1.105   .     S
C1820  H1899   1.110   .     S
C1820  C1821   1.546   .     S
C1821  C1822   1.526   .     S
C1821  H1925   1.111   .     S
C1821  H1921   1.109   .     S
C1822  H1857   1.109   .     S
C1822  H1926   1.110   .     S
C1822  H1856   1.111   .     S
C1823  O1947   1.293   .     A
C1823  O1944   1.294   .     A
C1824  O1930   1.421   .     S
C1824  C1825   1.528   .     S
C1824  H1859   1.119   .     S
C1824  H508    1.111   1_556 S
C1825  H1860   1.110   .     S
C1825  H1861   1.112   .     S
C1825  C476    1.521   1_556 S
C1826  H1864   1.109   .     S
C1826  H1862   1.109   .     S
C1827  O1931   1.421   .     S
C1827  H1865   1.109   .     S
C1827  C1828   1.543   .     S
C1827  H517    1.107   1_556 S
C1828  H1869   1.111   .     S
C1828  C1829   1.526   .     S
C1828  H1868   1.108   .     S
C1829  H1872   1.110   .     S
C1829  H1870   1.110   .     S
C1829  H1871   1.110   .     S
C1830  C1831   1.529   .     S
C1830  H1874   1.119   .     S
C1830  O1932   1.421   .     S
C1831  H1875   1.110   .     S
C1831  C1832   1.522   .     S
C1831  H1876   1.112   .     S
C1832  H1880   1.109   .     S
C1833  C1835   1.532   .     S
C1833  H1882   1.110   .     S
C1833  O1933   1.423   .     S
C1833  H1881   1.109   .     S
C1834  O1945   1.295   .     A
C1834  O1946   1.293   .     A
C1835  H1883   1.108   .     S
C1835  H1884   1.109   .     S
C1835  C1836   1.529   .     S
C1836  H1887   1.110   .     S
C1836  H1886   1.107   .     S
C1836  H1885   1.111   .     S
C1837  C1838   1.524   .     S
C1837  H1890   1.117   .     S
C1837  O1934   1.419   .     S
C1837  H1889   1.110   .     S
C1838  H1892   1.109   .     S
C1838  C1839   1.525   .     S
C1838  H1891   1.107   .     S
C1839  H1893   1.111   .     S
C1840  H1896   1.110   .     S
C1840  O1935   1.424   .     S
C1840  H1897   1.110   .     S
C1840  C1841   1.533   .     S
C1841  C1842   1.526   .     S
C1841  H1900   1.108   .     S
C1841  H1898   1.109   .     S
C1842  H1903   1.110   .     S
C1842  H1902   1.107   .     S
C1842  H1901   1.109   .     S
C1843  H1905   1.116   .     S
C1843  H1904   1.110   .     S
C1843  C1844   1.522   .     S
C1843  O1936   1.417   .     S
C1844  H1907   1.109   .     S
C1844  H1906   1.107   .     S
C1845  N1928   1.366   .     A
C1845  H1855   1.081   .     S
C1846  H1909   1.104   .     S
C1846  H1911   1.110   .     S
C1846  C2294   1.525   .     S
C1846  H2358   1.110   .     S
C1847  H1914   1.113   .     S
C1847  H1912   1.108   .     S
C1847  O1937   1.414   .     S
C1847  H1913   1.110   .     S
C1848  H1916   1.114   .     S
C1848  H1915   1.109   .     S
C1848  H1917   1.113   .     S
C1848  O1938   1.413   .     S
C1849  H1918   1.115   .     S
C1849  O1939   1.410   .     S
C1849  H1919   1.108   .     S
C1849  H1920   1.108   .     S
C1850  H1922   1.108   .     S
C1850  O1941   1.410   .     S
C1850  H1924   1.112   .     S
C1850  H1923   1.113   .     S
C1851  H1866   1.081   .     S
C1851  N1927   1.366   .     A
C1851  C2302   1.415   .     S
C1852  N1928   1.366   .     A
C1852  H1877   1.078   .     S
C1853  N1927   1.366   .     A
C1853  H1888   1.079   .     S
C1853  C2295   1.415   .     S
C1854  O1937   1.383   .     S
C1854  C2103   1.380   1_455 S
H1863  C476    1.108   1_556 S
H1873  C480    1.112   1_556 S
H1878  C482    1.110   1_556 S
H1879  C2282   1.107   .     S
H1894  C2289   1.105   .     S
H1895  C2289   1.109   .     S
N1927  Zn1949  2.011   .     S
N1928  Zn1950  2.011   .     S
O1929  Zn1949  2.003   .     S
O1940  Zn1950  2.003   .     S
O1942  Zn1949  2.007   .     S
O1943  Zn1950  2.007   .     S
O1944  Zn1949  2.022   .     S
O1945  Zn1950  2.022   .     S
O1946  Zn1949  2.019   .     S
O1947  Zn1950  2.019   .     S
C1951  O2093   1.287   .     A
C1951  O2079   1.280   .     A
C1951  C1969   1.426   .     S
C1952  C1968   1.409   .     A
C1952  O2088   1.384   .     S
C1952  C2104   1.372   .     S
C1953  C1968   1.411   .     A
C1953  O2089   1.385   .     S
C1953  C2154   1.380   .     S
C1954  C1969   1.406   .     A
C1954  O2091   1.385   .     S
C1955  C1966   1.409   .     A
C1955  O2098   1.384   .     S
C1955  C1959   1.385   .     A
C1956  O2080   1.384   .     S
C1956  C1967   1.407   .     A
C1956  C1960   1.394   .     A
C1957  C1961   1.385   .     A
C1957  C1967   1.408   .     A
C1957  O2081   1.385   .     S
C1958  C1963   1.393   .     A
C1958  O2082   1.383   .     S
C1958  C1966   1.406   .     A
C1959  C1964   1.411   .     A
C1959  O2083   1.385   .     S
C1960  C1965   1.416   .     A
C1960  O2084   1.384   .     S
C1961  C1965   1.413   .     A
C1961  O2085   1.385   .     S
C1962  O2090   1.288   .     A
C1962  O2092   1.283   .     A
C1962  C1968   1.433   .     S
C1963  C1964   1.417   .     A
C1963  O2086   1.383   .     S
C1964  C1973   1.462   .     S
C1965  C1984   1.462   .     S
C1967  C616    1.462   1_556 S
C1969  C2004   1.407   .     A
C1970  O2098   1.422   .     S
C1970  H2060   1.105   .     S
C1970  H2049   1.110   .     S
C1970  C1971   1.546   .     S
C1971  C1972   1.526   .     S
C1971  H2075   1.111   .     S
C1971  H2071   1.109   .     S
C1972  H2007   1.109   .     S
C1972  H2076   1.110   .     S
C1972  H2006   1.111   .     S
C1973  O2097   1.293   .     A
C1973  O2094   1.294   .     A
C1974  O2080   1.421   .     S
C1974  C1975   1.528   .     S
C1974  H2009   1.119   .     S
C1974  H658    1.111   1_556 S
C1975  H2010   1.110   .     S
C1975  H2011   1.112   .     S
C1975  C626    1.521   1_556 S
C1976  H2014   1.109   .     S
C1976  H2012   1.109   .     S
C1977  O2081   1.421   .     S
C1977  H2015   1.109   .     S
C1977  C1978   1.543   .     S
C1977  H667    1.107   1_556 S
C1978  H2019   1.111   .     S
C1978  C1979   1.526   .     S
C1978  H2018   1.108   .     S
C1979  H2022   1.110   .     S
C1979  H2020   1.110   .     S
C1979  H2021   1.110   .     S
C1980  C1981   1.529   .     S
C1980  H2024   1.119   .     S
C1980  O2082   1.421   .     S
C1981  H2025   1.110   .     S
C1981  C1982   1.522   .     S
C1981  H2026   1.112   .     S
C1982  H2030   1.109   .     S
C1983  C1985   1.532   .     S
C1983  H2032   1.110   .     S
C1983  O2083   1.423   .     S
C1983  H2031   1.109   .     S
C1984  O2095   1.295   .     A
C1984  O2096   1.293   .     A
C1985  H2033   1.108   .     S
C1985  H2034   1.109   .     S
C1985  C1986   1.529   .     S
C1986  H2037   1.110   .     S
C1986  H2036   1.107   .     S
C1986  H2035   1.111   .     S
C1987  C1988   1.524   .     S
C1987  H2040   1.117   .     S
C1987  O2084   1.419   .     S
C1987  H2039   1.110   .     S
C1988  H2042   1.109   .     S
C1988  C1989   1.525   .     S
C1988  H2041   1.107   .     S
C1989  H2043   1.111   .     S
C1990  H2046   1.110   .     S
C1990  O2085   1.424   .     S
C1990  H2047   1.110   .     S
C1990  C1991   1.533   .     S
C1991  C1992   1.526   .     S
C1991  H2050   1.108   .     S
C1991  H2048   1.109   .     S
C1992  H2053   1.110   .     S
C1992  H2052   1.107   .     S
C1992  H2051   1.109   .     S
C1993  H2055   1.116   .     S
C1993  H2054   1.110   .     S
C1993  C1994   1.522   .     S
C1993  O2086   1.417   .     S
C1994  H2057   1.109   .     S
C1994  H2056   1.107   .     S
C1995  N2078   1.366   .     A
C1995  H2005   1.081   .     S
C1996  H2059   1.104   .     S
C1996  H2061   1.110   .     S
C1996  C2444   1.525   .     S
C1996  H2508   1.110   .     S
C1997  H2064   1.113   .     S
C1997  H2062   1.108   .     S
C1997  O2087   1.414   .     S
C1997  H2063   1.110   .     S
C1998  H2066   1.114   .     S
C1998  H2065   1.109   .     S
C1998  H2067   1.113   .     S
C1998  O2088   1.413   .     S
C1999  H2068   1.115   .     S
C1999  O2089   1.410   .     S
C1999  H2069   1.108   .     S
C1999  H2070   1.108   .     S
C2000  H2072   1.108   .     S
C2000  O2091   1.410   .     S
C2000  H2074   1.112   .     S
C2000  H2073   1.113   .     S
C2001  H2016   1.081   .     S
C2001  N2077   1.366   .     A
C2001  C2452   1.415   .     S
C2002  N2078   1.366   .     A
C2002  H2027   1.078   .     S
C2003  N2077   1.366   .     A
C2003  H2038   1.079   .     S
C2003  C2445   1.415   .     S
C2004  O2087   1.383   .     S
H2013  C626    1.108   1_556 S
H2023  C630    1.112   1_556 S
H2028  C632    1.110   1_556 S
H2029  C2432   1.107   .     S
H2044  C2439   1.105   .     S
H2045  C2439   1.109   .     S
N2077  Zn2099  2.011   .     S
N2078  Zn2100  2.011   .     S
O2079  Zn2099  2.003   .     S
O2090  Zn2100  2.003   .     S
O2092  Zn2099  2.007   .     S
O2093  Zn2100  2.007   .     S
O2094  Zn2099  2.022   .     S
O2095  Zn2100  2.022   .     S
O2096  Zn2099  2.019   .     S
O2097  Zn2100  2.019   .     S
C2101  O2243   1.287   .     A
C2101  O2229   1.280   .     A
C2101  C2119   1.426   .     S
C2102  C2118   1.409   .     A
C2102  O2238   1.384   .     S
C2102  C1804   1.372   1_655 S
C2103  C2118   1.411   .     A
C2103  O2239   1.385   .     S
C2103  C1854   1.380   1_655 S
C2104  C2119   1.406   .     A
C2104  O2241   1.385   .     S
C2105  C2116   1.409   .     A
C2105  O2248   1.384   .     S
C2105  C2109   1.385   .     A
C2106  O2230   1.384   .     S
C2106  C2117   1.407   .     A
C2106  C2110   1.394   .     A
C2107  C2111   1.385   .     A
C2107  C2117   1.408   .     A
C2107  O2231   1.385   .     S
C2108  C2113   1.393   .     A
C2108  O2232   1.383   .     S
C2108  C2116   1.406   .     A
C2109  C2114   1.411   .     A
C2109  O2233   1.385   .     S
C2110  C2115   1.416   .     A
C2110  O2234   1.384   .     S
C2111  C2115   1.413   .     A
C2111  O2235   1.385   .     S
C2112  O2240   1.288   .     A
C2112  O2242   1.283   .     A
C2112  C2118   1.433   .     S
C2113  C2114   1.417   .     A
C2113  O2236   1.383   .     S
C2114  C2123   1.462   .     S
C2115  C2134   1.462   .     S
C2117  C766    1.462   1_556 S
C2119  C2154   1.407   .     A
C2120  O2248   1.422   .     S
C2120  H2210   1.105   .     S
C2120  H2199   1.110   .     S
C2120  C2121   1.546   .     S
C2121  C2122   1.526   .     S
C2121  H2225   1.111   .     S
C2121  H2221   1.109   .     S
C2122  H2157   1.109   .     S
C2122  H2226   1.110   .     S
C2122  H2156   1.111   .     S
C2123  O2247   1.293   .     A
C2123  O2244   1.294   .     A
C2124  O2230   1.421   .     S
C2124  C2125   1.528   .     S
C2124  H2159   1.119   .     S
C2124  H808    1.111   1_556 S
C2125  H2160   1.110   .     S
C2125  H2161   1.112   .     S
C2125  C776    1.521   1_556 S
C2126  H2164   1.109   .     S
C2126  H2162   1.109   .     S
C2127  O2231   1.421   .     S
C2127  H2165   1.109   .     S
C2127  C2128   1.543   .     S
C2127  H817    1.107   1_556 S
C2128  H2169   1.111   .     S
C2128  C2129   1.526   .     S
C2128  H2168   1.108   .     S
C2129  H2172   1.110   .     S
C2129  H2170   1.110   .     S
C2129  H2171   1.110   .     S
C2130  C2131   1.529   .     S
C2130  H2174   1.119   .     S
C2130  O2232   1.421   .     S
C2131  H2175   1.110   .     S
C2131  C2132   1.522   .     S
C2131  H2176   1.112   .     S
C2132  H2180   1.109   .     S
C2133  C2135   1.532   .     S
C2133  H2182   1.110   .     S
C2133  O2233   1.423   .     S
C2133  H2181   1.109   .     S
C2134  O2245   1.295   .     A
C2134  O2246   1.293   .     A
C2135  H2183   1.108   .     S
C2135  H2184   1.109   .     S
C2135  C2136   1.529   .     S
C2136  H2187   1.110   .     S
C2136  H2186   1.107   .     S
C2136  H2185   1.111   .     S
C2137  C2138   1.524   .     S
C2137  H2190   1.117   .     S
C2137  O2234   1.419   .     S
C2137  H2189   1.110   .     S
C2138  H2192   1.109   .     S
C2138  C2139   1.525   .     S
C2138  H2191   1.107   .     S
C2139  H2193   1.111   .     S
C2140  H2196   1.110   .     S
C2140  O2235   1.424   .     S
C2140  H2197   1.110   .     S
C2140  C2141   1.533   .     S
C2141  C2142   1.526   .     S
C2141  H2200   1.108   .     S
C2141  H2198   1.109   .     S
C2142  H2203   1.110   .     S
C2142  H2202   1.107   .     S
C2142  H2201   1.109   .     S
C2143  H2205   1.116   .     S
C2143  H2204   1.110   .     S
C2143  C2144   1.522   .     S
C2143  O2236   1.417   .     S
C2144  H2207   1.109   .     S
C2144  H2206   1.107   .     S
C2145  N2228   1.366   .     A
C2145  H2155   1.081   .     S
C2146  H2209   1.104   .     S
C2146  H2211   1.110   .     S
C2146  C2594   1.525   .     S
C2146  H2658   1.110   .     S
C2147  H2214   1.113   .     S
C2147  H2212   1.108   .     S
C2147  O2237   1.414   .     S
C2147  H2213   1.110   .     S
C2148  H2216   1.114   .     S
C2148  H2215   1.109   .     S
C2148  H2217   1.113   .     S
C2148  O2238   1.413   .     S
C2149  H2218   1.115   .     S
C2149  O2239   1.410   .     S
C2149  H2219   1.108   .     S
C2149  H2220   1.108   .     S
C2150  H2222   1.108   .     S
C2150  O2241   1.410   .     S
C2150  H2224   1.112   .     S
C2150  H2223   1.113   .     S
C2151  H2166   1.081   .     S
C2151  N2227   1.366   .     A
C2151  C2602   1.415   .     S
C2152  N2228   1.366   .     A
C2152  H2177   1.078   .     S
C2153  N2227   1.366   .     A
C2153  H2188   1.079   .     S
C2153  C2595   1.415   .     S
C2154  O2237   1.383   .     S
H2163  C776    1.108   1_556 S
H2173  C780    1.112   1_556 S
H2178  C782    1.110   1_556 S
H2179  C2582   1.107   .     S
H2194  C2589   1.105   .     S
H2195  C2589   1.109   .     S
N2227  Zn2249  2.011   .     S
N2228  Zn2250  2.011   .     S
O2229  Zn2249  2.003   .     S
O2240  Zn2250  2.003   .     S
O2242  Zn2249  2.007   .     S
O2243  Zn2250  2.007   .     S
O2244  Zn2249  2.022   .     S
O2245  Zn2250  2.022   .     S
O2246  Zn2249  2.019   .     S
O2247  Zn2250  2.019   .     S
C2251  O2393   1.287   .     A
C2251  O2379   1.280   .     A
C2251  C2269   1.426   .     S
C2252  C2268   1.409   .     A
C2252  O2388   1.384   .     S
C2252  C2404   1.372   .     S
C2253  C2268   1.411   .     A
C2253  O2389   1.385   .     S
C2253  C2454   1.380   .     S
C2254  C2269   1.406   .     A
C2254  O2391   1.385   .     S
C2254  C2552   1.372   1_455 S
C2255  C2266   1.409   .     A
C2255  O2398   1.384   .     S
C2255  C2259   1.385   .     A
C2256  O2380   1.384   .     S
C2256  C2267   1.407   .     A
C2256  C2260   1.394   .     A
C2257  C2261   1.385   .     A
C2257  C2267   1.408   .     A
C2257  O2381   1.385   .     S
C2258  C2263   1.393   .     A
C2258  O2382   1.383   .     S
C2258  C2266   1.406   .     A
C2259  C2264   1.411   .     A
C2259  O2383   1.385   .     S
C2260  C2265   1.416   .     A
C2260  O2384   1.384   .     S
C2261  C2265   1.413   .     A
C2261  O2385   1.385   .     S
C2262  O2390   1.288   .     A
C2262  O2392   1.283   .     A
C2262  C2268   1.433   .     S
C2263  C2264   1.417   .     A
C2263  O2386   1.383   .     S
C2264  C2273   1.462   .     S
C2265  C2284   1.462   .     S
C2267  C916    1.462   1_556 S
C2269  C2304   1.407   .     A
C2270  O2398   1.422   .     S
C2270  H2360   1.105   .     S
C2270  H2349   1.110   .     S
C2270  C2271   1.546   .     S
C2271  C2272   1.526   .     S
C2271  H2375   1.111   .     S
C2271  H2371   1.109   .     S
C2272  H2307   1.109   .     S
C2272  H2376   1.110   .     S
C2272  H2306   1.111   .     S
C2273  O2397   1.293   .     A
C2273  O2394   1.294   .     A
C2274  O2380   1.421   .     S
C2274  C2275   1.528   .     S
C2274  H2309   1.119   .     S
C2274  H958    1.111   1_556 S
C2275  H2310   1.110   .     S
C2275  H2311   1.112   .     S
C2275  C926    1.521   1_556 S
C2276  H2314   1.109   .     S
C2276  H2312   1.109   .     S
C2277  O2381   1.421   .     S
C2277  H2315   1.109   .     S
C2277  C2278   1.543   .     S
C2277  H967    1.107   1_556 S
C2278  H2319   1.111   .     S
C2278  C2279   1.526   .     S
C2278  H2318   1.108   .     S
C2279  H2322   1.110   .     S
C2279  H2320   1.110   .     S
C2279  H2321   1.110   .     S
C2280  C2281   1.529   .     S
C2280  H2324   1.119   .     S
C2280  O2382   1.421   .     S
C2281  H2325   1.110   .     S
C2281  C2282   1.522   .     S
C2281  H2326   1.112   .     S
C2282  H2330   1.109   .     S
C2283  C2285   1.532   .     S
C2283  H2332   1.110   .     S
C2283  O2383   1.423   .     S
C2283  H2331   1.109   .     S
C2284  O2395   1.295   .     A
C2284  O2396   1.293   .     A
C2285  H2333   1.108   .     S
C2285  H2334   1.109   .     S
C2285  C2286   1.529   .     S
C2286  H2337   1.110   .     S
C2286  H2336   1.107   .     S
C2286  H2335   1.111   .     S
C2287  C2288   1.524   .     S
C2287  H2340   1.117   .     S
C2287  O2384   1.419   .     S
C2287  H2339   1.110   .     S
C2288  H2342   1.109   .     S
C2288  C2289   1.525   .     S
C2288  H2341   1.107   .     S
C2289  H2343   1.111   .     S
C2290  H2346   1.110   .     S
C2290  O2385   1.424   .     S
C2290  H2347   1.110   .     S
C2290  C2291   1.533   .     S
C2291  C2292   1.526   .     S
C2291  H2350   1.108   .     S
C2291  H2348   1.109   .     S
C2292  H2353   1.110   .     S
C2292  H2352   1.107   .     S
C2292  H2351   1.109   .     S
C2293  H2355   1.116   .     S
C2293  H2354   1.110   .     S
C2293  C2294   1.522   .     S
C2293  O2386   1.417   .     S
C2294  H2357   1.109   .     S
C2294  H2356   1.107   .     S
C2295  N2378   1.366   .     A
C2295  H2305   1.081   .     S
C2296  H2359   1.104   .     S
C2296  H2361   1.110   .     S
C2296  C1394   1.525   1_565 S
C2296  H1458   1.110   1_565 S
C2297  H2364   1.113   .     S
C2297  H2362   1.108   .     S
C2297  O2387   1.414   .     S
C2297  H2363   1.110   .     S
C2298  H2366   1.114   .     S
C2298  H2365   1.109   .     S
C2298  H2367   1.113   .     S
C2298  O2388   1.413   .     S
C2299  H2368   1.115   .     S
C2299  O2389   1.410   .     S
C2299  H2369   1.108   .     S
C2299  H2370   1.108   .     S
C2300  H2372   1.108   .     S
C2300  O2391   1.410   .     S
C2300  H2374   1.112   .     S
C2300  H2373   1.113   .     S
C2301  H2316   1.081   .     S
C2301  N2377   1.366   .     A
C2301  C1402   1.415   1_565 S
C2302  N2378   1.366   .     A
C2302  H2327   1.078   .     S
C2303  N2377   1.366   .     A
C2303  H2338   1.079   .     S
C2303  C1395   1.415   1_565 S
C2304  O2387   1.383   .     S
C2304  C2553   1.380   1_455 S
H2313  C926    1.108   1_556 S
H2323  C930    1.112   1_556 S
H2328  C932    1.110   1_556 S
H2329  C1382   1.107   1_565 S
H2344  C1389   1.105   1_565 S
H2345  C1389   1.109   1_565 S
N2377  Zn2399  2.011   .     S
N2378  Zn2400  2.011   .     S
O2379  Zn2399  2.003   .     S
O2390  Zn2400  2.003   .     S
O2392  Zn2399  2.007   .     S
O2393  Zn2400  2.007   .     S
O2394  Zn2399  2.022   .     S
O2395  Zn2400  2.022   .     S
O2396  Zn2399  2.019   .     S
O2397  Zn2400  2.019   .     S
C2401  O2543   1.287   .     A
C2401  O2529   1.280   .     A
C2401  C2419   1.426   .     S
C2402  C2418   1.409   .     A
C2402  O2538   1.384   .     S
C2402  C2554   1.372   .     S
C2403  C2418   1.411   .     A
C2403  O2539   1.385   .     S
C2403  C2604   1.380   .     S
C2404  C2419   1.406   .     A
C2404  O2541   1.385   .     S
C2405  C2416   1.409   .     A
C2405  O2548   1.384   .     S
C2405  C2409   1.385   .     A
C2406  O2530   1.384   .     S
C2406  C2417   1.407   .     A
C2406  C2410   1.394   .     A
C2407  C2411   1.385   .     A
C2407  C2417   1.408   .     A
C2407  O2531   1.385   .     S
C2408  C2413   1.393   .     A
C2408  O2532   1.383   .     S
C2408  C2416   1.406   .     A
C2409  C2414   1.411   .     A
C2409  O2533   1.385   .     S
C2410  C2415   1.416   .     A
C2410  O2534   1.384   .     S
C2411  C2415   1.413   .     A
C2411  O2535   1.385   .     S
C2412  O2540   1.288   .     A
C2412  O2542   1.283   .     A
C2412  C2418   1.433   .     S
C2413  C2414   1.417   .     A
C2413  O2536   1.383   .     S
C2414  C2423   1.462   .     S
C2415  C2434   1.462   .     S
C2417  C1066   1.462   1_556 S
C2419  C2454   1.407   .     A
C2420  O2548   1.422   .     S
C2420  H2510   1.105   .     S
C2420  H2499   1.110   .     S
C2420  C2421   1.546   .     S
C2421  C2422   1.526   .     S
C2421  H2525   1.111   .     S
C2421  H2521   1.109   .     S
C2422  H2457   1.109   .     S
C2422  H2526   1.110   .     S
C2422  H2456   1.111   .     S
C2423  O2547   1.293   .     A
C2423  O2544   1.294   .     A
C2424  O2530   1.421   .     S
C2424  C2425   1.528   .     S
C2424  H2459   1.119   .     S
C2424  H1108   1.111   1_556 S
C2425  H2460   1.110   .     S
C2425  H2461   1.112   .     S
C2425  C1076   1.521   1_556 S
C2426  H2464   1.109   .     S
C2426  H2462   1.109   .     S
C2427  O2531   1.421   .     S
C2427  H2465   1.109   .     S
C2427  C2428   1.543   .     S
C2427  H1117   1.107   1_556 S
C2428  H2469   1.111   .     S
C2428  C2429   1.526   .     S
C2428  H2468   1.108   .     S
C2429  H2472   1.110   .     S
C2429  H2470   1.110   .     S
C2429  H2471   1.110   .     S
C2430  C2431   1.529   .     S
C2430  H2474   1.119   .     S
C2430  O2532   1.421   .     S
C2431  H2475   1.110   .     S
C2431  C2432   1.522   .     S
C2431  H2476   1.112   .     S
C2432  H2480   1.109   .     S
C2433  C2435   1.532   .     S
C2433  H2482   1.110   .     S
C2433  O2533   1.423   .     S
C2433  H2481   1.109   .     S
C2434  O2545   1.295   .     A
C2434  O2546   1.293   .     A
C2435  H2483   1.108   .     S
C2435  H2484   1.109   .     S
C2435  C2436   1.529   .     S
C2436  H2487   1.110   .     S
C2436  H2486   1.107   .     S
C2436  H2485   1.111   .     S
C2437  C2438   1.524   .     S
C2437  H2490   1.117   .     S
C2437  O2534   1.419   .     S
C2437  H2489   1.110   .     S
C2438  H2492   1.109   .     S
C2438  C2439   1.525   .     S
C2438  H2491   1.107   .     S
C2439  H2493   1.111   .     S
C2440  H2496   1.110   .     S
C2440  O2535   1.424   .     S
C2440  H2497   1.110   .     S
C2440  C2441   1.533   .     S
C2441  C2442   1.526   .     S
C2441  H2500   1.108   .     S
C2441  H2498   1.109   .     S
C2442  H2503   1.110   .     S
C2442  H2502   1.107   .     S
C2442  H2501   1.109   .     S
C2443  H2505   1.116   .     S
C2443  H2504   1.110   .     S
C2443  C2444   1.522   .     S
C2443  O2536   1.417   .     S
C2444  H2507   1.109   .     S
C2444  H2506   1.107   .     S
C2445  N2528   1.366   .     A
C2445  H2455   1.081   .     S
C2446  H2509   1.104   .     S
C2446  H2511   1.110   .     S
C2446  C1544   1.525   1_565 S
C2446  H1608   1.110   1_565 S
C2447  H2514   1.113   .     S
C2447  H2512   1.108   .     S
C2447  O2537   1.414   .     S
C2447  H2513   1.110   .     S
C2448  H2516   1.114   .     S
C2448  H2515   1.109   .     S
C2448  H2517   1.113   .     S
C2448  O2538   1.413   .     S
C2449  H2518   1.115   .     S
C2449  O2539   1.410   .     S
C2449  H2519   1.108   .     S
C2449  H2520   1.108   .     S
C2450  H2522   1.108   .     S
C2450  O2541   1.410   .     S
C2450  H2524   1.112   .     S
C2450  H2523   1.113   .     S
C2451  H2466   1.081   .     S
C2451  N2527   1.366   .     A
C2451  C1552   1.415   1_565 S
C2452  N2528   1.366   .     A
C2452  H2477   1.078   .     S
C2453  N2527   1.366   .     A
C2453  H2488   1.079   .     S
C2453  C1545   1.415   1_565 S
C2454  O2537   1.383   .     S
H2463  C1076   1.108   1_556 S
H2473  C1080   1.112   1_556 S
H2478  C1082   1.110   1_556 S
H2479  C1532   1.107   1_565 S
H2494  C1539   1.105   1_565 S
H2495  C1539   1.109   1_565 S
N2527  Zn2549  2.011   .     S
N2528  Zn2550  2.011   .     S
O2529  Zn2549  2.003   .     S
O2540  Zn2550  2.003   .     S
O2542  Zn2549  2.007   .     S
O2543  Zn2550  2.007   .     S
O2544  Zn2549  2.022   .     S
O2545  Zn2550  2.022   .     S
O2546  Zn2549  2.019   .     S
O2547  Zn2550  2.019   .     S
C2551  O2693   1.287   .     A
C2551  O2679   1.280   .     A
C2551  C2569   1.426   .     S
C2552  C2568   1.409   .     A
C2552  O2688   1.384   .     S
C2552  C2254   1.372   1_655 S
C2553  C2568   1.411   .     A
C2553  O2689   1.385   .     S
C2553  C2304   1.380   1_655 S
C2554  C2569   1.406   .     A
C2554  O2691   1.385   .     S
C2555  C2566   1.409   .     A
C2555  O2698   1.384   .     S
C2555  C2559   1.385   .     A
C2556  O2680   1.384   .     S
C2556  C2567   1.407   .     A
C2556  C2560   1.394   .     A
C2557  C2561   1.385   .     A
C2557  C2567   1.408   .     A
C2557  O2681   1.385   .     S
C2558  C2563   1.393   .     A
C2558  O2682   1.383   .     S
C2558  C2566   1.406   .     A
C2559  C2564   1.411   .     A
C2559  O2683   1.385   .     S
C2560  C2565   1.416   .     A
C2560  O2684   1.384   .     S
C2561  C2565   1.413   .     A
C2561  O2685   1.385   .     S
C2562  O2690   1.288   .     A
C2562  O2692   1.283   .     A
C2562  C2568   1.433   .     S
C2563  C2564   1.417   .     A
C2563  O2686   1.383   .     S
C2564  C2573   1.462   .     S
C2565  C2584   1.462   .     S
C2567  C1216   1.462   1_556 S
C2569  C2604   1.407   .     A
C2570  O2698   1.422   .     S
C2570  H2660   1.105   .     S
C2570  H2649   1.110   .     S
C2570  C2571   1.546   .     S
C2571  C2572   1.526   .     S
C2571  H2675   1.111   .     S
C2571  H2671   1.109   .     S
C2572  H2607   1.109   .     S
C2572  H2676   1.110   .     S
C2572  H2606   1.111   .     S
C2573  O2697   1.293   .     A
C2573  O2694   1.294   .     A
C2574  O2680   1.421   .     S
C2574  C2575   1.528   .     S
C2574  H2609   1.119   .     S
C2574  H1258   1.111   1_556 S
C2575  H2610   1.110   .     S
C2575  H2611   1.112   .     S
C2575  C1226   1.521   1_556 S
C2576  H2614   1.109   .     S
C2576  H2612   1.109   .     S
C2577  O2681   1.421   .     S
C2577  H2615   1.109   .     S
C2577  C2578   1.543   .     S
C2577  H1267   1.107   1_556 S
C2578  H2619   1.111   .     S
C2578  C2579   1.526   .     S
C2578  H2618   1.108   .     S
C2579  H2622   1.110   .     S
C2579  H2620   1.110   .     S
C2579  H2621   1.110   .     S
C2580  C2581   1.529   .     S
C2580  H2624   1.119   .     S
C2580  O2682   1.421   .     S
C2581  H2625   1.110   .     S
C2581  C2582   1.522   .     S
C2581  H2626   1.112   .     S
C2582  H2630   1.109   .     S
C2583  C2585   1.532   .     S
C2583  H2632   1.110   .     S
C2583  O2683   1.423   .     S
C2583  H2631   1.109   .     S
C2584  O2695   1.295   .     A
C2584  O2696   1.293   .     A
C2585  H2633   1.108   .     S
C2585  H2634   1.109   .     S
C2585  C2586   1.529   .     S
C2586  H2637   1.110   .     S
C2586  H2636   1.107   .     S
C2586  H2635   1.111   .     S
C2587  C2588   1.524   .     S
C2587  H2640   1.117   .     S
C2587  O2684   1.419   .     S
C2587  H2639   1.110   .     S
C2588  H2642   1.109   .     S
C2588  C2589   1.525   .     S
C2588  H2641   1.107   .     S
C2589  H2643   1.111   .     S
C2590  H2646   1.110   .     S
C2590  O2685   1.424   .     S
C2590  H2647   1.110   .     S
C2590  C2591   1.533   .     S
C2591  C2592   1.526   .     S
C2591  H2650   1.108   .     S
C2591  H2648   1.109   .     S
C2592  H2653   1.110   .     S
C2592  H2652   1.107   .     S
C2592  H2651   1.109   .     S
C2593  H2655   1.116   .     S
C2593  H2654   1.110   .     S
C2593  C2594   1.522   .     S
C2593  O2686   1.417   .     S
C2594  H2657   1.109   .     S
C2594  H2656   1.107   .     S
C2595  N2678   1.366   .     A
C2595  H2605   1.081   .     S
C2596  H2659   1.104   .     S
C2596  H2661   1.110   .     S
C2596  C1694   1.525   1_565 S
C2596  H1758   1.110   1_565 S
C2597  H2664   1.113   .     S
C2597  H2662   1.108   .     S
C2597  O2687   1.414   .     S
C2597  H2663   1.110   .     S
C2598  H2666   1.114   .     S
C2598  H2665   1.109   .     S
C2598  H2667   1.113   .     S
C2598  O2688   1.413   .     S
C2599  H2668   1.115   .     S
C2599  O2689   1.410   .     S
C2599  H2669   1.108   .     S
C2599  H2670   1.108   .     S
C2600  H2672   1.108   .     S
C2600  O2691   1.410   .     S
C2600  H2674   1.112   .     S
C2600  H2673   1.113   .     S
C2601  H2616   1.081   .     S
C2601  N2677   1.366   .     A
C2601  C1702   1.415   1_565 S
C2602  N2678   1.366   .     A
C2602  H2627   1.078   .     S
C2603  N2677   1.366   .     A
C2603  H2638   1.079   .     S
C2603  C1695   1.415   1_565 S
C2604  O2687   1.383   .     S
H2613  C1226   1.108   1_556 S
H2623  C1230   1.112   1_556 S
H2628  C1232   1.110   1_556 S
H2629  C1682   1.107   1_565 S
H2644  C1689   1.105   1_565 S
H2645  C1689   1.109   1_565 S
N2677  Zn2699  2.011   .     S
N2678  Zn2700  2.011   .     S
O2679  Zn2699  2.003   .     S
O2690  Zn2700  2.003   .     S
O2692  Zn2699  2.007   .     S
O2693  Zn2700  2.007   .     S
O2694  Zn2699  2.022   .     S
O2695  Zn2700  2.022   .     S
O2696  Zn2699  2.019   .     S
O2697  Zn2700  2.019   .     S
