data_str_m3_o2_o10_pcu_sym.153
_audit_creation_date              2020-01-03
_audit_creation_method            'Materials Studio'
_symmetry_space_group_name_H-M    'P1'
_symmetry_Int_Tables_number       1
_symmetry_cell_setting            triclinic
loop_
_symmetry_equiv_pos_as_xyz
  x,y,z
_cell_length_a                    25.7119
_cell_length_b                    29.8838
_cell_length_c                    28.6534
_cell_angle_alpha                 87.4298
_cell_angle_beta                  96.8518
_cell_angle_gamma                 91.8487
loop_
_atom_site_label
_atom_site_type_symbol
_atom_site_fract_x
_atom_site_fract_y
_atom_site_fract_z
_atom_site_U_iso_or_equiv
_atom_site_adp_type
_atom_site_occupancy
C1     C     0.16586   0.16391   0.25054   0.00000  Uiso   1.00
C2     C     0.16609   0.33603   0.24913   0.00000  Uiso   1.00
C3     C     0.13246   0.22104   0.05085   0.00000  Uiso   1.00
C4     C     0.18363   0.28919   0.44672   0.00000  Uiso   1.00
C5     C     0.13469   0.22061   0.10042   0.00000  Uiso   1.00
C6     C     0.18485   0.28712   0.39753   0.00000  Uiso   1.00
C7     C     0.19759   0.28056   0.10281   0.00000  Uiso   1.00
C8     C     0.14672   0.21413   0.39944   0.00000  Uiso   1.00
C9     C     0.19807   0.27950   0.05389   0.00000  Uiso   1.00
C10    C     0.14894   0.21438   0.44856   0.00000  Uiso   1.00
C11    C     0.16506   0.25075   0.02652   0.00000  Uiso   1.00
C12    C     0.16567   0.25195   0.47341   0.00000  Uiso   1.00
C13    C     0.06748   0.24906   0.23846   0.00000  Uiso   1.00
C14    C     0.26589   0.25123   0.26157   0.00000  Uiso   1.00
C15    C     0.01378   0.23949   0.23556   0.00000  Uiso   1.00
C16    C     0.31974   0.26076   0.26471   0.00000  Uiso   1.00
C17    C     0.12316   0.04524   0.27108   0.00000  Uiso   1.00
C18    C     0.13178   0.45236   0.20851   0.00000  Uiso   1.00
C19    C     0.12658   0.09131   0.27364   0.00000  Uiso   1.00
C20    C     0.13489   0.40621   0.20927   0.00000  Uiso   1.00
C21    C     0.16351   0.11575   0.25019   0.00000  Uiso   1.00
C22    C     0.16325   0.38399   0.24761   0.00000  Uiso   1.00
C23    C     0.19441   0.09441   0.22132   0.00000  Uiso   1.00
C24    C     0.18676   0.40752   0.28604   0.00000  Uiso   1.00
C25    C     0.19123   0.04818   0.21857   0.00000  Uiso   1.00
C26    C     0.18368   0.45372   0.28555   0.00000  Uiso   1.00
C27    C     0.15589   0.02388   0.24416   0.00000  Uiso   1.00
C28    C     0.15638   0.47583   0.24642   0.00000  Uiso   1.00
H29    H     0.09550   0.02615   0.29033   0.00000  Uiso   1.00
H30    H     0.11052   0.46981   0.17855   0.00000  Uiso   1.00
H31    H     0.09955   0.10755   0.29282   0.00000  Uiso   1.00
H32    H     0.11461   0.38789   0.18047   0.00000  Uiso   1.00
H33    H     0.22095   0.11350   0.20094   0.00000  Uiso   1.00
H34    H     0.20784   0.39019   0.31618   0.00000  Uiso   1.00
H35    H     0.10457   0.19844   0.03214   0.00000  Uiso   1.00
H36    H     0.19650   0.32012   0.46313   0.00000  Uiso   1.00
H37    H     0.10964   0.19740   0.11809   0.00000  Uiso   1.00
H38    H     0.19973   0.31582   0.37842   0.00000  Uiso   1.00
H39    H     0.22372   0.30248   0.03683   0.00000  Uiso   1.00
H40    H     0.13746   0.18442   0.46762   0.00000  Uiso   1.00
N41    N     0.16667   0.24999   0.12624   0.00000  Uiso   1.00
N42    N     0.16667   0.25001   0.37376   0.00000  Uiso   1.00
O43    O     0.16667   0.18454   0.28974   0.00000  Uiso   1.00
O44    O     0.16666   0.31547   0.21026   0.00000  Uiso   1.00
O45    O     0.16667   0.18453   0.21026   0.00000  Uiso   1.00
O46    O     0.16666   0.31547   0.28974   0.00000  Uiso   1.00
O47    O     0.09058   0.25000   0.28045   0.00000  Uiso   1.00
O48    O     0.24275   0.25000   0.21955   0.00000  Uiso   1.00
O49    O     0.09058   0.25000   0.20097   0.00000  Uiso   1.00
O50    O     0.24275   0.25001   0.29903   0.00000  Uiso   1.00
Zn51   Zn    0.16667   0.25001   0.30307   0.00000  Uiso   1.00
Zn52   Zn    0.16667   0.25000   0.19693   0.00000  Uiso   1.00
S53    S     0.32572   0.18897   0.20729   0.00000  Uiso   1.00
O54    O     0.29634   0.15987   0.23996   0.00000  Uiso   1.00
O55    O     0.29074   0.19947   0.16252   0.00000  Uiso   1.00
O56    O     0.04431   0.16111   0.19433   0.00000  Uiso   1.00
H57    H     0.02983   0.13165   0.18378   0.00000  Uiso   1.00
S58    S     0.00895   0.30918   0.29653   0.00000  Uiso   1.00
O59    O     0.03939   0.29475   0.34253   0.00000  Uiso   1.00
O60    O     0.04336   0.33855   0.26838   0.00000  Uiso   1.00
O61    O     0.29087   0.33871   0.30756   0.00000  Uiso   1.00
H62    H     0.30642   0.36455   0.32529   0.00000  Uiso   1.00
N63    N     0.22444   0.02581   0.19083   0.00000  Uiso   1.00
H64    H     0.26336   0.03395   0.20319   0.00000  Uiso   1.00
H65    H     0.21723   0.03849   0.15613   0.00000  Uiso   1.00
N66    N     0.20894   0.47833   0.32411   0.00000  Uiso   1.00
H67    H     0.24884   0.47133   0.32801   0.00000  Uiso   1.00
H68    H     0.19362   0.46650   0.35469   0.00000  Uiso   1.00
S69    S     0.23103   0.32870   0.12792   0.00000  Uiso   1.00
O70    O     0.25974   0.32048   0.17587   0.00000  Uiso   1.00
O71    O     0.27061   0.34699   0.09686   0.00000  Uiso   1.00
O72    O     0.18687   0.36840   0.13043   0.00000  Uiso   1.00
H73    H     0.17240   0.37494   0.09731   0.00000  Uiso   1.00
S74    S     0.11681   0.16494   0.37511   0.00000  Uiso   1.00
O75    O     0.15919   0.13453   0.36517   0.00000  Uiso   1.00
O76    O     0.08552   0.14035   0.40984   0.00000  Uiso   1.00
O77    O     0.07555   0.17620   0.32646   0.00000  Uiso   1.00
H78    H     0.04451   0.18896   0.33784   0.00000  Uiso   1.00
C79    C     0.49919   0.16391   0.25054   0.00000  Uiso   1.00
C80    C     0.49943   0.33603   0.24913   0.00000  Uiso   1.00
C81    C     0.46579   0.22104   0.05085   0.00000  Uiso   1.00
C82    C     0.51697   0.28919   0.44672   0.00000  Uiso   1.00
C83    C     0.46802   0.22061   0.10042   0.00000  Uiso   1.00
C84    C     0.51819   0.28712   0.39753   0.00000  Uiso   1.00
C85    C     0.53092   0.28056   0.10281   0.00000  Uiso   1.00
C86    C     0.48005   0.21413   0.39944   0.00000  Uiso   1.00
C87    C     0.53141   0.27950   0.05389   0.00000  Uiso   1.00
C88    C     0.48227   0.21438   0.44856   0.00000  Uiso   1.00
C89    C     0.49840   0.25075   0.02652   0.00000  Uiso   1.00
C90    C     0.49900   0.25195   0.47341   0.00000  Uiso   1.00
C91    C     0.40081   0.24906   0.23846   0.00000  Uiso   1.00
C92    C     0.59922   0.25123   0.26157   0.00000  Uiso   1.00
C93    C     0.34712   0.23949   0.23556   0.00000  Uiso   1.00
C94    C     0.65307   0.26076   0.26471   0.00000  Uiso   1.00
C95    C     0.45650   0.04524   0.27108   0.00000  Uiso   1.00
C96    C     0.46511   0.45236   0.20851   0.00000  Uiso   1.00
C97    C     0.45992   0.09131   0.27364   0.00000  Uiso   1.00
C98    C     0.46822   0.40621   0.20927   0.00000  Uiso   1.00
C99    C     0.49684   0.11575   0.25019   0.00000  Uiso   1.00
C100   C     0.49658   0.38399   0.24761   0.00000  Uiso   1.00
C101   C     0.52775   0.09441   0.22132   0.00000  Uiso   1.00
C102   C     0.52009   0.40752   0.28604   0.00000  Uiso   1.00
C103   C     0.52456   0.04818   0.21857   0.00000  Uiso   1.00
C104   C     0.51701   0.45372   0.28555   0.00000  Uiso   1.00
C105   C     0.48923   0.02388   0.24416   0.00000  Uiso   1.00
C106   C     0.48971   0.47583   0.24642   0.00000  Uiso   1.00
H107   H     0.42884   0.02615   0.29033   0.00000  Uiso   1.00
H108   H     0.44385   0.46981   0.17855   0.00000  Uiso   1.00
H109   H     0.43289   0.10755   0.29282   0.00000  Uiso   1.00
H110   H     0.44795   0.38789   0.18047   0.00000  Uiso   1.00
H111   H     0.55428   0.11350   0.20094   0.00000  Uiso   1.00
H112   H     0.54117   0.39019   0.31618   0.00000  Uiso   1.00
H113   H     0.43790   0.19844   0.03214   0.00000  Uiso   1.00
H114   H     0.52983   0.32012   0.46313   0.00000  Uiso   1.00
H115   H     0.44297   0.19740   0.11809   0.00000  Uiso   1.00
H116   H     0.53306   0.31582   0.37842   0.00000  Uiso   1.00
H117   H     0.55705   0.30248   0.03683   0.00000  Uiso   1.00
H118   H     0.47080   0.18442   0.46762   0.00000  Uiso   1.00
N119   N     0.50000   0.24999   0.12624   0.00000  Uiso   1.00
N120   N     0.50000   0.25001   0.37376   0.00000  Uiso   1.00
O121   O     0.50000   0.18454   0.28974   0.00000  Uiso   1.00
O122   O     0.50000   0.31547   0.21026   0.00000  Uiso   1.00
O123   O     0.50000   0.18453   0.21026   0.00000  Uiso   1.00
O124   O     0.50000   0.31547   0.28974   0.00000  Uiso   1.00
O125   O     0.42392   0.25000   0.28045   0.00000  Uiso   1.00
O126   O     0.57608   0.25000   0.21955   0.00000  Uiso   1.00
O127   O     0.42392   0.25000   0.20097   0.00000  Uiso   1.00
O128   O     0.57608   0.25001   0.29903   0.00000  Uiso   1.00
Zn129  Zn    0.50000   0.25001   0.30307   0.00000  Uiso   1.00
Zn130  Zn    0.50000   0.25000   0.19693   0.00000  Uiso   1.00
S131   S     0.65906   0.18897   0.20729   0.00000  Uiso   1.00
O132   O     0.62967   0.15987   0.23996   0.00000  Uiso   1.00
O133   O     0.62407   0.19947   0.16252   0.00000  Uiso   1.00
O134   O     0.37764   0.16111   0.19433   0.00000  Uiso   1.00
H135   H     0.36316   0.13165   0.18378   0.00000  Uiso   1.00
S136   S     0.34228   0.30918   0.29653   0.00000  Uiso   1.00
O137   O     0.37272   0.29475   0.34253   0.00000  Uiso   1.00
O138   O     0.37669   0.33855   0.26838   0.00000  Uiso   1.00
O139   O     0.62420   0.33871   0.30756   0.00000  Uiso   1.00
H140   H     0.63976   0.36455   0.32529   0.00000  Uiso   1.00
N141   N     0.55777   0.02581   0.19083   0.00000  Uiso   1.00
H142   H     0.59669   0.03395   0.20319   0.00000  Uiso   1.00
H143   H     0.55056   0.03849   0.15613   0.00000  Uiso   1.00
N144   N     0.54227   0.47833   0.32411   0.00000  Uiso   1.00
H145   H     0.58217   0.47133   0.32801   0.00000  Uiso   1.00
H146   H     0.52696   0.46650   0.35469   0.00000  Uiso   1.00
S147   S     0.56437   0.32870   0.12792   0.00000  Uiso   1.00
O148   O     0.59307   0.32048   0.17587   0.00000  Uiso   1.00
O149   O     0.60394   0.34699   0.09686   0.00000  Uiso   1.00
O150   O     0.52020   0.36840   0.13043   0.00000  Uiso   1.00
H151   H     0.50574   0.37494   0.09731   0.00000  Uiso   1.00
S152   S     0.45014   0.16494   0.37511   0.00000  Uiso   1.00
O153   O     0.49252   0.13453   0.36517   0.00000  Uiso   1.00
O154   O     0.41885   0.14035   0.40984   0.00000  Uiso   1.00
O155   O     0.40888   0.17620   0.32646   0.00000  Uiso   1.00
H156   H     0.37785   0.18896   0.33784   0.00000  Uiso   1.00
C157   C     0.83253   0.16391   0.25054   0.00000  Uiso   1.00
C158   C     0.83276   0.33603   0.24913   0.00000  Uiso   1.00
C159   C     0.79912   0.22104   0.05085   0.00000  Uiso   1.00
C160   C     0.85030   0.28919   0.44672   0.00000  Uiso   1.00
C161   C     0.80136   0.22061   0.10042   0.00000  Uiso   1.00
C162   C     0.85152   0.28712   0.39753   0.00000  Uiso   1.00
C163   C     0.86425   0.28056   0.10281   0.00000  Uiso   1.00
C164   C     0.81339   0.21413   0.39944   0.00000  Uiso   1.00
C165   C     0.86474   0.27950   0.05389   0.00000  Uiso   1.00
C166   C     0.81560   0.21438   0.44856   0.00000  Uiso   1.00
C167   C     0.83173   0.25075   0.02652   0.00000  Uiso   1.00
C168   C     0.83234   0.25195   0.47341   0.00000  Uiso   1.00
C169   C     0.73415   0.24906   0.23846   0.00000  Uiso   1.00
C170   C     0.93256   0.25123   0.26157   0.00000  Uiso   1.00
C171   C     0.68045   0.23949   0.23556   0.00000  Uiso   1.00
C172   C     0.98640   0.26076   0.26471   0.00000  Uiso   1.00
C173   C     0.78983   0.04524   0.27108   0.00000  Uiso   1.00
C174   C     0.79844   0.45236   0.20851   0.00000  Uiso   1.00
C175   C     0.79325   0.09131   0.27364   0.00000  Uiso   1.00
C176   C     0.80155   0.40621   0.20927   0.00000  Uiso   1.00
C177   C     0.83018   0.11575   0.25019   0.00000  Uiso   1.00
C178   C     0.82991   0.38399   0.24761   0.00000  Uiso   1.00
C179   C     0.86108   0.09441   0.22132   0.00000  Uiso   1.00
C180   C     0.85342   0.40752   0.28604   0.00000  Uiso   1.00
C181   C     0.85790   0.04818   0.21857   0.00000  Uiso   1.00
C182   C     0.85034   0.45372   0.28555   0.00000  Uiso   1.00
C183   C     0.82256   0.02388   0.24416   0.00000  Uiso   1.00
C184   C     0.82304   0.47583   0.24642   0.00000  Uiso   1.00
H185   H     0.76217   0.02615   0.29033   0.00000  Uiso   1.00
H186   H     0.77718   0.46981   0.17855   0.00000  Uiso   1.00
H187   H     0.76622   0.10755   0.29282   0.00000  Uiso   1.00
H188   H     0.78128   0.38789   0.18047   0.00000  Uiso   1.00
H189   H     0.88761   0.11350   0.20094   0.00000  Uiso   1.00
H190   H     0.87451   0.39019   0.31618   0.00000  Uiso   1.00
H191   H     0.77124   0.19844   0.03214   0.00000  Uiso   1.00
H192   H     0.86317   0.32012   0.46313   0.00000  Uiso   1.00
H193   H     0.77630   0.19740   0.11809   0.00000  Uiso   1.00
H194   H     0.86639   0.31582   0.37842   0.00000  Uiso   1.00
H195   H     0.89038   0.30248   0.03683   0.00000  Uiso   1.00
H196   H     0.80413   0.18442   0.46762   0.00000  Uiso   1.00
N197   N     0.83333   0.24999   0.12624   0.00000  Uiso   1.00
N198   N     0.83333   0.25001   0.37376   0.00000  Uiso   1.00
O199   O     0.83334   0.18454   0.28974   0.00000  Uiso   1.00
O200   O     0.83333   0.31547   0.21026   0.00000  Uiso   1.00
O201   O     0.83334   0.18453   0.21026   0.00000  Uiso   1.00
O202   O     0.83333   0.31547   0.28974   0.00000  Uiso   1.00
O203   O     0.75725   0.25000   0.28045   0.00000  Uiso   1.00
O204   O     0.90942   0.25000   0.21955   0.00000  Uiso   1.00
O205   O     0.75725   0.25000   0.20097   0.00000  Uiso   1.00
O206   O     0.90942   0.25001   0.29903   0.00000  Uiso   1.00
Zn207  Zn    0.83333   0.25001   0.30307   0.00000  Uiso   1.00
Zn208  Zn    0.83333   0.25000   0.19693   0.00000  Uiso   1.00
S209   S     0.99239   0.18897   0.20729   0.00000  Uiso   1.00
O210   O     0.96300   0.15987   0.23996   0.00000  Uiso   1.00
O211   O     0.95741   0.19947   0.16252   0.00000  Uiso   1.00
O212   O     0.71097   0.16111   0.19433   0.00000  Uiso   1.00
H213   H     0.69649   0.13165   0.18378   0.00000  Uiso   1.00
S214   S     0.67562   0.30918   0.29653   0.00000  Uiso   1.00
O215   O     0.70606   0.29475   0.34253   0.00000  Uiso   1.00
O216   O     0.71002   0.33855   0.26838   0.00000  Uiso   1.00
O217   O     0.95753   0.33871   0.30756   0.00000  Uiso   1.00
H218   H     0.97309   0.36455   0.32529   0.00000  Uiso   1.00
N219   N     0.89110   0.02581   0.19083   0.00000  Uiso   1.00
H220   H     0.93003   0.03395   0.20319   0.00000  Uiso   1.00
H221   H     0.88389   0.03849   0.15613   0.00000  Uiso   1.00
N222   N     0.87560   0.47833   0.32411   0.00000  Uiso   1.00
H223   H     0.91551   0.47133   0.32801   0.00000  Uiso   1.00
H224   H     0.86029   0.46650   0.35469   0.00000  Uiso   1.00
S225   S     0.89770   0.32870   0.12792   0.00000  Uiso   1.00
O226   O     0.92640   0.32048   0.17587   0.00000  Uiso   1.00
O227   O     0.93728   0.34699   0.09686   0.00000  Uiso   1.00
O228   O     0.85354   0.36840   0.13043   0.00000  Uiso   1.00
H229   H     0.83907   0.37494   0.09731   0.00000  Uiso   1.00
S230   S     0.78347   0.16494   0.37511   0.00000  Uiso   1.00
O231   O     0.82585   0.13453   0.36517   0.00000  Uiso   1.00
O232   O     0.75219   0.14035   0.40984   0.00000  Uiso   1.00
O233   O     0.74221   0.17620   0.32646   0.00000  Uiso   1.00
H234   H     0.71118   0.18896   0.33784   0.00000  Uiso   1.00
C235   C     0.16586   0.66391   0.25054   0.00000  Uiso   1.00
C236   C     0.16609   0.83603   0.24913   0.00000  Uiso   1.00
C237   C     0.13246   0.72104   0.05085   0.00000  Uiso   1.00
C238   C     0.18363   0.78919   0.44672   0.00000  Uiso   1.00
C239   C     0.13469   0.72061   0.10042   0.00000  Uiso   1.00
C240   C     0.18485   0.78712   0.39753   0.00000  Uiso   1.00
C241   C     0.19759   0.78056   0.10281   0.00000  Uiso   1.00
C242   C     0.14672   0.71413   0.39944   0.00000  Uiso   1.00
C243   C     0.19807   0.77950   0.05389   0.00000  Uiso   1.00
C244   C     0.14894   0.71438   0.44856   0.00000  Uiso   1.00
C245   C     0.16506   0.75075   0.02652   0.00000  Uiso   1.00
C246   C     0.16567   0.75195   0.47341   0.00000  Uiso   1.00
C247   C     0.06748   0.74906   0.23846   0.00000  Uiso   1.00
C248   C     0.26589   0.75123   0.26157   0.00000  Uiso   1.00
C249   C     0.01378   0.73949   0.23556   0.00000  Uiso   1.00
C250   C     0.31974   0.76076   0.26471   0.00000  Uiso   1.00
C251   C     0.12316   0.54524   0.27108   0.00000  Uiso   1.00
C252   C     0.13178   0.95236   0.20851   0.00000  Uiso   1.00
C253   C     0.12658   0.59131   0.27364   0.00000  Uiso   1.00
C254   C     0.13489   0.90621   0.20927   0.00000  Uiso   1.00
C255   C     0.16351   0.61575   0.25019   0.00000  Uiso   1.00
C256   C     0.16325   0.88399   0.24761   0.00000  Uiso   1.00
C257   C     0.19441   0.59441   0.22132   0.00000  Uiso   1.00
C258   C     0.18676   0.90752   0.28604   0.00000  Uiso   1.00
C259   C     0.19123   0.54818   0.21857   0.00000  Uiso   1.00
C260   C     0.18368   0.95372   0.28555   0.00000  Uiso   1.00
C261   C     0.15589   0.52388   0.24416   0.00000  Uiso   1.00
C262   C     0.15638   0.97583   0.24642   0.00000  Uiso   1.00
H263   H     0.09550   0.52615   0.29033   0.00000  Uiso   1.00
H264   H     0.11052   0.96981   0.17855   0.00000  Uiso   1.00
H265   H     0.09955   0.60755   0.29282   0.00000  Uiso   1.00
H266   H     0.11461   0.88789   0.18047   0.00000  Uiso   1.00
H267   H     0.22095   0.61350   0.20094   0.00000  Uiso   1.00
H268   H     0.20784   0.89019   0.31618   0.00000  Uiso   1.00
H269   H     0.10457   0.69844   0.03214   0.00000  Uiso   1.00
H270   H     0.19650   0.82012   0.46313   0.00000  Uiso   1.00
H271   H     0.10964   0.69740   0.11809   0.00000  Uiso   1.00
H272   H     0.19973   0.81582   0.37842   0.00000  Uiso   1.00
H273   H     0.22372   0.80248   0.03683   0.00000  Uiso   1.00
H274   H     0.13746   0.68442   0.46762   0.00000  Uiso   1.00
N275   N     0.16667   0.74999   0.12624   0.00000  Uiso   1.00
N276   N     0.16667   0.75001   0.37376   0.00000  Uiso   1.00
O277   O     0.16667   0.68454   0.28974   0.00000  Uiso   1.00
O278   O     0.16666   0.81547   0.21026   0.00000  Uiso   1.00
O279   O     0.16667   0.68453   0.21026   0.00000  Uiso   1.00
O280   O     0.16666   0.81547   0.28974   0.00000  Uiso   1.00
O281   O     0.09058   0.75000   0.28045   0.00000  Uiso   1.00
O282   O     0.24275   0.75000   0.21955   0.00000  Uiso   1.00
O283   O     0.09058   0.75000   0.20097   0.00000  Uiso   1.00
O284   O     0.24275   0.75001   0.29903   0.00000  Uiso   1.00
Zn285  Zn    0.16667   0.75001   0.30307   0.00000  Uiso   1.00
Zn286  Zn    0.16667   0.75000   0.19693   0.00000  Uiso   1.00
S287   S     0.32572   0.68897   0.20729   0.00000  Uiso   1.00
O288   O     0.29634   0.65987   0.23996   0.00000  Uiso   1.00
O289   O     0.29074   0.69947   0.16252   0.00000  Uiso   1.00
O290   O     0.04431   0.66111   0.19433   0.00000  Uiso   1.00
H291   H     0.02983   0.63165   0.18378   0.00000  Uiso   1.00
S292   S     0.00895   0.80918   0.29653   0.00000  Uiso   1.00
O293   O     0.03939   0.79475   0.34253   0.00000  Uiso   1.00
O294   O     0.04336   0.83855   0.26838   0.00000  Uiso   1.00
O295   O     0.29087   0.83871   0.30756   0.00000  Uiso   1.00
H296   H     0.30642   0.86455   0.32529   0.00000  Uiso   1.00
N297   N     0.22444   0.52581   0.19083   0.00000  Uiso   1.00
H298   H     0.26336   0.53395   0.20319   0.00000  Uiso   1.00
H299   H     0.21723   0.53849   0.15613   0.00000  Uiso   1.00
N300   N     0.20894   0.97833   0.32411   0.00000  Uiso   1.00
H301   H     0.24884   0.97133   0.32801   0.00000  Uiso   1.00
H302   H     0.19362   0.96650   0.35469   0.00000  Uiso   1.00
S303   S     0.23103   0.82870   0.12792   0.00000  Uiso   1.00
O304   O     0.25974   0.82048   0.17587   0.00000  Uiso   1.00
O305   O     0.27061   0.84699   0.09686   0.00000  Uiso   1.00
O306   O     0.18687   0.86840   0.13043   0.00000  Uiso   1.00
H307   H     0.17240   0.87494   0.09731   0.00000  Uiso   1.00
S308   S     0.11681   0.66494   0.37511   0.00000  Uiso   1.00
O309   O     0.15919   0.63453   0.36517   0.00000  Uiso   1.00
O310   O     0.08552   0.64035   0.40984   0.00000  Uiso   1.00
O311   O     0.07555   0.67620   0.32646   0.00000  Uiso   1.00
H312   H     0.04451   0.68896   0.33784   0.00000  Uiso   1.00
C313   C     0.49919   0.66391   0.25054   0.00000  Uiso   1.00
C314   C     0.49943   0.83603   0.24913   0.00000  Uiso   1.00
C315   C     0.46579   0.72104   0.05085   0.00000  Uiso   1.00
C316   C     0.51697   0.78919   0.44672   0.00000  Uiso   1.00
C317   C     0.46802   0.72061   0.10042   0.00000  Uiso   1.00
C318   C     0.51819   0.78712   0.39753   0.00000  Uiso   1.00
C319   C     0.53092   0.78056   0.10281   0.00000  Uiso   1.00
C320   C     0.48005   0.71413   0.39944   0.00000  Uiso   1.00
C321   C     0.53141   0.77950   0.05389   0.00000  Uiso   1.00
C322   C     0.48227   0.71438   0.44856   0.00000  Uiso   1.00
C323   C     0.49840   0.75075   0.02652   0.00000  Uiso   1.00
C324   C     0.49900   0.75195   0.47341   0.00000  Uiso   1.00
C325   C     0.40081   0.74906   0.23846   0.00000  Uiso   1.00
C326   C     0.59922   0.75123   0.26157   0.00000  Uiso   1.00
C327   C     0.34712   0.73949   0.23556   0.00000  Uiso   1.00
C328   C     0.65307   0.76076   0.26471   0.00000  Uiso   1.00
C329   C     0.45650   0.54524   0.27108   0.00000  Uiso   1.00
C330   C     0.46511   0.95236   0.20851   0.00000  Uiso   1.00
C331   C     0.45992   0.59131   0.27364   0.00000  Uiso   1.00
C332   C     0.46822   0.90621   0.20927   0.00000  Uiso   1.00
C333   C     0.49684   0.61575   0.25019   0.00000  Uiso   1.00
C334   C     0.49658   0.88399   0.24761   0.00000  Uiso   1.00
C335   C     0.52775   0.59441   0.22132   0.00000  Uiso   1.00
C336   C     0.52009   0.90752   0.28604   0.00000  Uiso   1.00
C337   C     0.52456   0.54818   0.21857   0.00000  Uiso   1.00
C338   C     0.51701   0.95372   0.28555   0.00000  Uiso   1.00
C339   C     0.48923   0.52388   0.24416   0.00000  Uiso   1.00
C340   C     0.48971   0.97583   0.24642   0.00000  Uiso   1.00
H341   H     0.42884   0.52615   0.29033   0.00000  Uiso   1.00
H342   H     0.44385   0.96981   0.17855   0.00000  Uiso   1.00
H343   H     0.43289   0.60755   0.29282   0.00000  Uiso   1.00
H344   H     0.44795   0.88789   0.18047   0.00000  Uiso   1.00
H345   H     0.55428   0.61350   0.20094   0.00000  Uiso   1.00
H346   H     0.54117   0.89019   0.31618   0.00000  Uiso   1.00
H347   H     0.43790   0.69844   0.03214   0.00000  Uiso   1.00
H348   H     0.52983   0.82012   0.46313   0.00000  Uiso   1.00
H349   H     0.44297   0.69740   0.11809   0.00000  Uiso   1.00
H350   H     0.53306   0.81582   0.37842   0.00000  Uiso   1.00
H351   H     0.55705   0.80248   0.03683   0.00000  Uiso   1.00
H352   H     0.47080   0.68442   0.46762   0.00000  Uiso   1.00
N353   N     0.50000   0.74999   0.12624   0.00000  Uiso   1.00
N354   N     0.50000   0.75001   0.37376   0.00000  Uiso   1.00
O355   O     0.50000   0.68454   0.28974   0.00000  Uiso   1.00
O356   O     0.50000   0.81547   0.21026   0.00000  Uiso   1.00
O357   O     0.50000   0.68453   0.21026   0.00000  Uiso   1.00
O358   O     0.50000   0.81547   0.28974   0.00000  Uiso   1.00
O359   O     0.42392   0.75000   0.28045   0.00000  Uiso   1.00
O360   O     0.57608   0.75000   0.21955   0.00000  Uiso   1.00
O361   O     0.42392   0.75000   0.20097   0.00000  Uiso   1.00
O362   O     0.57608   0.75001   0.29903   0.00000  Uiso   1.00
Zn363  Zn    0.50000   0.75001   0.30307   0.00000  Uiso   1.00
Zn364  Zn    0.50000   0.75000   0.19693   0.00000  Uiso   1.00
S365   S     0.65906   0.68897   0.20729   0.00000  Uiso   1.00
O366   O     0.62967   0.65987   0.23996   0.00000  Uiso   1.00
O367   O     0.62407   0.69947   0.16252   0.00000  Uiso   1.00
O368   O     0.37764   0.66111   0.19433   0.00000  Uiso   1.00
H369   H     0.36316   0.63165   0.18378   0.00000  Uiso   1.00
S370   S     0.34228   0.80918   0.29653   0.00000  Uiso   1.00
O371   O     0.37272   0.79475   0.34253   0.00000  Uiso   1.00
O372   O     0.37669   0.83855   0.26838   0.00000  Uiso   1.00
O373   O     0.62420   0.83871   0.30756   0.00000  Uiso   1.00
H374   H     0.63976   0.86455   0.32529   0.00000  Uiso   1.00
N375   N     0.55777   0.52581   0.19083   0.00000  Uiso   1.00
H376   H     0.59669   0.53395   0.20319   0.00000  Uiso   1.00
H377   H     0.55056   0.53849   0.15613   0.00000  Uiso   1.00
N378   N     0.54227   0.97833   0.32411   0.00000  Uiso   1.00
H379   H     0.58217   0.97133   0.32801   0.00000  Uiso   1.00
H380   H     0.52696   0.96650   0.35469   0.00000  Uiso   1.00
S381   S     0.56437   0.82870   0.12792   0.00000  Uiso   1.00
O382   O     0.59307   0.82048   0.17587   0.00000  Uiso   1.00
O383   O     0.60394   0.84699   0.09686   0.00000  Uiso   1.00
O384   O     0.52020   0.86840   0.13043   0.00000  Uiso   1.00
H385   H     0.50574   0.87494   0.09731   0.00000  Uiso   1.00
S386   S     0.45014   0.66494   0.37511   0.00000  Uiso   1.00
O387   O     0.49252   0.63453   0.36517   0.00000  Uiso   1.00
O388   O     0.41885   0.64035   0.40984   0.00000  Uiso   1.00
O389   O     0.40888   0.67620   0.32646   0.00000  Uiso   1.00
H390   H     0.37785   0.68896   0.33784   0.00000  Uiso   1.00
C391   C     0.83253   0.66391   0.25054   0.00000  Uiso   1.00
C392   C     0.83276   0.83603   0.24913   0.00000  Uiso   1.00
C393   C     0.79912   0.72104   0.05085   0.00000  Uiso   1.00
C394   C     0.85030   0.78919   0.44672   0.00000  Uiso   1.00
C395   C     0.80136   0.72061   0.10042   0.00000  Uiso   1.00
C396   C     0.85152   0.78712   0.39753   0.00000  Uiso   1.00
C397   C     0.86425   0.78056   0.10281   0.00000  Uiso   1.00
C398   C     0.81339   0.71413   0.39944   0.00000  Uiso   1.00
C399   C     0.86474   0.77950   0.05389   0.00000  Uiso   1.00
C400   C     0.81560   0.71438   0.44856   0.00000  Uiso   1.00
C401   C     0.83173   0.75075   0.02652   0.00000  Uiso   1.00
C402   C     0.83234   0.75195   0.47341   0.00000  Uiso   1.00
C403   C     0.73415   0.74906   0.23846   0.00000  Uiso   1.00
C404   C     0.93256   0.75123   0.26157   0.00000  Uiso   1.00
C405   C     0.68045   0.73949   0.23556   0.00000  Uiso   1.00
C406   C     0.98640   0.76076   0.26471   0.00000  Uiso   1.00
C407   C     0.78983   0.54524   0.27108   0.00000  Uiso   1.00
C408   C     0.79844   0.95236   0.20851   0.00000  Uiso   1.00
C409   C     0.79325   0.59131   0.27364   0.00000  Uiso   1.00
C410   C     0.80155   0.90621   0.20927   0.00000  Uiso   1.00
C411   C     0.83018   0.61575   0.25019   0.00000  Uiso   1.00
C412   C     0.82991   0.88399   0.24761   0.00000  Uiso   1.00
C413   C     0.86108   0.59441   0.22132   0.00000  Uiso   1.00
C414   C     0.85342   0.90752   0.28604   0.00000  Uiso   1.00
C415   C     0.85790   0.54818   0.21857   0.00000  Uiso   1.00
C416   C     0.85034   0.95372   0.28555   0.00000  Uiso   1.00
C417   C     0.82256   0.52388   0.24416   0.00000  Uiso   1.00
C418   C     0.82304   0.97583   0.24642   0.00000  Uiso   1.00
H419   H     0.76217   0.52615   0.29033   0.00000  Uiso   1.00
H420   H     0.77718   0.96981   0.17855   0.00000  Uiso   1.00
H421   H     0.76622   0.60755   0.29282   0.00000  Uiso   1.00
H422   H     0.78128   0.88789   0.18047   0.00000  Uiso   1.00
H423   H     0.88761   0.61350   0.20094   0.00000  Uiso   1.00
H424   H     0.87451   0.89019   0.31618   0.00000  Uiso   1.00
H425   H     0.77124   0.69844   0.03214   0.00000  Uiso   1.00
H426   H     0.86317   0.82012   0.46313   0.00000  Uiso   1.00
H427   H     0.77630   0.69740   0.11809   0.00000  Uiso   1.00
H428   H     0.86639   0.81582   0.37842   0.00000  Uiso   1.00
H429   H     0.89038   0.80248   0.03683   0.00000  Uiso   1.00
H430   H     0.80413   0.68442   0.46762   0.00000  Uiso   1.00
N431   N     0.83333   0.74999   0.12624   0.00000  Uiso   1.00
N432   N     0.83333   0.75001   0.37376   0.00000  Uiso   1.00
O433   O     0.83334   0.68454   0.28974   0.00000  Uiso   1.00
O434   O     0.83333   0.81547   0.21026   0.00000  Uiso   1.00
O435   O     0.83334   0.68453   0.21026   0.00000  Uiso   1.00
O436   O     0.83333   0.81547   0.28974   0.00000  Uiso   1.00
O437   O     0.75725   0.75000   0.28045   0.00000  Uiso   1.00
O438   O     0.90942   0.75000   0.21955   0.00000  Uiso   1.00
O439   O     0.75725   0.75000   0.20097   0.00000  Uiso   1.00
O440   O     0.90942   0.75001   0.29903   0.00000  Uiso   1.00
Zn441  Zn    0.83333   0.75001   0.30307   0.00000  Uiso   1.00
Zn442  Zn    0.83333   0.75000   0.19693   0.00000  Uiso   1.00
S443   S     0.99239   0.68897   0.20729   0.00000  Uiso   1.00
O444   O     0.96300   0.65987   0.23996   0.00000  Uiso   1.00
O445   O     0.95741   0.69947   0.16252   0.00000  Uiso   1.00
O446   O     0.71097   0.66111   0.19433   0.00000  Uiso   1.00
H447   H     0.69649   0.63165   0.18378   0.00000  Uiso   1.00
S448   S     0.67562   0.80918   0.29653   0.00000  Uiso   1.00
O449   O     0.70606   0.79475   0.34253   0.00000  Uiso   1.00
O450   O     0.71002   0.83855   0.26838   0.00000  Uiso   1.00
O451   O     0.95753   0.83871   0.30756   0.00000  Uiso   1.00
H452   H     0.97309   0.86455   0.32529   0.00000  Uiso   1.00
N453   N     0.89110   0.52581   0.19083   0.00000  Uiso   1.00
H454   H     0.93003   0.53395   0.20319   0.00000  Uiso   1.00
H455   H     0.88389   0.53849   0.15613   0.00000  Uiso   1.00
N456   N     0.87560   0.97833   0.32411   0.00000  Uiso   1.00
H457   H     0.91551   0.97133   0.32801   0.00000  Uiso   1.00
H458   H     0.86029   0.96650   0.35469   0.00000  Uiso   1.00
S459   S     0.89770   0.82870   0.12792   0.00000  Uiso   1.00
O460   O     0.92640   0.82048   0.17587   0.00000  Uiso   1.00
O461   O     0.93728   0.84699   0.09686   0.00000  Uiso   1.00
O462   O     0.85354   0.86840   0.13043   0.00000  Uiso   1.00
H463   H     0.83907   0.87494   0.09731   0.00000  Uiso   1.00
S464   S     0.78347   0.66494   0.37511   0.00000  Uiso   1.00
O465   O     0.82585   0.63453   0.36517   0.00000  Uiso   1.00
O466   O     0.75219   0.64035   0.40984   0.00000  Uiso   1.00
O467   O     0.74221   0.67620   0.32646   0.00000  Uiso   1.00
H468   H     0.71118   0.68896   0.33784   0.00000  Uiso   1.00
C469   C     0.16586   0.16391   0.75054   0.00000  Uiso   1.00
C470   C     0.16609   0.33603   0.74913   0.00000  Uiso   1.00
C471   C     0.13246   0.22104   0.55085   0.00000  Uiso   1.00
C472   C     0.18363   0.28919   0.94672   0.00000  Uiso   1.00
C473   C     0.13469   0.22061   0.60042   0.00000  Uiso   1.00
C474   C     0.18485   0.28712   0.89753   0.00000  Uiso   1.00
C475   C     0.19759   0.28056   0.60281   0.00000  Uiso   1.00
C476   C     0.14672   0.21413   0.89944   0.00000  Uiso   1.00
C477   C     0.19807   0.27950   0.55389   0.00000  Uiso   1.00
C478   C     0.14894   0.21438   0.94856   0.00000  Uiso   1.00
C479   C     0.16506   0.25075   0.52652   0.00000  Uiso   1.00
C480   C     0.16567   0.25195   0.97341   0.00000  Uiso   1.00
C481   C     0.06748   0.24906   0.73846   0.00000  Uiso   1.00
C482   C     0.26589   0.25123   0.76157   0.00000  Uiso   1.00
C483   C     0.01378   0.23949   0.73556   0.00000  Uiso   1.00
C484   C     0.31974   0.26076   0.76471   0.00000  Uiso   1.00
C485   C     0.12316   0.04524   0.77108   0.00000  Uiso   1.00
C486   C     0.13178   0.45236   0.70851   0.00000  Uiso   1.00
C487   C     0.12658   0.09131   0.77364   0.00000  Uiso   1.00
C488   C     0.13489   0.40621   0.70927   0.00000  Uiso   1.00
C489   C     0.16351   0.11575   0.75019   0.00000  Uiso   1.00
C490   C     0.16325   0.38399   0.74761   0.00000  Uiso   1.00
C491   C     0.19441   0.09441   0.72132   0.00000  Uiso   1.00
C492   C     0.18676   0.40752   0.78604   0.00000  Uiso   1.00
C493   C     0.19123   0.04818   0.71857   0.00000  Uiso   1.00
C494   C     0.18368   0.45372   0.78555   0.00000  Uiso   1.00
C495   C     0.15589   0.02388   0.74416   0.00000  Uiso   1.00
C496   C     0.15638   0.47583   0.74642   0.00000  Uiso   1.00
H497   H     0.09550   0.02615   0.79033   0.00000  Uiso   1.00
H498   H     0.11052   0.46981   0.67855   0.00000  Uiso   1.00
H499   H     0.09955   0.10755   0.79282   0.00000  Uiso   1.00
H500   H     0.11461   0.38789   0.68047   0.00000  Uiso   1.00
H501   H     0.22095   0.11350   0.70094   0.00000  Uiso   1.00
H502   H     0.20784   0.39019   0.81618   0.00000  Uiso   1.00
H503   H     0.10457   0.19844   0.53214   0.00000  Uiso   1.00
H504   H     0.19650   0.32012   0.96313   0.00000  Uiso   1.00
H505   H     0.10964   0.19740   0.61809   0.00000  Uiso   1.00
H506   H     0.19973   0.31582   0.87842   0.00000  Uiso   1.00
H507   H     0.22372   0.30248   0.53683   0.00000  Uiso   1.00
H508   H     0.13746   0.18442   0.96762   0.00000  Uiso   1.00
N509   N     0.16667   0.24999   0.62624   0.00000  Uiso   1.00
N510   N     0.16667   0.25001   0.87376   0.00000  Uiso   1.00
O511   O     0.16667   0.18454   0.78974   0.00000  Uiso   1.00
O512   O     0.16666   0.31547   0.71026   0.00000  Uiso   1.00
O513   O     0.16667   0.18453   0.71026   0.00000  Uiso   1.00
O514   O     0.16666   0.31547   0.78974   0.00000  Uiso   1.00
O515   O     0.09058   0.25000   0.78045   0.00000  Uiso   1.00
O516   O     0.24275   0.25000   0.71955   0.00000  Uiso   1.00
O517   O     0.09058   0.25000   0.70097   0.00000  Uiso   1.00
O518   O     0.24275   0.25001   0.79903   0.00000  Uiso   1.00
Zn519  Zn    0.16667   0.25001   0.80307   0.00000  Uiso   1.00
Zn520  Zn    0.16667   0.25000   0.69693   0.00000  Uiso   1.00
S521   S     0.32572   0.18897   0.70729   0.00000  Uiso   1.00
O522   O     0.29634   0.15987   0.73996   0.00000  Uiso   1.00
O523   O     0.29074   0.19947   0.66252   0.00000  Uiso   1.00
O524   O     0.04431   0.16111   0.69433   0.00000  Uiso   1.00
H525   H     0.02983   0.13165   0.68378   0.00000  Uiso   1.00
S526   S     0.00895   0.30918   0.79653   0.00000  Uiso   1.00
O527   O     0.03939   0.29475   0.84253   0.00000  Uiso   1.00
O528   O     0.04336   0.33855   0.76838   0.00000  Uiso   1.00
O529   O     0.29087   0.33871   0.80756   0.00000  Uiso   1.00
H530   H     0.30642   0.36455   0.82529   0.00000  Uiso   1.00
N531   N     0.22444   0.02581   0.69083   0.00000  Uiso   1.00
H532   H     0.26336   0.03395   0.70319   0.00000  Uiso   1.00
H533   H     0.21723   0.03849   0.65613   0.00000  Uiso   1.00
N534   N     0.20894   0.47833   0.82411   0.00000  Uiso   1.00
H535   H     0.24884   0.47133   0.82801   0.00000  Uiso   1.00
H536   H     0.19362   0.46650   0.85469   0.00000  Uiso   1.00
S537   S     0.23103   0.32870   0.62792   0.00000  Uiso   1.00
O538   O     0.25974   0.32048   0.67587   0.00000  Uiso   1.00
O539   O     0.27061   0.34699   0.59686   0.00000  Uiso   1.00
O540   O     0.18687   0.36840   0.63043   0.00000  Uiso   1.00
H541   H     0.17240   0.37494   0.59731   0.00000  Uiso   1.00
S542   S     0.11681   0.16494   0.87511   0.00000  Uiso   1.00
O543   O     0.15919   0.13453   0.86517   0.00000  Uiso   1.00
O544   O     0.08552   0.14035   0.90984   0.00000  Uiso   1.00
O545   O     0.07555   0.17620   0.82646   0.00000  Uiso   1.00
H546   H     0.04451   0.18896   0.83784   0.00000  Uiso   1.00
C547   C     0.49919   0.16391   0.75054   0.00000  Uiso   1.00
C548   C     0.49943   0.33603   0.74913   0.00000  Uiso   1.00
C549   C     0.46579   0.22104   0.55085   0.00000  Uiso   1.00
C550   C     0.51697   0.28919   0.94672   0.00000  Uiso   1.00
C551   C     0.46802   0.22061   0.60042   0.00000  Uiso   1.00
C552   C     0.51819   0.28712   0.89753   0.00000  Uiso   1.00
C553   C     0.53092   0.28056   0.60281   0.00000  Uiso   1.00
C554   C     0.48005   0.21413   0.89944   0.00000  Uiso   1.00
C555   C     0.53141   0.27950   0.55389   0.00000  Uiso   1.00
C556   C     0.48227   0.21438   0.94856   0.00000  Uiso   1.00
C557   C     0.49840   0.25075   0.52652   0.00000  Uiso   1.00
C558   C     0.49900   0.25195   0.97341   0.00000  Uiso   1.00
C559   C     0.40081   0.24906   0.73846   0.00000  Uiso   1.00
C560   C     0.59922   0.25123   0.76157   0.00000  Uiso   1.00
C561   C     0.34712   0.23949   0.73556   0.00000  Uiso   1.00
C562   C     0.65307   0.26076   0.76471   0.00000  Uiso   1.00
C563   C     0.45650   0.04524   0.77108   0.00000  Uiso   1.00
C564   C     0.46511   0.45236   0.70851   0.00000  Uiso   1.00
C565   C     0.45992   0.09131   0.77364   0.00000  Uiso   1.00
C566   C     0.46822   0.40621   0.70927   0.00000  Uiso   1.00
C567   C     0.49684   0.11575   0.75019   0.00000  Uiso   1.00
C568   C     0.49658   0.38399   0.74761   0.00000  Uiso   1.00
C569   C     0.52775   0.09441   0.72132   0.00000  Uiso   1.00
C570   C     0.52009   0.40752   0.78604   0.00000  Uiso   1.00
C571   C     0.52456   0.04818   0.71857   0.00000  Uiso   1.00
C572   C     0.51701   0.45372   0.78555   0.00000  Uiso   1.00
C573   C     0.48923   0.02388   0.74416   0.00000  Uiso   1.00
C574   C     0.48971   0.47583   0.74642   0.00000  Uiso   1.00
H575   H     0.42884   0.02615   0.79033   0.00000  Uiso   1.00
H576   H     0.44385   0.46981   0.67855   0.00000  Uiso   1.00
H577   H     0.43289   0.10755   0.79282   0.00000  Uiso   1.00
H578   H     0.44795   0.38789   0.68047   0.00000  Uiso   1.00
H579   H     0.55428   0.11350   0.70094   0.00000  Uiso   1.00
H580   H     0.54117   0.39019   0.81618   0.00000  Uiso   1.00
H581   H     0.43790   0.19844   0.53214   0.00000  Uiso   1.00
H582   H     0.52983   0.32012   0.96313   0.00000  Uiso   1.00
H583   H     0.44297   0.19740   0.61809   0.00000  Uiso   1.00
H584   H     0.53306   0.31582   0.87842   0.00000  Uiso   1.00
H585   H     0.55705   0.30248   0.53683   0.00000  Uiso   1.00
H586   H     0.47080   0.18442   0.96762   0.00000  Uiso   1.00
N587   N     0.50000   0.24999   0.62624   0.00000  Uiso   1.00
N588   N     0.50000   0.25001   0.87376   0.00000  Uiso   1.00
O589   O     0.50000   0.18454   0.78974   0.00000  Uiso   1.00
O590   O     0.50000   0.31547   0.71026   0.00000  Uiso   1.00
O591   O     0.50000   0.18453   0.71026   0.00000  Uiso   1.00
O592   O     0.50000   0.31547   0.78974   0.00000  Uiso   1.00
O593   O     0.42392   0.25000   0.78045   0.00000  Uiso   1.00
O594   O     0.57608   0.25000   0.71955   0.00000  Uiso   1.00
O595   O     0.42392   0.25000   0.70097   0.00000  Uiso   1.00
O596   O     0.57608   0.25001   0.79903   0.00000  Uiso   1.00
Zn597  Zn    0.50000   0.25001   0.80307   0.00000  Uiso   1.00
Zn598  Zn    0.50000   0.25000   0.69693   0.00000  Uiso   1.00
S599   S     0.65906   0.18897   0.70729   0.00000  Uiso   1.00
O600   O     0.62967   0.15987   0.73996   0.00000  Uiso   1.00
O601   O     0.62407   0.19947   0.66252   0.00000  Uiso   1.00
O602   O     0.37764   0.16111   0.69433   0.00000  Uiso   1.00
H603   H     0.36316   0.13165   0.68378   0.00000  Uiso   1.00
S604   S     0.34228   0.30918   0.79653   0.00000  Uiso   1.00
O605   O     0.37272   0.29475   0.84253   0.00000  Uiso   1.00
O606   O     0.37669   0.33855   0.76838   0.00000  Uiso   1.00
O607   O     0.62420   0.33871   0.80756   0.00000  Uiso   1.00
H608   H     0.63976   0.36455   0.82529   0.00000  Uiso   1.00
N609   N     0.55777   0.02581   0.69083   0.00000  Uiso   1.00
H610   H     0.59669   0.03395   0.70319   0.00000  Uiso   1.00
H611   H     0.55056   0.03849   0.65613   0.00000  Uiso   1.00
N612   N     0.54227   0.47833   0.82411   0.00000  Uiso   1.00
H613   H     0.58217   0.47133   0.82801   0.00000  Uiso   1.00
H614   H     0.52696   0.46650   0.85469   0.00000  Uiso   1.00
S615   S     0.56437   0.32870   0.62792   0.00000  Uiso   1.00
O616   O     0.59307   0.32048   0.67587   0.00000  Uiso   1.00
O617   O     0.60394   0.34699   0.59686   0.00000  Uiso   1.00
O618   O     0.52020   0.36840   0.63043   0.00000  Uiso   1.00
H619   H     0.50574   0.37494   0.59731   0.00000  Uiso   1.00
S620   S     0.45014   0.16494   0.87511   0.00000  Uiso   1.00
O621   O     0.49252   0.13453   0.86517   0.00000  Uiso   1.00
O622   O     0.41885   0.14035   0.90984   0.00000  Uiso   1.00
O623   O     0.40888   0.17620   0.82646   0.00000  Uiso   1.00
H624   H     0.37785   0.18896   0.83784   0.00000  Uiso   1.00
C625   C     0.83253   0.16391   0.75054   0.00000  Uiso   1.00
C626   C     0.83276   0.33603   0.74913   0.00000  Uiso   1.00
C627   C     0.79912   0.22104   0.55085   0.00000  Uiso   1.00
C628   C     0.85030   0.28919   0.94672   0.00000  Uiso   1.00
C629   C     0.80136   0.22061   0.60042   0.00000  Uiso   1.00
C630   C     0.85152   0.28712   0.89753   0.00000  Uiso   1.00
C631   C     0.86425   0.28056   0.60281   0.00000  Uiso   1.00
C632   C     0.81339   0.21413   0.89944   0.00000  Uiso   1.00
C633   C     0.86474   0.27950   0.55389   0.00000  Uiso   1.00
C634   C     0.81560   0.21438   0.94856   0.00000  Uiso   1.00
C635   C     0.83173   0.25075   0.52652   0.00000  Uiso   1.00
C636   C     0.83234   0.25195   0.97341   0.00000  Uiso   1.00
C637   C     0.73415   0.24906   0.73846   0.00000  Uiso   1.00
C638   C     0.93256   0.25123   0.76157   0.00000  Uiso   1.00
C639   C     0.68045   0.23949   0.73556   0.00000  Uiso   1.00
C640   C     0.98640   0.26076   0.76471   0.00000  Uiso   1.00
C641   C     0.78983   0.04524   0.77108   0.00000  Uiso   1.00
C642   C     0.79844   0.45236   0.70851   0.00000  Uiso   1.00
C643   C     0.79325   0.09131   0.77364   0.00000  Uiso   1.00
C644   C     0.80155   0.40621   0.70927   0.00000  Uiso   1.00
C645   C     0.83018   0.11575   0.75019   0.00000  Uiso   1.00
C646   C     0.82991   0.38399   0.74761   0.00000  Uiso   1.00
C647   C     0.86108   0.09441   0.72132   0.00000  Uiso   1.00
C648   C     0.85342   0.40752   0.78604   0.00000  Uiso   1.00
C649   C     0.85790   0.04818   0.71857   0.00000  Uiso   1.00
C650   C     0.85034   0.45372   0.78555   0.00000  Uiso   1.00
C651   C     0.82256   0.02388   0.74416   0.00000  Uiso   1.00
C652   C     0.82304   0.47583   0.74642   0.00000  Uiso   1.00
H653   H     0.76217   0.02615   0.79033   0.00000  Uiso   1.00
H654   H     0.77718   0.46981   0.67855   0.00000  Uiso   1.00
H655   H     0.76622   0.10755   0.79282   0.00000  Uiso   1.00
H656   H     0.78128   0.38789   0.68047   0.00000  Uiso   1.00
H657   H     0.88761   0.11350   0.70094   0.00000  Uiso   1.00
H658   H     0.87451   0.39019   0.81618   0.00000  Uiso   1.00
H659   H     0.77124   0.19844   0.53214   0.00000  Uiso   1.00
H660   H     0.86317   0.32012   0.96313   0.00000  Uiso   1.00
H661   H     0.77630   0.19740   0.61809   0.00000  Uiso   1.00
H662   H     0.86639   0.31582   0.87842   0.00000  Uiso   1.00
H663   H     0.89038   0.30248   0.53683   0.00000  Uiso   1.00
H664   H     0.80413   0.18442   0.96762   0.00000  Uiso   1.00
N665   N     0.83333   0.24999   0.62624   0.00000  Uiso   1.00
N666   N     0.83333   0.25001   0.87376   0.00000  Uiso   1.00
O667   O     0.83334   0.18454   0.78974   0.00000  Uiso   1.00
O668   O     0.83333   0.31547   0.71026   0.00000  Uiso   1.00
O669   O     0.83334   0.18453   0.71026   0.00000  Uiso   1.00
O670   O     0.83333   0.31547   0.78974   0.00000  Uiso   1.00
O671   O     0.75725   0.25000   0.78045   0.00000  Uiso   1.00
O672   O     0.90942   0.25000   0.71955   0.00000  Uiso   1.00
O673   O     0.75725   0.25000   0.70097   0.00000  Uiso   1.00
O674   O     0.90942   0.25001   0.79903   0.00000  Uiso   1.00
Zn675  Zn    0.83333   0.25001   0.80307   0.00000  Uiso   1.00
Zn676  Zn    0.83333   0.25000   0.69693   0.00000  Uiso   1.00
S677   S     0.99239   0.18897   0.70729   0.00000  Uiso   1.00
O678   O     0.96300   0.15987   0.73996   0.00000  Uiso   1.00
O679   O     0.95741   0.19947   0.66252   0.00000  Uiso   1.00
O680   O     0.71097   0.16111   0.69433   0.00000  Uiso   1.00
H681   H     0.69649   0.13165   0.68378   0.00000  Uiso   1.00
S682   S     0.67562   0.30918   0.79653   0.00000  Uiso   1.00
O683   O     0.70606   0.29475   0.84253   0.00000  Uiso   1.00
O684   O     0.71002   0.33855   0.76838   0.00000  Uiso   1.00
O685   O     0.95753   0.33871   0.80756   0.00000  Uiso   1.00
H686   H     0.97309   0.36455   0.82529   0.00000  Uiso   1.00
N687   N     0.89110   0.02581   0.69083   0.00000  Uiso   1.00
H688   H     0.93003   0.03395   0.70319   0.00000  Uiso   1.00
H689   H     0.88389   0.03849   0.65613   0.00000  Uiso   1.00
N690   N     0.87560   0.47833   0.82411   0.00000  Uiso   1.00
H691   H     0.91551   0.47133   0.82801   0.00000  Uiso   1.00
H692   H     0.86029   0.46650   0.85469   0.00000  Uiso   1.00
S693   S     0.89770   0.32870   0.62792   0.00000  Uiso   1.00
O694   O     0.92640   0.32048   0.67587   0.00000  Uiso   1.00
O695   O     0.93728   0.34699   0.59686   0.00000  Uiso   1.00
O696   O     0.85354   0.36840   0.63043   0.00000  Uiso   1.00
H697   H     0.83907   0.37494   0.59731   0.00000  Uiso   1.00
S698   S     0.78347   0.16494   0.87511   0.00000  Uiso   1.00
O699   O     0.82585   0.13453   0.86517   0.00000  Uiso   1.00
O700   O     0.75219   0.14035   0.90984   0.00000  Uiso   1.00
O701   O     0.74221   0.17620   0.82646   0.00000  Uiso   1.00
H702   H     0.71118   0.18896   0.83784   0.00000  Uiso   1.00
C703   C     0.16586   0.66391   0.75054   0.00000  Uiso   1.00
C704   C     0.16609   0.83603   0.74913   0.00000  Uiso   1.00
C705   C     0.13246   0.72104   0.55085   0.00000  Uiso   1.00
C706   C     0.18363   0.78919   0.94672   0.00000  Uiso   1.00
C707   C     0.13469   0.72061   0.60042   0.00000  Uiso   1.00
C708   C     0.18485   0.78712   0.89753   0.00000  Uiso   1.00
C709   C     0.19759   0.78056   0.60281   0.00000  Uiso   1.00
C710   C     0.14672   0.71413   0.89944   0.00000  Uiso   1.00
C711   C     0.19807   0.77950   0.55389   0.00000  Uiso   1.00
C712   C     0.14894   0.71438   0.94856   0.00000  Uiso   1.00
C713   C     0.16506   0.75075   0.52652   0.00000  Uiso   1.00
C714   C     0.16567   0.75195   0.97341   0.00000  Uiso   1.00
C715   C     0.06748   0.74906   0.73846   0.00000  Uiso   1.00
C716   C     0.26589   0.75123   0.76157   0.00000  Uiso   1.00
C717   C     0.01378   0.73949   0.73556   0.00000  Uiso   1.00
C718   C     0.31974   0.76076   0.76471   0.00000  Uiso   1.00
C719   C     0.12316   0.54524   0.77108   0.00000  Uiso   1.00
C720   C     0.13178   0.95236   0.70851   0.00000  Uiso   1.00
C721   C     0.12658   0.59131   0.77364   0.00000  Uiso   1.00
C722   C     0.13489   0.90621   0.70927   0.00000  Uiso   1.00
C723   C     0.16351   0.61575   0.75019   0.00000  Uiso   1.00
C724   C     0.16325   0.88399   0.74761   0.00000  Uiso   1.00
C725   C     0.19441   0.59441   0.72132   0.00000  Uiso   1.00
C726   C     0.18676   0.90752   0.78604   0.00000  Uiso   1.00
C727   C     0.19123   0.54818   0.71857   0.00000  Uiso   1.00
C728   C     0.18368   0.95372   0.78555   0.00000  Uiso   1.00
C729   C     0.15589   0.52388   0.74416   0.00000  Uiso   1.00
C730   C     0.15638   0.97583   0.74642   0.00000  Uiso   1.00
H731   H     0.09550   0.52615   0.79033   0.00000  Uiso   1.00
H732   H     0.11052   0.96981   0.67855   0.00000  Uiso   1.00
H733   H     0.09955   0.60755   0.79282   0.00000  Uiso   1.00
H734   H     0.11461   0.88789   0.68047   0.00000  Uiso   1.00
H735   H     0.22095   0.61350   0.70094   0.00000  Uiso   1.00
H736   H     0.20784   0.89019   0.81618   0.00000  Uiso   1.00
H737   H     0.10457   0.69844   0.53214   0.00000  Uiso   1.00
H738   H     0.19650   0.82012   0.96313   0.00000  Uiso   1.00
H739   H     0.10964   0.69740   0.61809   0.00000  Uiso   1.00
H740   H     0.19973   0.81582   0.87842   0.00000  Uiso   1.00
H741   H     0.22372   0.80248   0.53683   0.00000  Uiso   1.00
H742   H     0.13746   0.68442   0.96762   0.00000  Uiso   1.00
N743   N     0.16667   0.74999   0.62624   0.00000  Uiso   1.00
N744   N     0.16667   0.75001   0.87376   0.00000  Uiso   1.00
O745   O     0.16667   0.68454   0.78974   0.00000  Uiso   1.00
O746   O     0.16666   0.81547   0.71026   0.00000  Uiso   1.00
O747   O     0.16667   0.68453   0.71026   0.00000  Uiso   1.00
O748   O     0.16666   0.81547   0.78974   0.00000  Uiso   1.00
O749   O     0.09058   0.75000   0.78045   0.00000  Uiso   1.00
O750   O     0.24275   0.75000   0.71955   0.00000  Uiso   1.00
O751   O     0.09058   0.75000   0.70097   0.00000  Uiso   1.00
O752   O     0.24275   0.75001   0.79903   0.00000  Uiso   1.00
Zn753  Zn    0.16667   0.75001   0.80307   0.00000  Uiso   1.00
Zn754  Zn    0.16667   0.75000   0.69693   0.00000  Uiso   1.00
S755   S     0.32572   0.68897   0.70729   0.00000  Uiso   1.00
O756   O     0.29634   0.65987   0.73996   0.00000  Uiso   1.00
O757   O     0.29074   0.69947   0.66252   0.00000  Uiso   1.00
O758   O     0.04431   0.66111   0.69433   0.00000  Uiso   1.00
H759   H     0.02983   0.63165   0.68378   0.00000  Uiso   1.00
S760   S     0.00895   0.80918   0.79653   0.00000  Uiso   1.00
O761   O     0.03939   0.79475   0.84253   0.00000  Uiso   1.00
O762   O     0.04336   0.83855   0.76838   0.00000  Uiso   1.00
O763   O     0.29087   0.83871   0.80756   0.00000  Uiso   1.00
H764   H     0.30642   0.86455   0.82529   0.00000  Uiso   1.00
N765   N     0.22444   0.52581   0.69083   0.00000  Uiso   1.00
H766   H     0.26336   0.53395   0.70319   0.00000  Uiso   1.00
H767   H     0.21723   0.53849   0.65613   0.00000  Uiso   1.00
N768   N     0.20894   0.97833   0.82411   0.00000  Uiso   1.00
H769   H     0.24884   0.97133   0.82801   0.00000  Uiso   1.00
H770   H     0.19362   0.96650   0.85469   0.00000  Uiso   1.00
S771   S     0.23103   0.82870   0.62792   0.00000  Uiso   1.00
O772   O     0.25974   0.82048   0.67587   0.00000  Uiso   1.00
O773   O     0.27061   0.84699   0.59686   0.00000  Uiso   1.00
O774   O     0.18687   0.86840   0.63043   0.00000  Uiso   1.00
H775   H     0.17240   0.87494   0.59731   0.00000  Uiso   1.00
S776   S     0.11681   0.66494   0.87511   0.00000  Uiso   1.00
O777   O     0.15919   0.63453   0.86517   0.00000  Uiso   1.00
O778   O     0.08552   0.64035   0.90984   0.00000  Uiso   1.00
O779   O     0.07555   0.67620   0.82646   0.00000  Uiso   1.00
H780   H     0.04451   0.68896   0.83784   0.00000  Uiso   1.00
C781   C     0.49919   0.66391   0.75054   0.00000  Uiso   1.00
C782   C     0.49943   0.83603   0.74913   0.00000  Uiso   1.00
C783   C     0.46579   0.72104   0.55085   0.00000  Uiso   1.00
C784   C     0.51697   0.78919   0.94672   0.00000  Uiso   1.00
C785   C     0.46802   0.72061   0.60042   0.00000  Uiso   1.00
C786   C     0.51819   0.78712   0.89753   0.00000  Uiso   1.00
C787   C     0.53092   0.78056   0.60281   0.00000  Uiso   1.00
C788   C     0.48005   0.71413   0.89944   0.00000  Uiso   1.00
C789   C     0.53141   0.77950   0.55389   0.00000  Uiso   1.00
C790   C     0.48227   0.71438   0.94856   0.00000  Uiso   1.00
C791   C     0.49840   0.75075   0.52652   0.00000  Uiso   1.00
C792   C     0.49900   0.75195   0.97341   0.00000  Uiso   1.00
C793   C     0.40081   0.74906   0.73846   0.00000  Uiso   1.00
C794   C     0.59922   0.75123   0.76157   0.00000  Uiso   1.00
C795   C     0.34712   0.73949   0.73556   0.00000  Uiso   1.00
C796   C     0.65307   0.76076   0.76471   0.00000  Uiso   1.00
C797   C     0.45650   0.54524   0.77108   0.00000  Uiso   1.00
C798   C     0.46511   0.95236   0.70851   0.00000  Uiso   1.00
C799   C     0.45992   0.59131   0.77364   0.00000  Uiso   1.00
C800   C     0.46822   0.90621   0.70927   0.00000  Uiso   1.00
C801   C     0.49684   0.61575   0.75019   0.00000  Uiso   1.00
C802   C     0.49658   0.88399   0.74761   0.00000  Uiso   1.00
C803   C     0.52775   0.59441   0.72132   0.00000  Uiso   1.00
C804   C     0.52009   0.90752   0.78604   0.00000  Uiso   1.00
C805   C     0.52456   0.54818   0.71857   0.00000  Uiso   1.00
C806   C     0.51701   0.95372   0.78555   0.00000  Uiso   1.00
C807   C     0.48923   0.52388   0.74416   0.00000  Uiso   1.00
C808   C     0.48971   0.97583   0.74642   0.00000  Uiso   1.00
H809   H     0.42884   0.52615   0.79033   0.00000  Uiso   1.00
H810   H     0.44385   0.96981   0.67855   0.00000  Uiso   1.00
H811   H     0.43289   0.60755   0.79282   0.00000  Uiso   1.00
H812   H     0.44795   0.88789   0.68047   0.00000  Uiso   1.00
H813   H     0.55428   0.61350   0.70094   0.00000  Uiso   1.00
H814   H     0.54117   0.89019   0.81618   0.00000  Uiso   1.00
H815   H     0.43790   0.69844   0.53214   0.00000  Uiso   1.00
H816   H     0.52983   0.82012   0.96313   0.00000  Uiso   1.00
H817   H     0.44297   0.69740   0.61809   0.00000  Uiso   1.00
H818   H     0.53306   0.81582   0.87842   0.00000  Uiso   1.00
H819   H     0.55705   0.80248   0.53683   0.00000  Uiso   1.00
H820   H     0.47080   0.68442   0.96762   0.00000  Uiso   1.00
N821   N     0.50000   0.74999   0.62624   0.00000  Uiso   1.00
N822   N     0.50000   0.75001   0.87376   0.00000  Uiso   1.00
O823   O     0.50000   0.68454   0.78974   0.00000  Uiso   1.00
O824   O     0.50000   0.81547   0.71026   0.00000  Uiso   1.00
O825   O     0.50000   0.68453   0.71026   0.00000  Uiso   1.00
O826   O     0.50000   0.81547   0.78974   0.00000  Uiso   1.00
O827   O     0.42392   0.75000   0.78045   0.00000  Uiso   1.00
O828   O     0.57608   0.75000   0.71955   0.00000  Uiso   1.00
O829   O     0.42392   0.75000   0.70097   0.00000  Uiso   1.00
O830   O     0.57608   0.75001   0.79903   0.00000  Uiso   1.00
Zn831  Zn    0.50000   0.75001   0.80307   0.00000  Uiso   1.00
Zn832  Zn    0.50000   0.75000   0.69693   0.00000  Uiso   1.00
S833   S     0.65906   0.68897   0.70729   0.00000  Uiso   1.00
O834   O     0.62967   0.65987   0.73996   0.00000  Uiso   1.00
O835   O     0.62407   0.69947   0.66252   0.00000  Uiso   1.00
O836   O     0.37764   0.66111   0.69433   0.00000  Uiso   1.00
H837   H     0.36316   0.63165   0.68378   0.00000  Uiso   1.00
S838   S     0.34228   0.80918   0.79653   0.00000  Uiso   1.00
O839   O     0.37272   0.79475   0.84253   0.00000  Uiso   1.00
O840   O     0.37669   0.83855   0.76838   0.00000  Uiso   1.00
O841   O     0.62420   0.83871   0.80756   0.00000  Uiso   1.00
H842   H     0.63976   0.86455   0.82529   0.00000  Uiso   1.00
N843   N     0.55777   0.52581   0.69083   0.00000  Uiso   1.00
H844   H     0.59669   0.53395   0.70319   0.00000  Uiso   1.00
H845   H     0.55056   0.53849   0.65613   0.00000  Uiso   1.00
N846   N     0.54227   0.97833   0.82411   0.00000  Uiso   1.00
H847   H     0.58217   0.97133   0.82801   0.00000  Uiso   1.00
H848   H     0.52696   0.96650   0.85469   0.00000  Uiso   1.00
S849   S     0.56437   0.82870   0.62792   0.00000  Uiso   1.00
O850   O     0.59307   0.82048   0.67587   0.00000  Uiso   1.00
O851   O     0.60394   0.84699   0.59686   0.00000  Uiso   1.00
O852   O     0.52020   0.86840   0.63043   0.00000  Uiso   1.00
H853   H     0.50574   0.87494   0.59731   0.00000  Uiso   1.00
S854   S     0.45014   0.66494   0.87511   0.00000  Uiso   1.00
O855   O     0.49252   0.63453   0.86517   0.00000  Uiso   1.00
O856   O     0.41885   0.64035   0.90984   0.00000  Uiso   1.00
O857   O     0.40888   0.67620   0.82646   0.00000  Uiso   1.00
H858   H     0.37785   0.68896   0.83784   0.00000  Uiso   1.00
C859   C     0.83253   0.66391   0.75054   0.00000  Uiso   1.00
C860   C     0.83276   0.83603   0.74913   0.00000  Uiso   1.00
C861   C     0.79912   0.72104   0.55085   0.00000  Uiso   1.00
C862   C     0.85030   0.78919   0.94672   0.00000  Uiso   1.00
C863   C     0.80136   0.72061   0.60042   0.00000  Uiso   1.00
C864   C     0.85152   0.78712   0.89753   0.00000  Uiso   1.00
C865   C     0.86425   0.78056   0.60281   0.00000  Uiso   1.00
C866   C     0.81339   0.71413   0.89944   0.00000  Uiso   1.00
C867   C     0.86474   0.77950   0.55389   0.00000  Uiso   1.00
C868   C     0.81560   0.71438   0.94856   0.00000  Uiso   1.00
C869   C     0.83173   0.75075   0.52652   0.00000  Uiso   1.00
C870   C     0.83234   0.75195   0.97341   0.00000  Uiso   1.00
C871   C     0.73415   0.74906   0.73846   0.00000  Uiso   1.00
C872   C     0.93256   0.75123   0.76157   0.00000  Uiso   1.00
C873   C     0.68045   0.73949   0.73556   0.00000  Uiso   1.00
C874   C     0.98640   0.76076   0.76471   0.00000  Uiso   1.00
C875   C     0.78983   0.54524   0.77108   0.00000  Uiso   1.00
C876   C     0.79844   0.95236   0.70851   0.00000  Uiso   1.00
C877   C     0.79325   0.59131   0.77364   0.00000  Uiso   1.00
C878   C     0.80155   0.90621   0.70927   0.00000  Uiso   1.00
C879   C     0.83018   0.61575   0.75019   0.00000  Uiso   1.00
C880   C     0.82991   0.88399   0.74761   0.00000  Uiso   1.00
C881   C     0.86108   0.59441   0.72132   0.00000  Uiso   1.00
C882   C     0.85342   0.90752   0.78604   0.00000  Uiso   1.00
C883   C     0.85790   0.54818   0.71857   0.00000  Uiso   1.00
C884   C     0.85034   0.95372   0.78555   0.00000  Uiso   1.00
C885   C     0.82256   0.52388   0.74416   0.00000  Uiso   1.00
C886   C     0.82304   0.97583   0.74642   0.00000  Uiso   1.00
H887   H     0.76217   0.52615   0.79033   0.00000  Uiso   1.00
H888   H     0.77718   0.96981   0.67855   0.00000  Uiso   1.00
H889   H     0.76622   0.60755   0.79282   0.00000  Uiso   1.00
H890   H     0.78128   0.88789   0.68047   0.00000  Uiso   1.00
H891   H     0.88761   0.61350   0.70094   0.00000  Uiso   1.00
H892   H     0.87451   0.89019   0.81618   0.00000  Uiso   1.00
H893   H     0.77124   0.69844   0.53214   0.00000  Uiso   1.00
H894   H     0.86317   0.82012   0.96313   0.00000  Uiso   1.00
H895   H     0.77630   0.69740   0.61809   0.00000  Uiso   1.00
H896   H     0.86639   0.81582   0.87842   0.00000  Uiso   1.00
H897   H     0.89038   0.80248   0.53683   0.00000  Uiso   1.00
H898   H     0.80413   0.68442   0.96762   0.00000  Uiso   1.00
N899   N     0.83333   0.74999   0.62624   0.00000  Uiso   1.00
N900   N     0.83333   0.75001   0.87376   0.00000  Uiso   1.00
O901   O     0.83334   0.68454   0.78974   0.00000  Uiso   1.00
O902   O     0.83333   0.81547   0.71026   0.00000  Uiso   1.00
O903   O     0.83334   0.68453   0.71026   0.00000  Uiso   1.00
O904   O     0.83333   0.81547   0.78974   0.00000  Uiso   1.00
O905   O     0.75725   0.75000   0.78045   0.00000  Uiso   1.00
O906   O     0.90942   0.75000   0.71955   0.00000  Uiso   1.00
O907   O     0.75725   0.75000   0.70097   0.00000  Uiso   1.00
O908   O     0.90942   0.75001   0.79903   0.00000  Uiso   1.00
Zn909  Zn    0.83333   0.75001   0.80307   0.00000  Uiso   1.00
Zn910  Zn    0.83333   0.75000   0.69693   0.00000  Uiso   1.00
S911   S     0.99239   0.68897   0.70729   0.00000  Uiso   1.00
O912   O     0.96300   0.65987   0.73996   0.00000  Uiso   1.00
O913   O     0.95741   0.69947   0.66252   0.00000  Uiso   1.00
O914   O     0.71097   0.66111   0.69433   0.00000  Uiso   1.00
H915   H     0.69649   0.63165   0.68378   0.00000  Uiso   1.00
S916   S     0.67562   0.80918   0.79653   0.00000  Uiso   1.00
O917   O     0.70606   0.79475   0.84253   0.00000  Uiso   1.00
O918   O     0.71002   0.83855   0.76838   0.00000  Uiso   1.00
O919   O     0.95753   0.83871   0.80756   0.00000  Uiso   1.00
H920   H     0.97309   0.86455   0.82529   0.00000  Uiso   1.00
N921   N     0.89110   0.52581   0.69083   0.00000  Uiso   1.00
H922   H     0.93003   0.53395   0.70319   0.00000  Uiso   1.00
H923   H     0.88389   0.53849   0.65613   0.00000  Uiso   1.00
N924   N     0.87560   0.97833   0.82411   0.00000  Uiso   1.00
H925   H     0.91551   0.97133   0.82801   0.00000  Uiso   1.00
H926   H     0.86029   0.96650   0.85469   0.00000  Uiso   1.00
S927   S     0.89770   0.82870   0.62792   0.00000  Uiso   1.00
O928   O     0.92640   0.82048   0.67587   0.00000  Uiso   1.00
O929   O     0.93728   0.84699   0.59686   0.00000  Uiso   1.00
O930   O     0.85354   0.86840   0.63043   0.00000  Uiso   1.00
H931   H     0.83907   0.87494   0.59731   0.00000  Uiso   1.00
S932   S     0.78347   0.66494   0.87511   0.00000  Uiso   1.00
O933   O     0.82585   0.63453   0.86517   0.00000  Uiso   1.00
O934   O     0.75219   0.64035   0.90984   0.00000  Uiso   1.00
O935   O     0.74221   0.67620   0.82646   0.00000  Uiso   1.00
H936   H     0.71118   0.68896   0.83784   0.00000  Uiso   1.00
loop_
_geom_bond_atom_site_label_1
_geom_bond_atom_site_label_2
_geom_bond_distance
_geom_bond_site_symmetry_2
_ccdc_geom_bond_type
C1     C21     1.439   .     S
C1     O43     1.303   .     A
C1     O45     1.286   .     A
C2     O46     1.290   .     A
C2     O44     1.298   .     A
C2     C22     1.436   .     S
C3     H35     1.080   .     S
C3     C5      1.414   .     A
C3     C11     1.419   .     A
C4     H36     1.080   .     S
C4     C12     1.418   .     A
C4     C6      1.418   .     A
C5     H37     1.082   .     S
C5     N41     1.364   .     A
C6     H38     1.081   .     S
C6     N42     1.368   .     A
C7     C9      1.405   .     A
C7     S69     1.787   .     S
C7     N41     1.394   .     A
C8     N42     1.392   .     A
C8     S74     1.769   .     S
C8     C10     1.402   .     A
C9     H39     1.078   .     S
C9     C11     1.389   .     A
C10    H40     1.079   .     S
C10    C12     1.386   .     A
C11    C480    1.523   1_554 S
C12    C479    1.523   .     S
C13    O47     1.278   .     A
C13    O49     1.287   .     A
C13    C15     1.394   .     S
C14    O48     1.279   .     A
C14    C16     1.398   .     S
C14    O50     1.287   .     A
C15    C172    1.347   1_455 S
C15    S209    1.785   1_455 S
C16    C93     1.347   .     S
C16    S136    1.789   .     S
C17    H29     1.084   .     S
C17    C27     1.394   .     A
C17    C19     1.381   .     A
C18    H30     1.084   .     S
C18    C20     1.383   .     A
C18    C28     1.396   .     A
C19    H31     1.076   .     S
C19    C21     1.396   .     A
C20    C22     1.398   .     A
C20    H32     1.083   .     S
C21    C23     1.400   .     A
C22    C24     1.399   .     A
C23    H33     1.082   .     S
C23    C25     1.387   .     A
C24    H34     1.083   .     S
C24    C26     1.385   .     A
C25    N63     1.433   .     S
C25    C27     1.400   .     A
C26    N66     1.433   .     S
C26    C28     1.401   .     A
C27    C262    1.435   1_545 S
C28    C261    1.435   .     S
N41    Zn52    2.026   .     S
N42    Zn51    2.026   .     S
O43    Zn51    2.010   .     S
O44    Zn52    2.010   .     S
O45    Zn52    1.976   .     S
O46    Zn51    1.976   .     S
O47    Zn51    1.986   .     S
O48    Zn52    1.986   .     S
O49    Zn52    1.973   .     S
O50    Zn51    1.973   .     S
S53    O55     1.503   .     D
S53    O54     1.502   .     D
S53    C93     1.785   .     S
S53    O134    1.682   .     S
O56    H57     0.990   .     S
O56    S209    1.682   1_455 S
S58    O60     1.503   .     D
S58    O59     1.503   .     D
S58    C172    1.789   1_455 S
S58    O217    1.681   1_455 S
O61    H62     0.990   .     S
O61    S136    1.681   .     S
N63    H65     1.046   .     S
N63    H64     1.046   .     S
N66    H68     1.046   .     S
N66    H67     1.046   .     S
S69    O71     1.504   .     D
S69    O70     1.494   .     D
S69    O72     1.678   .     S
O72    H73     0.991   .     S
S74    O76     1.505   .     D
S74    O77     1.676   .     S
S74    O75     1.502   .     D
O77    H78     0.991   .     S
C79    C99     1.439   .     S
C79    O121    1.303   .     A
C79    O123    1.286   .     A
C80    O124    1.290   .     A
C80    O122    1.298   .     A
C80    C100    1.436   .     S
C81    H113    1.080   .     S
C81    C83     1.414   .     A
C81    C89     1.419   .     A
C82    H114    1.080   .     S
C82    C90     1.418   .     A
C82    C84     1.418   .     A
C83    H115    1.082   .     S
C83    N119    1.364   .     A
C84    H116    1.081   .     S
C84    N120    1.368   .     A
C85    C87     1.405   .     A
C85    S147    1.787   .     S
C85    N119    1.394   .     A
C86    N120    1.392   .     A
C86    S152    1.769   .     S
C86    C88     1.402   .     A
C87    H117    1.078   .     S
C87    C89     1.389   .     A
C88    H118    1.079   .     S
C88    C90     1.386   .     A
C89    C558    1.523   1_554 S
C90    C557    1.523   .     S
C91    O125    1.278   .     A
C91    O127    1.287   .     A
C91    C93     1.394   .     S
C92    O126    1.279   .     A
C92    C94     1.398   .     S
C92    O128    1.287   .     A
C94    C171    1.347   .     S
C94    S214    1.789   .     S
C95    H107    1.084   .     S
C95    C105    1.394   .     A
C95    C97     1.381   .     A
C96    H108    1.084   .     S
C96    C98     1.383   .     A
C96    C106    1.396   .     A
C97    H109    1.076   .     S
C97    C99     1.396   .     A
C98    C100    1.398   .     A
C98    H110    1.083   .     S
C99    C101    1.400   .     A
C100   C102    1.399   .     A
C101   H111    1.082   .     S
C101   C103    1.387   .     A
C102   H112    1.083   .     S
C102   C104    1.385   .     A
C103   N141    1.433   .     S
C103   C105    1.400   .     A
C104   N144    1.433   .     S
C104   C106    1.401   .     A
C105   C340    1.435   1_545 S
C106   C339    1.435   .     S
N119   Zn130   2.026   .     S
N120   Zn129   2.026   .     S
O121   Zn129   2.010   .     S
O122   Zn130   2.010   .     S
O123   Zn130   1.976   .     S
O124   Zn129   1.976   .     S
O125   Zn129   1.986   .     S
O126   Zn130   1.986   .     S
O127   Zn130   1.973   .     S
O128   Zn129   1.973   .     S
S131   O133    1.503   .     D
S131   O132    1.502   .     D
S131   C171    1.785   .     S
S131   O212    1.682   .     S
O134   H135    0.990   .     S
S136   O138    1.503   .     D
S136   O137    1.503   .     D
O139   H140    0.990   .     S
O139   S214    1.681   .     S
N141   H143    1.046   .     S
N141   H142    1.046   .     S
N144   H146    1.046   .     S
N144   H145    1.046   .     S
S147   O149    1.504   .     D
S147   O148    1.494   .     D
S147   O150    1.678   .     S
O150   H151    0.991   .     S
S152   O154    1.505   .     D
S152   O155    1.676   .     S
S152   O153    1.502   .     D
O155   H156    0.991   .     S
C157   C177    1.439   .     S
C157   O199    1.303   .     A
C157   O201    1.286   .     A
C158   O202    1.290   .     A
C158   O200    1.298   .     A
C158   C178    1.436   .     S
C159   H191    1.080   .     S
C159   C161    1.414   .     A
C159   C167    1.419   .     A
C160   H192    1.080   .     S
C160   C168    1.418   .     A
C160   C162    1.418   .     A
C161   H193    1.082   .     S
C161   N197    1.364   .     A
C162   H194    1.081   .     S
C162   N198    1.368   .     A
C163   C165    1.405   .     A
C163   S225    1.787   .     S
C163   N197    1.394   .     A
C164   N198    1.392   .     A
C164   S230    1.769   .     S
C164   C166    1.402   .     A
C165   H195    1.078   .     S
C165   C167    1.389   .     A
C166   H196    1.079   .     S
C166   C168    1.386   .     A
C167   C636    1.523   1_554 S
C168   C635    1.523   .     S
C169   O203    1.278   .     A
C169   O205    1.287   .     A
C169   C171    1.394   .     S
C170   O204    1.279   .     A
C170   C172    1.398   .     S
C170   O206    1.287   .     A
C172   C15     1.347   1_655 S
C172   S58     1.789   1_655 S
C173   H185    1.084   .     S
C173   C183    1.394   .     A
C173   C175    1.381   .     A
C174   H186    1.084   .     S
C174   C176    1.383   .     A
C174   C184    1.396   .     A
C175   H187    1.076   .     S
C175   C177    1.396   .     A
C176   C178    1.398   .     A
C176   H188    1.083   .     S
C177   C179    1.400   .     A
C178   C180    1.399   .     A
C179   H189    1.082   .     S
C179   C181    1.387   .     A
C180   H190    1.083   .     S
C180   C182    1.385   .     A
C181   N219    1.433   .     S
C181   C183    1.400   .     A
C182   N222    1.433   .     S
C182   C184    1.401   .     A
C183   C418    1.435   1_545 S
C184   C417    1.435   .     S
N197   Zn208   2.026   .     S
N198   Zn207   2.026   .     S
O199   Zn207   2.010   .     S
O200   Zn208   2.010   .     S
O201   Zn208   1.976   .     S
O202   Zn207   1.976   .     S
O203   Zn207   1.986   .     S
O204   Zn208   1.986   .     S
O205   Zn208   1.973   .     S
O206   Zn207   1.973   .     S
S209   O211    1.503   .     D
S209   O210    1.502   .     D
S209   C15     1.785   1_655 S
S209   O56     1.682   1_655 S
O212   H213    0.990   .     S
S214   O216    1.503   .     D
S214   O215    1.503   .     D
O217   H218    0.990   .     S
O217   S58     1.681   1_655 S
N219   H221    1.046   .     S
N219   H220    1.046   .     S
N222   H224    1.046   .     S
N222   H223    1.046   .     S
S225   O227    1.504   .     D
S225   O226    1.494   .     D
S225   O228    1.678   .     S
O228   H229    0.991   .     S
S230   O232    1.505   .     D
S230   O233    1.676   .     S
S230   O231    1.502   .     D
O233   H234    0.991   .     S
C235   C255    1.439   .     S
C235   O277    1.303   .     A
C235   O279    1.286   .     A
C236   O280    1.290   .     A
C236   O278    1.298   .     A
C236   C256    1.436   .     S
C237   H269    1.080   .     S
C237   C239    1.414   .     A
C237   C245    1.419   .     A
C238   H270    1.080   .     S
C238   C246    1.418   .     A
C238   C240    1.418   .     A
C239   H271    1.082   .     S
C239   N275    1.364   .     A
C240   H272    1.081   .     S
C240   N276    1.368   .     A
C241   C243    1.405   .     A
C241   S303    1.787   .     S
C241   N275    1.394   .     A
C242   N276    1.392   .     A
C242   S308    1.769   .     S
C242   C244    1.402   .     A
C243   H273    1.078   .     S
C243   C245    1.389   .     A
C244   H274    1.079   .     S
C244   C246    1.386   .     A
C245   C714    1.523   1_554 S
C246   C713    1.523   .     S
C247   O281    1.278   .     A
C247   O283    1.287   .     A
C247   C249    1.394   .     S
C248   O282    1.279   .     A
C248   C250    1.398   .     S
C248   O284    1.287   .     A
C249   C406    1.347   1_455 S
C249   S443    1.785   1_455 S
C250   C327    1.347   .     S
C250   S370    1.789   .     S
C251   H263    1.084   .     S
C251   C261    1.394   .     A
C251   C253    1.381   .     A
C252   H264    1.084   .     S
C252   C254    1.383   .     A
C252   C262    1.396   .     A
C253   H265    1.076   .     S
C253   C255    1.396   .     A
C254   C256    1.398   .     A
C254   H266    1.083   .     S
C255   C257    1.400   .     A
C256   C258    1.399   .     A
C257   H267    1.082   .     S
C257   C259    1.387   .     A
C258   H268    1.083   .     S
C258   C260    1.385   .     A
C259   N297    1.433   .     S
C259   C261    1.400   .     A
C260   N300    1.433   .     S
C260   C262    1.401   .     A
C262   C27     1.435   1_565 S
N275   Zn286   2.026   .     S
N276   Zn285   2.026   .     S
O277   Zn285   2.010   .     S
O278   Zn286   2.010   .     S
O279   Zn286   1.976   .     S
O280   Zn285   1.976   .     S
O281   Zn285   1.986   .     S
O282   Zn286   1.986   .     S
O283   Zn286   1.973   .     S
O284   Zn285   1.973   .     S
S287   O289    1.503   .     D
S287   O288    1.502   .     D
S287   C327    1.785   .     S
S287   O368    1.682   .     S
O290   H291    0.990   .     S
O290   S443    1.682   1_455 S
S292   O294    1.503   .     D
S292   O293    1.503   .     D
S292   C406    1.789   1_455 S
S292   O451    1.681   1_455 S
O295   H296    0.990   .     S
O295   S370    1.681   .     S
N297   H299    1.046   .     S
N297   H298    1.046   .     S
N300   H302    1.046   .     S
N300   H301    1.046   .     S
S303   O305    1.504   .     D
S303   O304    1.494   .     D
S303   O306    1.678   .     S
O306   H307    0.991   .     S
S308   O310    1.505   .     D
S308   O311    1.676   .     S
S308   O309    1.502   .     D
O311   H312    0.991   .     S
C313   C333    1.439   .     S
C313   O355    1.303   .     A
C313   O357    1.286   .     A
C314   O358    1.290   .     A
C314   O356    1.298   .     A
C314   C334    1.436   .     S
C315   H347    1.080   .     S
C315   C317    1.414   .     A
C315   C323    1.419   .     A
C316   H348    1.080   .     S
C316   C324    1.418   .     A
C316   C318    1.418   .     A
C317   H349    1.082   .     S
C317   N353    1.364   .     A
C318   H350    1.081   .     S
C318   N354    1.368   .     A
C319   C321    1.405   .     A
C319   S381    1.787   .     S
C319   N353    1.394   .     A
C320   N354    1.392   .     A
C320   S386    1.769   .     S
C320   C322    1.402   .     A
C321   H351    1.078   .     S
C321   C323    1.389   .     A
C322   H352    1.079   .     S
C322   C324    1.386   .     A
C323   C792    1.523   1_554 S
C324   C791    1.523   .     S
C325   O359    1.278   .     A
C325   O361    1.287   .     A
C325   C327    1.394   .     S
C326   O360    1.279   .     A
C326   C328    1.398   .     S
C326   O362    1.287   .     A
C328   C405    1.347   .     S
C328   S448    1.789   .     S
C329   H341    1.084   .     S
C329   C339    1.394   .     A
C329   C331    1.381   .     A
C330   H342    1.084   .     S
C330   C332    1.383   .     A
C330   C340    1.396   .     A
C331   H343    1.076   .     S
C331   C333    1.396   .     A
C332   C334    1.398   .     A
C332   H344    1.083   .     S
C333   C335    1.400   .     A
C334   C336    1.399   .     A
C335   H345    1.082   .     S
C335   C337    1.387   .     A
C336   H346    1.083   .     S
C336   C338    1.385   .     A
C337   N375    1.433   .     S
C337   C339    1.400   .     A
C338   N378    1.433   .     S
C338   C340    1.401   .     A
C340   C105    1.435   1_565 S
N353   Zn364   2.026   .     S
N354   Zn363   2.026   .     S
O355   Zn363   2.010   .     S
O356   Zn364   2.010   .     S
O357   Zn364   1.976   .     S
O358   Zn363   1.976   .     S
O359   Zn363   1.986   .     S
O360   Zn364   1.986   .     S
O361   Zn364   1.973   .     S
O362   Zn363   1.973   .     S
S365   O367    1.503   .     D
S365   O366    1.502   .     D
S365   C405    1.785   .     S
S365   O446    1.682   .     S
O368   H369    0.990   .     S
S370   O372    1.503   .     D
S370   O371    1.503   .     D
O373   H374    0.990   .     S
O373   S448    1.681   .     S
N375   H377    1.046   .     S
N375   H376    1.046   .     S
N378   H380    1.046   .     S
N378   H379    1.046   .     S
S381   O383    1.504   .     D
S381   O382    1.494   .     D
S381   O384    1.678   .     S
O384   H385    0.991   .     S
S386   O388    1.505   .     D
S386   O389    1.676   .     S
S386   O387    1.502   .     D
O389   H390    0.991   .     S
C391   C411    1.439   .     S
C391   O433    1.303   .     A
C391   O435    1.286   .     A
C392   O436    1.290   .     A
C392   O434    1.298   .     A
C392   C412    1.436   .     S
C393   H425    1.080   .     S
C393   C395    1.414   .     A
C393   C401    1.419   .     A
C394   H426    1.080   .     S
C394   C402    1.418   .     A
C394   C396    1.418   .     A
C395   H427    1.082   .     S
C395   N431    1.364   .     A
C396   H428    1.081   .     S
C396   N432    1.368   .     A
C397   C399    1.405   .     A
C397   S459    1.787   .     S
C397   N431    1.394   .     A
C398   N432    1.392   .     A
C398   S464    1.769   .     S
C398   C400    1.402   .     A
C399   H429    1.078   .     S
C399   C401    1.389   .     A
C400   H430    1.079   .     S
C400   C402    1.386   .     A
C401   C870    1.523   1_554 S
C402   C869    1.523   .     S
C403   O437    1.278   .     A
C403   O439    1.287   .     A
C403   C405    1.394   .     S
C404   O438    1.279   .     A
C404   C406    1.398   .     S
C404   O440    1.287   .     A
C406   C249    1.347   1_655 S
C406   S292    1.789   1_655 S
C407   H419    1.084   .     S
C407   C417    1.394   .     A
C407   C409    1.381   .     A
C408   H420    1.084   .     S
C408   C410    1.383   .     A
C408   C418    1.396   .     A
C409   H421    1.076   .     S
C409   C411    1.396   .     A
C410   C412    1.398   .     A
C410   H422    1.083   .     S
C411   C413    1.400   .     A
C412   C414    1.399   .     A
C413   H423    1.082   .     S
C413   C415    1.387   .     A
C414   H424    1.083   .     S
C414   C416    1.385   .     A
C415   N453    1.433   .     S
C415   C417    1.400   .     A
C416   N456    1.433   .     S
C416   C418    1.401   .     A
C418   C183    1.435   1_565 S
N431   Zn442   2.026   .     S
N432   Zn441   2.026   .     S
O433   Zn441   2.010   .     S
O434   Zn442   2.010   .     S
O435   Zn442   1.976   .     S
O436   Zn441   1.976   .     S
O437   Zn441   1.986   .     S
O438   Zn442   1.986   .     S
O439   Zn442   1.973   .     S
O440   Zn441   1.973   .     S
S443   O445    1.503   .     D
S443   O444    1.502   .     D
S443   C249    1.785   1_655 S
S443   O290    1.682   1_655 S
O446   H447    0.990   .     S
S448   O450    1.503   .     D
S448   O449    1.503   .     D
O451   H452    0.990   .     S
O451   S292    1.681   1_655 S
N453   H455    1.046   .     S
N453   H454    1.046   .     S
N456   H458    1.046   .     S
N456   H457    1.046   .     S
S459   O461    1.504   .     D
S459   O460    1.494   .     D
S459   O462    1.678   .     S
O462   H463    0.991   .     S
S464   O466    1.505   .     D
S464   O467    1.676   .     S
S464   O465    1.502   .     D
O467   H468    0.991   .     S
C469   C489    1.439   .     S
C469   O511    1.303   .     A
C469   O513    1.286   .     A
C470   O514    1.290   .     A
C470   O512    1.298   .     A
C470   C490    1.436   .     S
C471   H503    1.080   .     S
C471   C473    1.414   .     A
C471   C479    1.419   .     A
C472   H504    1.080   .     S
C472   C480    1.418   .     A
C472   C474    1.418   .     A
C473   H505    1.082   .     S
C473   N509    1.364   .     A
C474   H506    1.081   .     S
C474   N510    1.368   .     A
C475   C477    1.405   .     A
C475   S537    1.787   .     S
C475   N509    1.394   .     A
C476   N510    1.392   .     A
C476   S542    1.769   .     S
C476   C478    1.402   .     A
C477   H507    1.078   .     S
C477   C479    1.389   .     A
C478   H508    1.079   .     S
C478   C480    1.386   .     A
C480   C11     1.523   1_556 S
C481   O515    1.278   .     A
C481   O517    1.287   .     A
C481   C483    1.394   .     S
C482   O516    1.279   .     A
C482   C484    1.398   .     S
C482   O518    1.287   .     A
C483   C640    1.347   1_455 S
C483   S677    1.785   1_455 S
C484   C561    1.347   .     S
C484   S604    1.789   .     S
C485   H497    1.084   .     S
C485   C495    1.394   .     A
C485   C487    1.381   .     A
C486   H498    1.084   .     S
C486   C488    1.383   .     A
C486   C496    1.396   .     A
C487   H499    1.076   .     S
C487   C489    1.396   .     A
C488   C490    1.398   .     A
C488   H500    1.083   .     S
C489   C491    1.400   .     A
C490   C492    1.399   .     A
C491   H501    1.082   .     S
C491   C493    1.387   .     A
C492   H502    1.083   .     S
C492   C494    1.385   .     A
C493   N531    1.433   .     S
C493   C495    1.400   .     A
C494   N534    1.433   .     S
C494   C496    1.401   .     A
C495   C730    1.435   1_545 S
C496   C729    1.435   .     S
N509   Zn520   2.026   .     S
N510   Zn519   2.026   .     S
O511   Zn519   2.010   .     S
O512   Zn520   2.010   .     S
O513   Zn520   1.976   .     S
O514   Zn519   1.976   .     S
O515   Zn519   1.986   .     S
O516   Zn520   1.986   .     S
O517   Zn520   1.973   .     S
O518   Zn519   1.973   .     S
S521   O523    1.503   .     D
S521   O522    1.502   .     D
S521   C561    1.785   .     S
S521   O602    1.682   .     S
O524   H525    0.990   .     S
O524   S677    1.682   1_455 S
S526   O528    1.503   .     D
S526   O527    1.503   .     D
S526   C640    1.789   1_455 S
S526   O685    1.681   1_455 S
O529   H530    0.990   .     S
O529   S604    1.681   .     S
N531   H533    1.046   .     S
N531   H532    1.046   .     S
N534   H536    1.046   .     S
N534   H535    1.046   .     S
S537   O539    1.504   .     D
S537   O538    1.494   .     D
S537   O540    1.678   .     S
O540   H541    0.991   .     S
S542   O544    1.505   .     D
S542   O545    1.676   .     S
S542   O543    1.502   .     D
O545   H546    0.991   .     S
C547   C567    1.439   .     S
C547   O589    1.303   .     A
C547   O591    1.286   .     A
C548   O592    1.290   .     A
C548   O590    1.298   .     A
C548   C568    1.436   .     S
C549   H581    1.080   .     S
C549   C551    1.414   .     A
C549   C557    1.419   .     A
C550   H582    1.080   .     S
C550   C558    1.418   .     A
C550   C552    1.418   .     A
C551   H583    1.082   .     S
C551   N587    1.364   .     A
C552   H584    1.081   .     S
C552   N588    1.368   .     A
C553   C555    1.405   .     A
C553   S615    1.787   .     S
C553   N587    1.394   .     A
C554   N588    1.392   .     A
C554   S620    1.769   .     S
C554   C556    1.402   .     A
C555   H585    1.078   .     S
C555   C557    1.389   .     A
C556   H586    1.079   .     S
C556   C558    1.386   .     A
C558   C89     1.523   1_556 S
C559   O593    1.278   .     A
C559   O595    1.287   .     A
C559   C561    1.394   .     S
C560   O594    1.279   .     A
C560   C562    1.398   .     S
C560   O596    1.287   .     A
C562   C639    1.347   .     S
C562   S682    1.789   .     S
C563   H575    1.084   .     S
C563   C573    1.394   .     A
C563   C565    1.381   .     A
C564   H576    1.084   .     S
C564   C566    1.383   .     A
C564   C574    1.396   .     A
C565   H577    1.076   .     S
C565   C567    1.396   .     A
C566   C568    1.398   .     A
C566   H578    1.083   .     S
C567   C569    1.400   .     A
C568   C570    1.399   .     A
C569   H579    1.082   .     S
C569   C571    1.387   .     A
C570   H580    1.083   .     S
C570   C572    1.385   .     A
C571   N609    1.433   .     S
C571   C573    1.400   .     A
C572   N612    1.433   .     S
C572   C574    1.401   .     A
C573   C808    1.435   1_545 S
C574   C807    1.435   .     S
N587   Zn598   2.026   .     S
N588   Zn597   2.026   .     S
O589   Zn597   2.010   .     S
O590   Zn598   2.010   .     S
O591   Zn598   1.976   .     S
O592   Zn597   1.976   .     S
O593   Zn597   1.986   .     S
O594   Zn598   1.986   .     S
O595   Zn598   1.973   .     S
O596   Zn597   1.973   .     S
S599   O601    1.503   .     D
S599   O600    1.502   .     D
S599   C639    1.785   .     S
S599   O680    1.682   .     S
O602   H603    0.990   .     S
S604   O606    1.503   .     D
S604   O605    1.503   .     D
O607   H608    0.990   .     S
O607   S682    1.681   .     S
N609   H611    1.046   .     S
N609   H610    1.046   .     S
N612   H614    1.046   .     S
N612   H613    1.046   .     S
S615   O617    1.504   .     D
S615   O616    1.494   .     D
S615   O618    1.678   .     S
O618   H619    0.991   .     S
S620   O622    1.505   .     D
S620   O623    1.676   .     S
S620   O621    1.502   .     D
O623   H624    0.991   .     S
C625   C645    1.439   .     S
C625   O667    1.303   .     A
C625   O669    1.286   .     A
C626   O670    1.290   .     A
C626   O668    1.298   .     A
C626   C646    1.436   .     S
C627   H659    1.080   .     S
C627   C629    1.414   .     A
C627   C635    1.419   .     A
C628   H660    1.080   .     S
C628   C636    1.418   .     A
C628   C630    1.418   .     A
C629   H661    1.082   .     S
C629   N665    1.364   .     A
C630   H662    1.081   .     S
C630   N666    1.368   .     A
C631   C633    1.405   .     A
C631   S693    1.787   .     S
C631   N665    1.394   .     A
C632   N666    1.392   .     A
C632   S698    1.769   .     S
C632   C634    1.402   .     A
C633   H663    1.078   .     S
C633   C635    1.389   .     A
C634   H664    1.079   .     S
C634   C636    1.386   .     A
C636   C167    1.523   1_556 S
C637   O671    1.278   .     A
C637   O673    1.287   .     A
C637   C639    1.394   .     S
C638   O672    1.279   .     A
C638   C640    1.398   .     S
C638   O674    1.287   .     A
C640   C483    1.347   1_655 S
C640   S526    1.789   1_655 S
C641   H653    1.084   .     S
C641   C651    1.394   .     A
C641   C643    1.381   .     A
C642   H654    1.084   .     S
C642   C644    1.383   .     A
C642   C652    1.396   .     A
C643   H655    1.076   .     S
C643   C645    1.396   .     A
C644   C646    1.398   .     A
C644   H656    1.083   .     S
C645   C647    1.400   .     A
C646   C648    1.399   .     A
C647   H657    1.082   .     S
C647   C649    1.387   .     A
C648   H658    1.083   .     S
C648   C650    1.385   .     A
C649   N687    1.433   .     S
C649   C651    1.400   .     A
C650   N690    1.433   .     S
C650   C652    1.401   .     A
C651   C886    1.435   1_545 S
C652   C885    1.435   .     S
N665   Zn676   2.026   .     S
N666   Zn675   2.026   .     S
O667   Zn675   2.010   .     S
O668   Zn676   2.010   .     S
O669   Zn676   1.976   .     S
O670   Zn675   1.976   .     S
O671   Zn675   1.986   .     S
O672   Zn676   1.986   .     S
O673   Zn676   1.973   .     S
O674   Zn675   1.973   .     S
S677   O679    1.503   .     D
S677   O678    1.502   .     D
S677   C483    1.785   1_655 S
S677   O524    1.682   1_655 S
O680   H681    0.990   .     S
S682   O684    1.503   .     D
S682   O683    1.503   .     D
O685   H686    0.990   .     S
O685   S526    1.681   1_655 S
N687   H689    1.046   .     S
N687   H688    1.046   .     S
N690   H692    1.046   .     S
N690   H691    1.046   .     S
S693   O695    1.504   .     D
S693   O694    1.494   .     D
S693   O696    1.678   .     S
O696   H697    0.991   .     S
S698   O700    1.505   .     D
S698   O701    1.676   .     S
S698   O699    1.502   .     D
O701   H702    0.991   .     S
C703   C723    1.439   .     S
C703   O745    1.303   .     A
C703   O747    1.286   .     A
C704   O748    1.290   .     A
C704   O746    1.298   .     A
C704   C724    1.436   .     S
C705   H737    1.080   .     S
C705   C707    1.414   .     A
C705   C713    1.419   .     A
C706   H738    1.080   .     S
C706   C714    1.418   .     A
C706   C708    1.418   .     A
C707   H739    1.082   .     S
C707   N743    1.364   .     A
C708   H740    1.081   .     S
C708   N744    1.368   .     A
C709   C711    1.405   .     A
C709   S771    1.787   .     S
C709   N743    1.394   .     A
C710   N744    1.392   .     A
C710   S776    1.769   .     S
C710   C712    1.402   .     A
C711   H741    1.078   .     S
C711   C713    1.389   .     A
C712   H742    1.079   .     S
C712   C714    1.386   .     A
C714   C245    1.523   1_556 S
C715   O749    1.278   .     A
C715   O751    1.287   .     A
C715   C717    1.394   .     S
C716   O750    1.279   .     A
C716   C718    1.398   .     S
C716   O752    1.287   .     A
C717   C874    1.347   1_455 S
C717   S911    1.785   1_455 S
C718   C795    1.347   .     S
C718   S838    1.789   .     S
C719   H731    1.084   .     S
C719   C729    1.394   .     A
C719   C721    1.381   .     A
C720   H732    1.084   .     S
C720   C722    1.383   .     A
C720   C730    1.396   .     A
C721   H733    1.076   .     S
C721   C723    1.396   .     A
C722   C724    1.398   .     A
C722   H734    1.083   .     S
C723   C725    1.400   .     A
C724   C726    1.399   .     A
C725   H735    1.082   .     S
C725   C727    1.387   .     A
C726   H736    1.083   .     S
C726   C728    1.385   .     A
C727   N765    1.433   .     S
C727   C729    1.400   .     A
C728   N768    1.433   .     S
C728   C730    1.401   .     A
C730   C495    1.435   1_565 S
N743   Zn754   2.026   .     S
N744   Zn753   2.026   .     S
O745   Zn753   2.010   .     S
O746   Zn754   2.010   .     S
O747   Zn754   1.976   .     S
O748   Zn753   1.976   .     S
O749   Zn753   1.986   .     S
O750   Zn754   1.986   .     S
O751   Zn754   1.973   .     S
O752   Zn753   1.973   .     S
S755   O757    1.503   .     D
S755   O756    1.502   .     D
S755   C795    1.785   .     S
S755   O836    1.682   .     S
O758   H759    0.990   .     S
O758   S911    1.682   1_455 S
S760   O762    1.503   .     D
S760   O761    1.503   .     D
S760   C874    1.789   1_455 S
S760   O919    1.681   1_455 S
O763   H764    0.990   .     S
O763   S838    1.681   .     S
N765   H767    1.046   .     S
N765   H766    1.046   .     S
N768   H770    1.046   .     S
N768   H769    1.046   .     S
S771   O773    1.504   .     D
S771   O772    1.494   .     D
S771   O774    1.678   .     S
O774   H775    0.991   .     S
S776   O778    1.505   .     D
S776   O779    1.676   .     S
S776   O777    1.502   .     D
O779   H780    0.991   .     S
C781   C801    1.439   .     S
C781   O823    1.303   .     A
C781   O825    1.286   .     A
C782   O826    1.290   .     A
C782   O824    1.298   .     A
C782   C802    1.436   .     S
C783   H815    1.080   .     S
C783   C785    1.414   .     A
C783   C791    1.419   .     A
C784   H816    1.080   .     S
C784   C792    1.418   .     A
C784   C786    1.418   .     A
C785   H817    1.082   .     S
C785   N821    1.364   .     A
C786   H818    1.081   .     S
C786   N822    1.368   .     A
C787   C789    1.405   .     A
C787   S849    1.787   .     S
C787   N821    1.394   .     A
C788   N822    1.392   .     A
C788   S854    1.769   .     S
C788   C790    1.402   .     A
C789   H819    1.078   .     S
C789   C791    1.389   .     A
C790   H820    1.079   .     S
C790   C792    1.386   .     A
C792   C323    1.523   1_556 S
C793   O827    1.278   .     A
C793   O829    1.287   .     A
C793   C795    1.394   .     S
C794   O828    1.279   .     A
C794   C796    1.398   .     S
C794   O830    1.287   .     A
C796   C873    1.347   .     S
C796   S916    1.789   .     S
C797   H809    1.084   .     S
C797   C807    1.394   .     A
C797   C799    1.381   .     A
C798   H810    1.084   .     S
C798   C800    1.383   .     A
C798   C808    1.396   .     A
C799   H811    1.076   .     S
C799   C801    1.396   .     A
C800   C802    1.398   .     A
C800   H812    1.083   .     S
C801   C803    1.400   .     A
C802   C804    1.399   .     A
C803   H813    1.082   .     S
C803   C805    1.387   .     A
C804   H814    1.083   .     S
C804   C806    1.385   .     A
C805   N843    1.433   .     S
C805   C807    1.400   .     A
C806   N846    1.433   .     S
C806   C808    1.401   .     A
C808   C573    1.435   1_565 S
N821   Zn832   2.026   .     S
N822   Zn831   2.026   .     S
O823   Zn831   2.010   .     S
O824   Zn832   2.010   .     S
O825   Zn832   1.976   .     S
O826   Zn831   1.976   .     S
O827   Zn831   1.986   .     S
O828   Zn832   1.986   .     S
O829   Zn832   1.973   .     S
O830   Zn831   1.973   .     S
S833   O835    1.503   .     D
S833   O834    1.502   .     D
S833   C873    1.785   .     S
S833   O914    1.682   .     S
O836   H837    0.990   .     S
S838   O840    1.503   .     D
S838   O839    1.503   .     D
O841   H842    0.990   .     S
O841   S916    1.681   .     S
N843   H845    1.046   .     S
N843   H844    1.046   .     S
N846   H848    1.046   .     S
N846   H847    1.046   .     S
S849   O851    1.504   .     D
S849   O850    1.494   .     D
S849   O852    1.678   .     S
O852   H853    0.991   .     S
S854   O856    1.505   .     D
S854   O857    1.676   .     S
S854   O855    1.502   .     D
O857   H858    0.991   .     S
C859   C879    1.439   .     S
C859   O901    1.303   .     A
C859   O903    1.286   .     A
C860   O904    1.290   .     A
C860   O902    1.298   .     A
C860   C880    1.436   .     S
C861   H893    1.080   .     S
C861   C863    1.414   .     A
C861   C869    1.419   .     A
C862   H894    1.080   .     S
C862   C870    1.418   .     A
C862   C864    1.418   .     A
C863   H895    1.082   .     S
C863   N899    1.364   .     A
C864   H896    1.081   .     S
C864   N900    1.368   .     A
C865   C867    1.405   .     A
C865   S927    1.787   .     S
C865   N899    1.394   .     A
C866   N900    1.392   .     A
C866   S932    1.769   .     S
C866   C868    1.402   .     A
C867   H897    1.078   .     S
C867   C869    1.389   .     A
C868   H898    1.079   .     S
C868   C870    1.386   .     A
C870   C401    1.523   1_556 S
C871   O905    1.278   .     A
C871   O907    1.287   .     A
C871   C873    1.394   .     S
C872   O906    1.279   .     A
C872   C874    1.398   .     S
C872   O908    1.287   .     A
C874   C717    1.347   1_655 S
C874   S760    1.789   1_655 S
C875   H887    1.084   .     S
C875   C885    1.394   .     A
C875   C877    1.381   .     A
C876   H888    1.084   .     S
C876   C878    1.383   .     A
C876   C886    1.396   .     A
C877   H889    1.076   .     S
C877   C879    1.396   .     A
C878   C880    1.398   .     A
C878   H890    1.083   .     S
C879   C881    1.400   .     A
C880   C882    1.399   .     A
C881   H891    1.082   .     S
C881   C883    1.387   .     A
C882   H892    1.083   .     S
C882   C884    1.385   .     A
C883   N921    1.433   .     S
C883   C885    1.400   .     A
C884   N924    1.433   .     S
C884   C886    1.401   .     A
C886   C651    1.435   1_565 S
N899   Zn910   2.026   .     S
N900   Zn909   2.026   .     S
O901   Zn909   2.010   .     S
O902   Zn910   2.010   .     S
O903   Zn910   1.976   .     S
O904   Zn909   1.976   .     S
O905   Zn909   1.986   .     S
O906   Zn910   1.986   .     S
O907   Zn910   1.973   .     S
O908   Zn909   1.973   .     S
S911   O913    1.503   .     D
S911   O912    1.502   .     D
S911   C717    1.785   1_655 S
S911   O758    1.682   1_655 S
O914   H915    0.990   .     S
S916   O918    1.503   .     D
S916   O917    1.503   .     D
O919   H920    0.990   .     S
O919   S760    1.681   1_655 S
N921   H923    1.046   .     S
N921   H922    1.046   .     S
N924   H926    1.046   .     S
N924   H925    1.046   .     S
S927   O929    1.504   .     D
S927   O928    1.494   .     D
S927   O930    1.678   .     S
O930   H931    0.991   .     S
S932   O934    1.505   .     D
S932   O935    1.676   .     S
S932   O933    1.502   .     D
O935   H936    0.991   .     S
