data_str_m3_o1_o2_pcu_sym.8
_audit_creation_date              2020-01-03
_audit_creation_method            'Materials Studio'
_symmetry_space_group_name_H-M    'P1'
_symmetry_Int_Tables_number       1
_symmetry_cell_setting            triclinic
loop_
_symmetry_equiv_pos_as_xyz
  x,y,z
_cell_length_a                    32.1472
_cell_length_b                    29.5134
_cell_length_c                    29.9353
_cell_angle_alpha                 89.9941
_cell_angle_beta                  90.1090
_cell_angle_gamma                 90.0073
loop_
_atom_site_label
_atom_site_type_symbol
_atom_site_fract_x
_atom_site_fract_y
_atom_site_fract_z
_atom_site_U_iso_or_equiv
_atom_site_adp_type
_atom_site_occupancy
O1     O     0.10559   0.20487   0.25000   0.00000  Uiso   1.00
O2     O     0.22774   0.12846   0.25001   0.00000  Uiso   1.00
O3     O     0.22774   0.20487   0.25001   0.00000  Uiso   1.00
O4     O     0.10559   0.12846   0.25000   0.00000  Uiso   1.00
N5     N     0.16667   0.28573   0.25000   0.00000  Uiso   1.00
N6     N     0.16667   0.04760   0.25000   0.00000  Uiso   1.00
C7     C     0.08662   0.16666   0.24999   0.00000  Uiso   1.00
C8     C     0.24671   0.16667   0.25007   0.00000  Uiso   1.00
O9     O     0.16666   0.20489   0.18453   0.00000  Uiso   1.00
O10    O     0.16667   0.12845   0.31547   0.00000  Uiso   1.00
O11    O     0.16667   0.20489   0.31547   0.00000  Uiso   1.00
O12    O     0.16666   0.12845   0.18453   0.00000  Uiso   1.00
C13    C     0.16662   0.16666   0.16398   0.00000  Uiso   1.00
C14    C     0.16665   0.16666   0.33602   0.00000  Uiso   1.00
Zn15   Zn    0.16667   0.21771   0.25000   0.00000  Uiso   1.00
Zn16   Zn    0.16667   0.11563   0.25000   0.00000  Uiso   1.00
H17    H     0.21435   0.04219   0.29875   0.00000  Uiso   1.00
H18    H     0.11897   0.29116   0.20127   0.00000  Uiso   1.00
H19    H     0.11899   0.04219   0.20125   0.00000  Uiso   1.00
H20    H     0.21436   0.29116   0.29873   0.00000  Uiso   1.00
C21    C     0.19317   0.02399   0.27709   0.00000  Uiso   1.00
C22    C     0.14016   0.30935   0.22292   0.00000  Uiso   1.00
C23    C     0.14016   0.02399   0.22291   0.00000  Uiso   1.00
C24    C     0.19317   0.30935   0.27709   0.00000  Uiso   1.00
C25    C     0.02132   0.12610   0.25787   0.00000  Uiso   1.00
C26    C     0.31203   0.20725   0.24229   0.00000  Uiso   1.00
C27    C     0.31205   0.12610   0.25792   0.00000  Uiso   1.00
C28    C     0.02130   0.20724   0.24221   0.00000  Uiso   1.00
C29    C     0.19712   0.19047   0.04649   0.00000  Uiso   1.00
C30    C     0.19677   0.14190   0.45356   0.00000  Uiso   1.00
C31    C     0.13603   0.19087   0.45341   0.00000  Uiso   1.00
C32    C     0.13572   0.14249   0.04656   0.00000  Uiso   1.00
H33    H     0.22089   0.20842   0.02789   0.00000  Uiso   1.00
H34    H     0.22028   0.12349   0.47220   0.00000  Uiso   1.00
H35    H     0.11247   0.20921   0.47192   0.00000  Uiso   1.00
H36    H     0.11191   0.12445   0.02801   0.00000  Uiso   1.00
C37    C     0.19784   0.19058   0.09281   0.00000  Uiso   1.00
C38    C     0.19752   0.14201   0.40725   0.00000  Uiso   1.00
C39    C     0.13548   0.19100   0.40709   0.00000  Uiso   1.00
C40    C     0.13513   0.14258   0.09288   0.00000  Uiso   1.00
C41    C     0.16652   0.16664   0.11602   0.00000  Uiso   1.00
C42    C     0.16657   0.16660   0.38399   0.00000  Uiso   1.00
H43    H     0.03755   0.09456   0.26420   0.00000  Uiso   1.00
H44    H     0.29580   0.23879   0.23593   0.00000  Uiso   1.00
H45    H     0.29584   0.09457   0.26432   0.00000  Uiso   1.00
H46    H     0.03750   0.23877   0.23582   0.00000  Uiso   1.00
C47    C     0.16640   0.16643   0.02392   0.00000  Uiso   1.00
C48    C     0.16636   0.16634   0.47609   0.00000  Uiso   1.00
C49    C     0.29086   0.16668   0.25011   0.00000  Uiso   1.00
C50    C     0.04248   0.16666   0.25001   0.00000  Uiso   1.00
N51    N     0.23111   0.21370   0.11554   0.00000  Uiso   1.00
O52    O     0.25038   0.19430   0.14865   0.00000  Uiso   1.00
O53    O     0.24643   0.25087   0.09893   0.00000  Uiso   1.00
N54    N     0.23042   0.11836   0.38456   0.00000  Uiso   1.00
O55    O     0.25010   0.13758   0.35170   0.00000  Uiso   1.00
O56    O     0.24496   0.08069   0.40094   0.00000  Uiso   1.00
N57    N     0.10261   0.21467   0.38423   0.00000  Uiso   1.00
O58    O     0.08309   0.19553   0.35113   0.00000  Uiso   1.00
O59    O     0.08786   0.25216   0.40071   0.00000  Uiso   1.00
N60    N     0.10201   0.11941   0.11570   0.00000  Uiso   1.00
O61    O     0.08284   0.13880   0.14882   0.00000  Uiso   1.00
O62    O     0.08678   0.08210   0.09926   0.00000  Uiso   1.00
O63    O     0.43892   0.20487   0.25000   0.00000  Uiso   1.00
O64    O     0.56108   0.12846   0.25001   0.00000  Uiso   1.00
O65    O     0.56108   0.20487   0.25001   0.00000  Uiso   1.00
O66    O     0.43892   0.12846   0.25000   0.00000  Uiso   1.00
N67    N     0.50000   0.28573   0.25000   0.00000  Uiso   1.00
N68    N     0.50000   0.04760   0.25000   0.00000  Uiso   1.00
C69    C     0.41996   0.16666   0.24999   0.00000  Uiso   1.00
C70    C     0.58005   0.16667   0.25007   0.00000  Uiso   1.00
O71    O     0.50000   0.20489   0.18453   0.00000  Uiso   1.00
O72    O     0.50000   0.12845   0.31547   0.00000  Uiso   1.00
O73    O     0.50000   0.20489   0.31547   0.00000  Uiso   1.00
O74    O     0.50000   0.12845   0.18453   0.00000  Uiso   1.00
C75    C     0.49996   0.16666   0.16398   0.00000  Uiso   1.00
C76    C     0.49999   0.16666   0.33602   0.00000  Uiso   1.00
Zn77   Zn    0.50000   0.21771   0.25000   0.00000  Uiso   1.00
Zn78   Zn    0.50000   0.11563   0.25000   0.00000  Uiso   1.00
H79    H     0.54768   0.04219   0.29875   0.00000  Uiso   1.00
H80    H     0.45230   0.29116   0.20127   0.00000  Uiso   1.00
H81    H     0.45232   0.04219   0.20125   0.00000  Uiso   1.00
H82    H     0.54769   0.29116   0.29873   0.00000  Uiso   1.00
C83    C     0.52650   0.02399   0.27709   0.00000  Uiso   1.00
C84    C     0.47349   0.30935   0.22292   0.00000  Uiso   1.00
C85    C     0.47350   0.02399   0.22291   0.00000  Uiso   1.00
C86    C     0.52651   0.30935   0.27709   0.00000  Uiso   1.00
C87    C     0.35465   0.12610   0.25787   0.00000  Uiso   1.00
C88    C     0.64536   0.20725   0.24229   0.00000  Uiso   1.00
C89    C     0.64538   0.12610   0.25792   0.00000  Uiso   1.00
C90    C     0.35463   0.20724   0.24221   0.00000  Uiso   1.00
C91    C     0.53045   0.19047   0.04649   0.00000  Uiso   1.00
C92    C     0.53010   0.14190   0.45356   0.00000  Uiso   1.00
C93    C     0.46937   0.19087   0.45341   0.00000  Uiso   1.00
C94    C     0.46905   0.14249   0.04656   0.00000  Uiso   1.00
H95    H     0.55422   0.20842   0.02789   0.00000  Uiso   1.00
H96    H     0.55361   0.12349   0.47220   0.00000  Uiso   1.00
H97    H     0.44580   0.20921   0.47192   0.00000  Uiso   1.00
H98    H     0.44525   0.12445   0.02801   0.00000  Uiso   1.00
C99    C     0.53118   0.19058   0.09281   0.00000  Uiso   1.00
C100   C     0.53086   0.14201   0.40725   0.00000  Uiso   1.00
C101   C     0.46881   0.19100   0.40709   0.00000  Uiso   1.00
C102   C     0.46846   0.14258   0.09288   0.00000  Uiso   1.00
C103   C     0.49985   0.16664   0.11602   0.00000  Uiso   1.00
C104   C     0.49991   0.16660   0.38399   0.00000  Uiso   1.00
H105   H     0.37088   0.09456   0.26420   0.00000  Uiso   1.00
H106   H     0.62913   0.23879   0.23593   0.00000  Uiso   1.00
H107   H     0.62917   0.09457   0.26432   0.00000  Uiso   1.00
H108   H     0.37084   0.23877   0.23582   0.00000  Uiso   1.00
C109   C     0.49973   0.16643   0.02392   0.00000  Uiso   1.00
C110   C     0.49970   0.16634   0.47609   0.00000  Uiso   1.00
C111   C     0.62420   0.16668   0.25011   0.00000  Uiso   1.00
C112   C     0.37581   0.16666   0.25001   0.00000  Uiso   1.00
N113   N     0.56444   0.21370   0.11554   0.00000  Uiso   1.00
O114   O     0.58371   0.19430   0.14865   0.00000  Uiso   1.00
O115   O     0.57976   0.25087   0.09893   0.00000  Uiso   1.00
N116   N     0.56375   0.11836   0.38456   0.00000  Uiso   1.00
O117   O     0.58343   0.13758   0.35170   0.00000  Uiso   1.00
O118   O     0.57829   0.08069   0.40094   0.00000  Uiso   1.00
N119   N     0.43595   0.21467   0.38423   0.00000  Uiso   1.00
O120   O     0.41642   0.19553   0.35113   0.00000  Uiso   1.00
O121   O     0.42120   0.25216   0.40071   0.00000  Uiso   1.00
N122   N     0.43534   0.11941   0.11570   0.00000  Uiso   1.00
O123   O     0.41618   0.13880   0.14882   0.00000  Uiso   1.00
O124   O     0.42011   0.08210   0.09926   0.00000  Uiso   1.00
O125   O     0.77226   0.20487   0.25000   0.00000  Uiso   1.00
O126   O     0.89441   0.12846   0.25001   0.00000  Uiso   1.00
O127   O     0.89441   0.20487   0.25001   0.00000  Uiso   1.00
O128   O     0.77226   0.12846   0.25000   0.00000  Uiso   1.00
N129   N     0.83333   0.28573   0.25000   0.00000  Uiso   1.00
N130   N     0.83333   0.04760   0.25000   0.00000  Uiso   1.00
C131   C     0.75329   0.16666   0.24999   0.00000  Uiso   1.00
C132   C     0.91338   0.16667   0.25007   0.00000  Uiso   1.00
O133   O     0.83333   0.20489   0.18453   0.00000  Uiso   1.00
O134   O     0.83334   0.12845   0.31547   0.00000  Uiso   1.00
O135   O     0.83334   0.20489   0.31547   0.00000  Uiso   1.00
O136   O     0.83333   0.12845   0.18453   0.00000  Uiso   1.00
C137   C     0.83329   0.16666   0.16398   0.00000  Uiso   1.00
C138   C     0.83332   0.16666   0.33602   0.00000  Uiso   1.00
Zn139  Zn    0.83333   0.21771   0.25000   0.00000  Uiso   1.00
Zn140  Zn    0.83333   0.11563   0.25000   0.00000  Uiso   1.00
H141   H     0.88102   0.04219   0.29875   0.00000  Uiso   1.00
H142   H     0.78563   0.29116   0.20127   0.00000  Uiso   1.00
H143   H     0.78565   0.04219   0.20125   0.00000  Uiso   1.00
H144   H     0.88103   0.29116   0.29873   0.00000  Uiso   1.00
C145   C     0.85984   0.02399   0.27709   0.00000  Uiso   1.00
C146   C     0.80682   0.30935   0.22292   0.00000  Uiso   1.00
C147   C     0.80683   0.02399   0.22291   0.00000  Uiso   1.00
C148   C     0.85984   0.30935   0.27709   0.00000  Uiso   1.00
C149   C     0.68798   0.12610   0.25787   0.00000  Uiso   1.00
C150   C     0.97869   0.20725   0.24229   0.00000  Uiso   1.00
C151   C     0.97871   0.12610   0.25792   0.00000  Uiso   1.00
C152   C     0.68796   0.20724   0.24221   0.00000  Uiso   1.00
C153   C     0.86379   0.19047   0.04649   0.00000  Uiso   1.00
C154   C     0.86344   0.14190   0.45356   0.00000  Uiso   1.00
C155   C     0.80270   0.19087   0.45341   0.00000  Uiso   1.00
C156   C     0.80238   0.14249   0.04656   0.00000  Uiso   1.00
H157   H     0.88756   0.20842   0.02789   0.00000  Uiso   1.00
H158   H     0.88694   0.12349   0.47220   0.00000  Uiso   1.00
H159   H     0.77914   0.20921   0.47192   0.00000  Uiso   1.00
H160   H     0.77858   0.12445   0.02801   0.00000  Uiso   1.00
C161   C     0.86451   0.19058   0.09281   0.00000  Uiso   1.00
C162   C     0.86419   0.14201   0.40725   0.00000  Uiso   1.00
C163   C     0.80214   0.19100   0.40709   0.00000  Uiso   1.00
C164   C     0.80179   0.14258   0.09288   0.00000  Uiso   1.00
C165   C     0.83318   0.16664   0.11602   0.00000  Uiso   1.00
C166   C     0.83324   0.16660   0.38399   0.00000  Uiso   1.00
H167   H     0.70421   0.09456   0.26420   0.00000  Uiso   1.00
H168   H     0.96247   0.23879   0.23593   0.00000  Uiso   1.00
H169   H     0.96250   0.09457   0.26432   0.00000  Uiso   1.00
H170   H     0.70417   0.23877   0.23582   0.00000  Uiso   1.00
C171   C     0.83306   0.16643   0.02392   0.00000  Uiso   1.00
C172   C     0.83303   0.16634   0.47609   0.00000  Uiso   1.00
C173   C     0.95753   0.16668   0.25011   0.00000  Uiso   1.00
C174   C     0.70914   0.16666   0.25001   0.00000  Uiso   1.00
N175   N     0.89777   0.21370   0.11554   0.00000  Uiso   1.00
O176   O     0.91705   0.19430   0.14865   0.00000  Uiso   1.00
O177   O     0.91309   0.25087   0.09893   0.00000  Uiso   1.00
N178   N     0.89709   0.11836   0.38456   0.00000  Uiso   1.00
O179   O     0.91676   0.13758   0.35170   0.00000  Uiso   1.00
O180   O     0.91162   0.08069   0.40094   0.00000  Uiso   1.00
N181   N     0.76928   0.21467   0.38423   0.00000  Uiso   1.00
O182   O     0.74976   0.19553   0.35113   0.00000  Uiso   1.00
O183   O     0.75453   0.25216   0.40071   0.00000  Uiso   1.00
N184   N     0.76867   0.11941   0.11570   0.00000  Uiso   1.00
O185   O     0.74951   0.13880   0.14882   0.00000  Uiso   1.00
O186   O     0.75344   0.08210   0.09926   0.00000  Uiso   1.00
O187   O     0.10559   0.53821   0.25000   0.00000  Uiso   1.00
O188   O     0.22774   0.46179   0.25001   0.00000  Uiso   1.00
O189   O     0.22774   0.53821   0.25001   0.00000  Uiso   1.00
O190   O     0.10559   0.46179   0.25000   0.00000  Uiso   1.00
N191   N     0.16667   0.61907   0.25000   0.00000  Uiso   1.00
N192   N     0.16667   0.38093   0.25000   0.00000  Uiso   1.00
C193   C     0.08662   0.50000   0.24999   0.00000  Uiso   1.00
C194   C     0.24671   0.50000   0.25007   0.00000  Uiso   1.00
O195   O     0.16666   0.53822   0.18453   0.00000  Uiso   1.00
O196   O     0.16667   0.46178   0.31547   0.00000  Uiso   1.00
O197   O     0.16667   0.53822   0.31547   0.00000  Uiso   1.00
O198   O     0.16666   0.46178   0.18453   0.00000  Uiso   1.00
C199   C     0.16662   0.50000   0.16398   0.00000  Uiso   1.00
C200   C     0.16665   0.49999   0.33602   0.00000  Uiso   1.00
Zn201  Zn    0.16667   0.55104   0.25000   0.00000  Uiso   1.00
Zn202  Zn    0.16667   0.44896   0.25000   0.00000  Uiso   1.00
H203   H     0.21435   0.37552   0.29875   0.00000  Uiso   1.00
H204   H     0.11897   0.62449   0.20127   0.00000  Uiso   1.00
H205   H     0.11899   0.37552   0.20125   0.00000  Uiso   1.00
H206   H     0.21436   0.62449   0.29873   0.00000  Uiso   1.00
C207   C     0.19317   0.35733   0.27709   0.00000  Uiso   1.00
C208   C     0.14016   0.64268   0.22292   0.00000  Uiso   1.00
C209   C     0.14016   0.35732   0.22291   0.00000  Uiso   1.00
C210   C     0.19317   0.64268   0.27709   0.00000  Uiso   1.00
C211   C     0.02132   0.45943   0.25787   0.00000  Uiso   1.00
C212   C     0.31203   0.54058   0.24229   0.00000  Uiso   1.00
C213   C     0.31205   0.45944   0.25792   0.00000  Uiso   1.00
C214   C     0.02130   0.54057   0.24221   0.00000  Uiso   1.00
C215   C     0.19712   0.52381   0.04649   0.00000  Uiso   1.00
C216   C     0.19677   0.47523   0.45356   0.00000  Uiso   1.00
C217   C     0.13603   0.52420   0.45341   0.00000  Uiso   1.00
C218   C     0.13572   0.47582   0.04656   0.00000  Uiso   1.00
H219   H     0.22089   0.54175   0.02789   0.00000  Uiso   1.00
H220   H     0.22028   0.45682   0.47220   0.00000  Uiso   1.00
H221   H     0.11247   0.54255   0.47192   0.00000  Uiso   1.00
H222   H     0.11191   0.45778   0.02801   0.00000  Uiso   1.00
C223   C     0.19784   0.52391   0.09281   0.00000  Uiso   1.00
C224   C     0.19752   0.47534   0.40725   0.00000  Uiso   1.00
C225   C     0.13548   0.52433   0.40709   0.00000  Uiso   1.00
C226   C     0.13513   0.47591   0.09288   0.00000  Uiso   1.00
C227   C     0.16652   0.49997   0.11602   0.00000  Uiso   1.00
C228   C     0.16657   0.49993   0.38399   0.00000  Uiso   1.00
H229   H     0.03755   0.42789   0.26420   0.00000  Uiso   1.00
H230   H     0.29580   0.57212   0.23593   0.00000  Uiso   1.00
H231   H     0.29584   0.42791   0.26432   0.00000  Uiso   1.00
H232   H     0.03750   0.57210   0.23582   0.00000  Uiso   1.00
C233   C     0.16640   0.49976   0.02392   0.00000  Uiso   1.00
C234   C     0.16636   0.49968   0.47609   0.00000  Uiso   1.00
C235   C     0.29086   0.50001   0.25011   0.00000  Uiso   1.00
C236   C     0.04248   0.50000   0.25001   0.00000  Uiso   1.00
N237   N     0.23111   0.54704   0.11554   0.00000  Uiso   1.00
O238   O     0.25038   0.52763   0.14865   0.00000  Uiso   1.00
O239   O     0.24643   0.58420   0.09893   0.00000  Uiso   1.00
N240   N     0.23042   0.45170   0.38456   0.00000  Uiso   1.00
O241   O     0.25010   0.47092   0.35170   0.00000  Uiso   1.00
O242   O     0.24496   0.41402   0.40094   0.00000  Uiso   1.00
N243   N     0.10261   0.54800   0.38423   0.00000  Uiso   1.00
O244   O     0.08309   0.52887   0.35113   0.00000  Uiso   1.00
O245   O     0.08786   0.58549   0.40071   0.00000  Uiso   1.00
N246   N     0.10201   0.45275   0.11570   0.00000  Uiso   1.00
O247   O     0.08284   0.47213   0.14882   0.00000  Uiso   1.00
O248   O     0.08678   0.41544   0.09926   0.00000  Uiso   1.00
O249   O     0.43892   0.53821   0.25000   0.00000  Uiso   1.00
O250   O     0.56108   0.46179   0.25001   0.00000  Uiso   1.00
O251   O     0.56108   0.53821   0.25001   0.00000  Uiso   1.00
O252   O     0.43892   0.46179   0.25000   0.00000  Uiso   1.00
N253   N     0.50000   0.61907   0.25000   0.00000  Uiso   1.00
N254   N     0.50000   0.38093   0.25000   0.00000  Uiso   1.00
C255   C     0.41996   0.50000   0.24999   0.00000  Uiso   1.00
C256   C     0.58005   0.50000   0.25007   0.00000  Uiso   1.00
O257   O     0.50000   0.53822   0.18453   0.00000  Uiso   1.00
O258   O     0.50000   0.46178   0.31547   0.00000  Uiso   1.00
O259   O     0.50000   0.53822   0.31547   0.00000  Uiso   1.00
O260   O     0.50000   0.46178   0.18453   0.00000  Uiso   1.00
C261   C     0.49996   0.50000   0.16398   0.00000  Uiso   1.00
C262   C     0.49999   0.49999   0.33602   0.00000  Uiso   1.00
Zn263  Zn    0.50000   0.55104   0.25000   0.00000  Uiso   1.00
Zn264  Zn    0.50000   0.44896   0.25000   0.00000  Uiso   1.00
H265   H     0.54768   0.37552   0.29875   0.00000  Uiso   1.00
H266   H     0.45230   0.62449   0.20127   0.00000  Uiso   1.00
H267   H     0.45232   0.37552   0.20125   0.00000  Uiso   1.00
H268   H     0.54769   0.62449   0.29873   0.00000  Uiso   1.00
C269   C     0.52650   0.35733   0.27709   0.00000  Uiso   1.00
C270   C     0.47349   0.64268   0.22292   0.00000  Uiso   1.00
C271   C     0.47350   0.35732   0.22291   0.00000  Uiso   1.00
C272   C     0.52651   0.64268   0.27709   0.00000  Uiso   1.00
C273   C     0.35465   0.45943   0.25787   0.00000  Uiso   1.00
C274   C     0.64536   0.54058   0.24229   0.00000  Uiso   1.00
C275   C     0.64538   0.45944   0.25792   0.00000  Uiso   1.00
C276   C     0.35463   0.54057   0.24221   0.00000  Uiso   1.00
C277   C     0.53045   0.52381   0.04649   0.00000  Uiso   1.00
C278   C     0.53010   0.47523   0.45356   0.00000  Uiso   1.00
C279   C     0.46937   0.52420   0.45341   0.00000  Uiso   1.00
C280   C     0.46905   0.47582   0.04656   0.00000  Uiso   1.00
H281   H     0.55422   0.54175   0.02789   0.00000  Uiso   1.00
H282   H     0.55361   0.45682   0.47220   0.00000  Uiso   1.00
H283   H     0.44580   0.54255   0.47192   0.00000  Uiso   1.00
H284   H     0.44525   0.45778   0.02801   0.00000  Uiso   1.00
C285   C     0.53118   0.52391   0.09281   0.00000  Uiso   1.00
C286   C     0.53086   0.47534   0.40725   0.00000  Uiso   1.00
C287   C     0.46881   0.52433   0.40709   0.00000  Uiso   1.00
C288   C     0.46846   0.47591   0.09288   0.00000  Uiso   1.00
C289   C     0.49985   0.49997   0.11602   0.00000  Uiso   1.00
C290   C     0.49991   0.49993   0.38399   0.00000  Uiso   1.00
H291   H     0.37088   0.42789   0.26420   0.00000  Uiso   1.00
H292   H     0.62913   0.57212   0.23593   0.00000  Uiso   1.00
H293   H     0.62917   0.42791   0.26432   0.00000  Uiso   1.00
H294   H     0.37084   0.57210   0.23582   0.00000  Uiso   1.00
C295   C     0.49973   0.49976   0.02392   0.00000  Uiso   1.00
C296   C     0.49970   0.49968   0.47609   0.00000  Uiso   1.00
C297   C     0.62420   0.50001   0.25011   0.00000  Uiso   1.00
C298   C     0.37581   0.50000   0.25001   0.00000  Uiso   1.00
N299   N     0.56444   0.54704   0.11554   0.00000  Uiso   1.00
O300   O     0.58371   0.52763   0.14865   0.00000  Uiso   1.00
O301   O     0.57976   0.58420   0.09893   0.00000  Uiso   1.00
N302   N     0.56375   0.45170   0.38456   0.00000  Uiso   1.00
O303   O     0.58343   0.47092   0.35170   0.00000  Uiso   1.00
O304   O     0.57829   0.41402   0.40094   0.00000  Uiso   1.00
N305   N     0.43595   0.54800   0.38423   0.00000  Uiso   1.00
O306   O     0.41642   0.52887   0.35113   0.00000  Uiso   1.00
O307   O     0.42120   0.58549   0.40071   0.00000  Uiso   1.00
N308   N     0.43534   0.45275   0.11570   0.00000  Uiso   1.00
O309   O     0.41618   0.47213   0.14882   0.00000  Uiso   1.00
O310   O     0.42011   0.41544   0.09926   0.00000  Uiso   1.00
O311   O     0.77226   0.53821   0.25000   0.00000  Uiso   1.00
O312   O     0.89441   0.46179   0.25001   0.00000  Uiso   1.00
O313   O     0.89441   0.53821   0.25001   0.00000  Uiso   1.00
O314   O     0.77226   0.46179   0.25000   0.00000  Uiso   1.00
N315   N     0.83333   0.61907   0.25000   0.00000  Uiso   1.00
N316   N     0.83333   0.38093   0.25000   0.00000  Uiso   1.00
C317   C     0.75329   0.50000   0.24999   0.00000  Uiso   1.00
C318   C     0.91338   0.50000   0.25007   0.00000  Uiso   1.00
O319   O     0.83333   0.53822   0.18453   0.00000  Uiso   1.00
O320   O     0.83334   0.46178   0.31547   0.00000  Uiso   1.00
O321   O     0.83334   0.53822   0.31547   0.00000  Uiso   1.00
O322   O     0.83333   0.46178   0.18453   0.00000  Uiso   1.00
C323   C     0.83329   0.50000   0.16398   0.00000  Uiso   1.00
C324   C     0.83332   0.49999   0.33602   0.00000  Uiso   1.00
Zn325  Zn    0.83333   0.55104   0.25000   0.00000  Uiso   1.00
Zn326  Zn    0.83333   0.44896   0.25000   0.00000  Uiso   1.00
H327   H     0.88102   0.37552   0.29875   0.00000  Uiso   1.00
H328   H     0.78563   0.62449   0.20127   0.00000  Uiso   1.00
H329   H     0.78565   0.37552   0.20125   0.00000  Uiso   1.00
H330   H     0.88103   0.62449   0.29873   0.00000  Uiso   1.00
C331   C     0.85984   0.35733   0.27709   0.00000  Uiso   1.00
C332   C     0.80682   0.64268   0.22292   0.00000  Uiso   1.00
C333   C     0.80683   0.35732   0.22291   0.00000  Uiso   1.00
C334   C     0.85984   0.64268   0.27709   0.00000  Uiso   1.00
C335   C     0.68798   0.45943   0.25787   0.00000  Uiso   1.00
C336   C     0.97869   0.54058   0.24229   0.00000  Uiso   1.00
C337   C     0.97871   0.45944   0.25792   0.00000  Uiso   1.00
C338   C     0.68796   0.54057   0.24221   0.00000  Uiso   1.00
C339   C     0.86379   0.52381   0.04649   0.00000  Uiso   1.00
C340   C     0.86344   0.47523   0.45356   0.00000  Uiso   1.00
C341   C     0.80270   0.52420   0.45341   0.00000  Uiso   1.00
C342   C     0.80238   0.47582   0.04656   0.00000  Uiso   1.00
H343   H     0.88756   0.54175   0.02789   0.00000  Uiso   1.00
H344   H     0.88694   0.45682   0.47220   0.00000  Uiso   1.00
H345   H     0.77914   0.54255   0.47192   0.00000  Uiso   1.00
H346   H     0.77858   0.45778   0.02801   0.00000  Uiso   1.00
C347   C     0.86451   0.52391   0.09281   0.00000  Uiso   1.00
C348   C     0.86419   0.47534   0.40725   0.00000  Uiso   1.00
C349   C     0.80214   0.52433   0.40709   0.00000  Uiso   1.00
C350   C     0.80179   0.47591   0.09288   0.00000  Uiso   1.00
C351   C     0.83318   0.49997   0.11602   0.00000  Uiso   1.00
C352   C     0.83324   0.49993   0.38399   0.00000  Uiso   1.00
H353   H     0.70421   0.42789   0.26420   0.00000  Uiso   1.00
H354   H     0.96247   0.57212   0.23593   0.00000  Uiso   1.00
H355   H     0.96250   0.42791   0.26432   0.00000  Uiso   1.00
H356   H     0.70417   0.57210   0.23582   0.00000  Uiso   1.00
C357   C     0.83306   0.49976   0.02392   0.00000  Uiso   1.00
C358   C     0.83303   0.49968   0.47609   0.00000  Uiso   1.00
C359   C     0.95753   0.50001   0.25011   0.00000  Uiso   1.00
C360   C     0.70914   0.50000   0.25001   0.00000  Uiso   1.00
N361   N     0.89777   0.54704   0.11554   0.00000  Uiso   1.00
O362   O     0.91705   0.52763   0.14865   0.00000  Uiso   1.00
O363   O     0.91309   0.58420   0.09893   0.00000  Uiso   1.00
N364   N     0.89709   0.45170   0.38456   0.00000  Uiso   1.00
O365   O     0.91676   0.47092   0.35170   0.00000  Uiso   1.00
O366   O     0.91162   0.41402   0.40094   0.00000  Uiso   1.00
N367   N     0.76928   0.54800   0.38423   0.00000  Uiso   1.00
O368   O     0.74976   0.52887   0.35113   0.00000  Uiso   1.00
O369   O     0.75453   0.58549   0.40071   0.00000  Uiso   1.00
N370   N     0.76867   0.45275   0.11570   0.00000  Uiso   1.00
O371   O     0.74951   0.47213   0.14882   0.00000  Uiso   1.00
O372   O     0.75344   0.41544   0.09926   0.00000  Uiso   1.00
O373   O     0.10559   0.87154   0.25000   0.00000  Uiso   1.00
O374   O     0.22774   0.79513   0.25001   0.00000  Uiso   1.00
O375   O     0.22774   0.87154   0.25001   0.00000  Uiso   1.00
O376   O     0.10559   0.79513   0.25000   0.00000  Uiso   1.00
N377   N     0.16667   0.95240   0.25000   0.00000  Uiso   1.00
N378   N     0.16667   0.71427   0.25000   0.00000  Uiso   1.00
C379   C     0.08662   0.83333   0.24999   0.00000  Uiso   1.00
C380   C     0.24671   0.83334   0.25007   0.00000  Uiso   1.00
O381   O     0.16666   0.87155   0.18453   0.00000  Uiso   1.00
O382   O     0.16667   0.79511   0.31547   0.00000  Uiso   1.00
O383   O     0.16667   0.87155   0.31547   0.00000  Uiso   1.00
O384   O     0.16666   0.79511   0.18453   0.00000  Uiso   1.00
C385   C     0.16662   0.83333   0.16398   0.00000  Uiso   1.00
C386   C     0.16665   0.83333   0.33602   0.00000  Uiso   1.00
Zn387  Zn    0.16667   0.88437   0.25000   0.00000  Uiso   1.00
Zn388  Zn    0.16667   0.78229   0.25000   0.00000  Uiso   1.00
H389   H     0.21435   0.70886   0.29875   0.00000  Uiso   1.00
H390   H     0.11897   0.95782   0.20127   0.00000  Uiso   1.00
H391   H     0.11899   0.70886   0.20125   0.00000  Uiso   1.00
H392   H     0.21436   0.95783   0.29873   0.00000  Uiso   1.00
C393   C     0.19317   0.69066   0.27709   0.00000  Uiso   1.00
C394   C     0.14016   0.97601   0.22292   0.00000  Uiso   1.00
C395   C     0.14016   0.69066   0.22291   0.00000  Uiso   1.00
C396   C     0.19317   0.97602   0.27709   0.00000  Uiso   1.00
C397   C     0.02132   0.79276   0.25787   0.00000  Uiso   1.00
C398   C     0.31203   0.87391   0.24229   0.00000  Uiso   1.00
C399   C     0.31205   0.79277   0.25792   0.00000  Uiso   1.00
C400   C     0.02130   0.87390   0.24221   0.00000  Uiso   1.00
C401   C     0.19712   0.85714   0.04649   0.00000  Uiso   1.00
C402   C     0.19677   0.80856   0.45356   0.00000  Uiso   1.00
C403   C     0.13603   0.85754   0.45341   0.00000  Uiso   1.00
C404   C     0.13572   0.80916   0.04656   0.00000  Uiso   1.00
H405   H     0.22089   0.87509   0.02789   0.00000  Uiso   1.00
H406   H     0.22028   0.79015   0.47220   0.00000  Uiso   1.00
H407   H     0.11247   0.87588   0.47192   0.00000  Uiso   1.00
H408   H     0.11191   0.79111   0.02801   0.00000  Uiso   1.00
C409   C     0.19784   0.85725   0.09281   0.00000  Uiso   1.00
C410   C     0.19752   0.80868   0.40725   0.00000  Uiso   1.00
C411   C     0.13548   0.85767   0.40709   0.00000  Uiso   1.00
C412   C     0.13513   0.80924   0.09288   0.00000  Uiso   1.00
C413   C     0.16652   0.83330   0.11602   0.00000  Uiso   1.00
C414   C     0.16657   0.83327   0.38399   0.00000  Uiso   1.00
H415   H     0.03755   0.76122   0.26420   0.00000  Uiso   1.00
H416   H     0.29580   0.90545   0.23593   0.00000  Uiso   1.00
H417   H     0.29584   0.76124   0.26432   0.00000  Uiso   1.00
H418   H     0.03750   0.90544   0.23582   0.00000  Uiso   1.00
C419   C     0.16640   0.83309   0.02392   0.00000  Uiso   1.00
C420   C     0.16636   0.83301   0.47609   0.00000  Uiso   1.00
C421   C     0.29086   0.83334   0.25011   0.00000  Uiso   1.00
C422   C     0.04248   0.83333   0.25001   0.00000  Uiso   1.00
N423   N     0.23111   0.88037   0.11554   0.00000  Uiso   1.00
O424   O     0.25038   0.86096   0.14865   0.00000  Uiso   1.00
O425   O     0.24643   0.91753   0.09893   0.00000  Uiso   1.00
N426   N     0.23042   0.78503   0.38456   0.00000  Uiso   1.00
O427   O     0.25010   0.80425   0.35170   0.00000  Uiso   1.00
O428   O     0.24496   0.74735   0.40094   0.00000  Uiso   1.00
N429   N     0.10261   0.88133   0.38423   0.00000  Uiso   1.00
O430   O     0.08309   0.86220   0.35113   0.00000  Uiso   1.00
O431   O     0.08786   0.91883   0.40071   0.00000  Uiso   1.00
N432   N     0.10201   0.78608   0.11570   0.00000  Uiso   1.00
O433   O     0.08284   0.80547   0.14882   0.00000  Uiso   1.00
O434   O     0.08678   0.74877   0.09926   0.00000  Uiso   1.00
O435   O     0.43892   0.87154   0.25000   0.00000  Uiso   1.00
O436   O     0.56108   0.79513   0.25001   0.00000  Uiso   1.00
O437   O     0.56108   0.87154   0.25001   0.00000  Uiso   1.00
O438   O     0.43892   0.79513   0.25000   0.00000  Uiso   1.00
N439   N     0.50000   0.95240   0.25000   0.00000  Uiso   1.00
N440   N     0.50000   0.71427   0.25000   0.00000  Uiso   1.00
C441   C     0.41996   0.83333   0.24999   0.00000  Uiso   1.00
C442   C     0.58005   0.83334   0.25007   0.00000  Uiso   1.00
O443   O     0.50000   0.87155   0.18453   0.00000  Uiso   1.00
O444   O     0.50000   0.79511   0.31547   0.00000  Uiso   1.00
O445   O     0.50000   0.87155   0.31547   0.00000  Uiso   1.00
O446   O     0.50000   0.79511   0.18453   0.00000  Uiso   1.00
C447   C     0.49996   0.83333   0.16398   0.00000  Uiso   1.00
C448   C     0.49999   0.83333   0.33602   0.00000  Uiso   1.00
Zn449  Zn    0.50000   0.88437   0.25000   0.00000  Uiso   1.00
Zn450  Zn    0.50000   0.78229   0.25000   0.00000  Uiso   1.00
H451   H     0.54768   0.70886   0.29875   0.00000  Uiso   1.00
H452   H     0.45230   0.95782   0.20127   0.00000  Uiso   1.00
H453   H     0.45232   0.70886   0.20125   0.00000  Uiso   1.00
H454   H     0.54769   0.95783   0.29873   0.00000  Uiso   1.00
C455   C     0.52650   0.69066   0.27709   0.00000  Uiso   1.00
C456   C     0.47349   0.97601   0.22292   0.00000  Uiso   1.00
C457   C     0.47350   0.69066   0.22291   0.00000  Uiso   1.00
C458   C     0.52651   0.97602   0.27709   0.00000  Uiso   1.00
C459   C     0.35465   0.79276   0.25787   0.00000  Uiso   1.00
C460   C     0.64536   0.87391   0.24229   0.00000  Uiso   1.00
C461   C     0.64538   0.79277   0.25792   0.00000  Uiso   1.00
C462   C     0.35463   0.87390   0.24221   0.00000  Uiso   1.00
C463   C     0.53045   0.85714   0.04649   0.00000  Uiso   1.00
C464   C     0.53010   0.80856   0.45356   0.00000  Uiso   1.00
C465   C     0.46937   0.85754   0.45341   0.00000  Uiso   1.00
C466   C     0.46905   0.80916   0.04656   0.00000  Uiso   1.00
H467   H     0.55422   0.87509   0.02789   0.00000  Uiso   1.00
H468   H     0.55361   0.79015   0.47220   0.00000  Uiso   1.00
H469   H     0.44580   0.87588   0.47192   0.00000  Uiso   1.00
H470   H     0.44525   0.79111   0.02801   0.00000  Uiso   1.00
C471   C     0.53118   0.85725   0.09281   0.00000  Uiso   1.00
C472   C     0.53086   0.80868   0.40725   0.00000  Uiso   1.00
C473   C     0.46881   0.85767   0.40709   0.00000  Uiso   1.00
C474   C     0.46846   0.80924   0.09288   0.00000  Uiso   1.00
C475   C     0.49985   0.83330   0.11602   0.00000  Uiso   1.00
C476   C     0.49991   0.83327   0.38399   0.00000  Uiso   1.00
H477   H     0.37088   0.76122   0.26420   0.00000  Uiso   1.00
H478   H     0.62913   0.90545   0.23593   0.00000  Uiso   1.00
H479   H     0.62917   0.76124   0.26432   0.00000  Uiso   1.00
H480   H     0.37084   0.90544   0.23582   0.00000  Uiso   1.00
C481   C     0.49973   0.83309   0.02392   0.00000  Uiso   1.00
C482   C     0.49970   0.83301   0.47609   0.00000  Uiso   1.00
C483   C     0.62420   0.83334   0.25011   0.00000  Uiso   1.00
C484   C     0.37581   0.83333   0.25001   0.00000  Uiso   1.00
N485   N     0.56444   0.88037   0.11554   0.00000  Uiso   1.00
O486   O     0.58371   0.86096   0.14865   0.00000  Uiso   1.00
O487   O     0.57976   0.91753   0.09893   0.00000  Uiso   1.00
N488   N     0.56375   0.78503   0.38456   0.00000  Uiso   1.00
O489   O     0.58343   0.80425   0.35170   0.00000  Uiso   1.00
O490   O     0.57829   0.74735   0.40094   0.00000  Uiso   1.00
N491   N     0.43595   0.88133   0.38423   0.00000  Uiso   1.00
O492   O     0.41642   0.86220   0.35113   0.00000  Uiso   1.00
O493   O     0.42120   0.91883   0.40071   0.00000  Uiso   1.00
N494   N     0.43534   0.78608   0.11570   0.00000  Uiso   1.00
O495   O     0.41618   0.80547   0.14882   0.00000  Uiso   1.00
O496   O     0.42011   0.74877   0.09926   0.00000  Uiso   1.00
O497   O     0.77226   0.87154   0.25000   0.00000  Uiso   1.00
O498   O     0.89441   0.79513   0.25001   0.00000  Uiso   1.00
O499   O     0.89441   0.87154   0.25001   0.00000  Uiso   1.00
O500   O     0.77226   0.79513   0.25000   0.00000  Uiso   1.00
N501   N     0.83333   0.95240   0.25000   0.00000  Uiso   1.00
N502   N     0.83333   0.71427   0.25000   0.00000  Uiso   1.00
C503   C     0.75329   0.83333   0.24999   0.00000  Uiso   1.00
C504   C     0.91338   0.83334   0.25007   0.00000  Uiso   1.00
O505   O     0.83333   0.87155   0.18453   0.00000  Uiso   1.00
O506   O     0.83334   0.79511   0.31547   0.00000  Uiso   1.00
O507   O     0.83334   0.87155   0.31547   0.00000  Uiso   1.00
O508   O     0.83333   0.79511   0.18453   0.00000  Uiso   1.00
C509   C     0.83329   0.83333   0.16398   0.00000  Uiso   1.00
C510   C     0.83332   0.83333   0.33602   0.00000  Uiso   1.00
Zn511  Zn    0.83333   0.88437   0.25000   0.00000  Uiso   1.00
Zn512  Zn    0.83333   0.78229   0.25000   0.00000  Uiso   1.00
H513   H     0.88102   0.70886   0.29875   0.00000  Uiso   1.00
H514   H     0.78563   0.95782   0.20127   0.00000  Uiso   1.00
H515   H     0.78565   0.70886   0.20125   0.00000  Uiso   1.00
H516   H     0.88103   0.95783   0.29873   0.00000  Uiso   1.00
C517   C     0.85984   0.69066   0.27709   0.00000  Uiso   1.00
C518   C     0.80682   0.97601   0.22292   0.00000  Uiso   1.00
C519   C     0.80683   0.69066   0.22291   0.00000  Uiso   1.00
C520   C     0.85984   0.97602   0.27709   0.00000  Uiso   1.00
C521   C     0.68798   0.79276   0.25787   0.00000  Uiso   1.00
C522   C     0.97869   0.87391   0.24229   0.00000  Uiso   1.00
C523   C     0.97871   0.79277   0.25792   0.00000  Uiso   1.00
C524   C     0.68796   0.87390   0.24221   0.00000  Uiso   1.00
C525   C     0.86379   0.85714   0.04649   0.00000  Uiso   1.00
C526   C     0.86344   0.80856   0.45356   0.00000  Uiso   1.00
C527   C     0.80270   0.85754   0.45341   0.00000  Uiso   1.00
C528   C     0.80238   0.80916   0.04656   0.00000  Uiso   1.00
H529   H     0.88756   0.87509   0.02789   0.00000  Uiso   1.00
H530   H     0.88694   0.79015   0.47220   0.00000  Uiso   1.00
H531   H     0.77914   0.87588   0.47192   0.00000  Uiso   1.00
H532   H     0.77858   0.79111   0.02801   0.00000  Uiso   1.00
C533   C     0.86451   0.85725   0.09281   0.00000  Uiso   1.00
C534   C     0.86419   0.80868   0.40725   0.00000  Uiso   1.00
C535   C     0.80214   0.85767   0.40709   0.00000  Uiso   1.00
C536   C     0.80179   0.80924   0.09288   0.00000  Uiso   1.00
C537   C     0.83318   0.83330   0.11602   0.00000  Uiso   1.00
C538   C     0.83324   0.83327   0.38399   0.00000  Uiso   1.00
H539   H     0.70421   0.76122   0.26420   0.00000  Uiso   1.00
H540   H     0.96247   0.90545   0.23593   0.00000  Uiso   1.00
H541   H     0.96250   0.76124   0.26432   0.00000  Uiso   1.00
H542   H     0.70417   0.90544   0.23582   0.00000  Uiso   1.00
C543   C     0.83306   0.83309   0.02392   0.00000  Uiso   1.00
C544   C     0.83303   0.83301   0.47609   0.00000  Uiso   1.00
C545   C     0.95753   0.83334   0.25011   0.00000  Uiso   1.00
C546   C     0.70914   0.83333   0.25001   0.00000  Uiso   1.00
N547   N     0.89777   0.88037   0.11554   0.00000  Uiso   1.00
O548   O     0.91705   0.86096   0.14865   0.00000  Uiso   1.00
O549   O     0.91309   0.91753   0.09893   0.00000  Uiso   1.00
N550   N     0.89709   0.78503   0.38456   0.00000  Uiso   1.00
O551   O     0.91676   0.80425   0.35170   0.00000  Uiso   1.00
O552   O     0.91162   0.74735   0.40094   0.00000  Uiso   1.00
N553   N     0.76928   0.88133   0.38423   0.00000  Uiso   1.00
O554   O     0.74976   0.86220   0.35113   0.00000  Uiso   1.00
O555   O     0.75453   0.91883   0.40071   0.00000  Uiso   1.00
N556   N     0.76867   0.78608   0.11570   0.00000  Uiso   1.00
O557   O     0.74951   0.80547   0.14882   0.00000  Uiso   1.00
O558   O     0.75344   0.74877   0.09926   0.00000  Uiso   1.00
O559   O     0.10559   0.20487   0.75000   0.00000  Uiso   1.00
O560   O     0.22774   0.12846   0.75001   0.00000  Uiso   1.00
O561   O     0.22774   0.20487   0.75001   0.00000  Uiso   1.00
O562   O     0.10559   0.12846   0.75000   0.00000  Uiso   1.00
N563   N     0.16667   0.28573   0.75000   0.00000  Uiso   1.00
N564   N     0.16667   0.04760   0.75000   0.00000  Uiso   1.00
C565   C     0.08662   0.16666   0.74999   0.00000  Uiso   1.00
C566   C     0.24671   0.16667   0.75007   0.00000  Uiso   1.00
O567   O     0.16666   0.20489   0.68453   0.00000  Uiso   1.00
O568   O     0.16667   0.12845   0.81547   0.00000  Uiso   1.00
O569   O     0.16667   0.20489   0.81547   0.00000  Uiso   1.00
O570   O     0.16666   0.12845   0.68453   0.00000  Uiso   1.00
C571   C     0.16662   0.16666   0.66398   0.00000  Uiso   1.00
C572   C     0.16665   0.16666   0.83602   0.00000  Uiso   1.00
Zn573  Zn    0.16667   0.21771   0.75000   0.00000  Uiso   1.00
Zn574  Zn    0.16667   0.11563   0.75000   0.00000  Uiso   1.00
H575   H     0.21435   0.04219   0.79875   0.00000  Uiso   1.00
H576   H     0.11897   0.29116   0.70127   0.00000  Uiso   1.00
H577   H     0.11899   0.04219   0.70125   0.00000  Uiso   1.00
H578   H     0.21436   0.29116   0.79873   0.00000  Uiso   1.00
C579   C     0.19317   0.02399   0.77709   0.00000  Uiso   1.00
C580   C     0.14016   0.30935   0.72292   0.00000  Uiso   1.00
C581   C     0.14016   0.02399   0.72291   0.00000  Uiso   1.00
C582   C     0.19317   0.30935   0.77709   0.00000  Uiso   1.00
C583   C     0.02132   0.12610   0.75787   0.00000  Uiso   1.00
C584   C     0.31203   0.20725   0.74229   0.00000  Uiso   1.00
C585   C     0.31205   0.12610   0.75792   0.00000  Uiso   1.00
C586   C     0.02130   0.20724   0.74221   0.00000  Uiso   1.00
C587   C     0.19712   0.19047   0.54649   0.00000  Uiso   1.00
C588   C     0.19677   0.14190   0.95356   0.00000  Uiso   1.00
C589   C     0.13603   0.19087   0.95341   0.00000  Uiso   1.00
C590   C     0.13572   0.14249   0.54656   0.00000  Uiso   1.00
H591   H     0.22089   0.20842   0.52789   0.00000  Uiso   1.00
H592   H     0.22028   0.12349   0.97220   0.00000  Uiso   1.00
H593   H     0.11247   0.20921   0.97192   0.00000  Uiso   1.00
H594   H     0.11191   0.12445   0.52801   0.00000  Uiso   1.00
C595   C     0.19784   0.19058   0.59281   0.00000  Uiso   1.00
C596   C     0.19752   0.14201   0.90725   0.00000  Uiso   1.00
C597   C     0.13548   0.19100   0.90709   0.00000  Uiso   1.00
C598   C     0.13513   0.14258   0.59288   0.00000  Uiso   1.00
C599   C     0.16652   0.16664   0.61602   0.00000  Uiso   1.00
C600   C     0.16657   0.16660   0.88399   0.00000  Uiso   1.00
H601   H     0.03755   0.09456   0.76420   0.00000  Uiso   1.00
H602   H     0.29580   0.23879   0.73593   0.00000  Uiso   1.00
H603   H     0.29584   0.09457   0.76432   0.00000  Uiso   1.00
H604   H     0.03750   0.23877   0.73582   0.00000  Uiso   1.00
C605   C     0.16640   0.16643   0.52392   0.00000  Uiso   1.00
C606   C     0.16636   0.16634   0.97609   0.00000  Uiso   1.00
C607   C     0.29086   0.16668   0.75011   0.00000  Uiso   1.00
C608   C     0.04248   0.16666   0.75001   0.00000  Uiso   1.00
N609   N     0.23111   0.21370   0.61554   0.00000  Uiso   1.00
O610   O     0.25038   0.19430   0.64865   0.00000  Uiso   1.00
O611   O     0.24643   0.25087   0.59893   0.00000  Uiso   1.00
N612   N     0.23042   0.11836   0.88456   0.00000  Uiso   1.00
O613   O     0.25010   0.13758   0.85170   0.00000  Uiso   1.00
O614   O     0.24496   0.08069   0.90094   0.00000  Uiso   1.00
N615   N     0.10261   0.21467   0.88423   0.00000  Uiso   1.00
O616   O     0.08309   0.19553   0.85113   0.00000  Uiso   1.00
O617   O     0.08786   0.25216   0.90071   0.00000  Uiso   1.00
N618   N     0.10201   0.11941   0.61570   0.00000  Uiso   1.00
O619   O     0.08284   0.13880   0.64882   0.00000  Uiso   1.00
O620   O     0.08678   0.08210   0.59926   0.00000  Uiso   1.00
O621   O     0.43892   0.20487   0.75000   0.00000  Uiso   1.00
O622   O     0.56108   0.12846   0.75001   0.00000  Uiso   1.00
O623   O     0.56108   0.20487   0.75001   0.00000  Uiso   1.00
O624   O     0.43892   0.12846   0.75000   0.00000  Uiso   1.00
N625   N     0.50000   0.28573   0.75000   0.00000  Uiso   1.00
N626   N     0.50000   0.04760   0.75000   0.00000  Uiso   1.00
C627   C     0.41996   0.16666   0.74999   0.00000  Uiso   1.00
C628   C     0.58005   0.16667   0.75007   0.00000  Uiso   1.00
O629   O     0.50000   0.20489   0.68453   0.00000  Uiso   1.00
O630   O     0.50000   0.12845   0.81547   0.00000  Uiso   1.00
O631   O     0.50000   0.20489   0.81547   0.00000  Uiso   1.00
O632   O     0.50000   0.12845   0.68453   0.00000  Uiso   1.00
C633   C     0.49996   0.16666   0.66398   0.00000  Uiso   1.00
C634   C     0.49999   0.16666   0.83602   0.00000  Uiso   1.00
Zn635  Zn    0.50000   0.21771   0.75000   0.00000  Uiso   1.00
Zn636  Zn    0.50000   0.11563   0.75000   0.00000  Uiso   1.00
H637   H     0.54768   0.04219   0.79875   0.00000  Uiso   1.00
H638   H     0.45230   0.29116   0.70127   0.00000  Uiso   1.00
H639   H     0.45232   0.04219   0.70125   0.00000  Uiso   1.00
H640   H     0.54769   0.29116   0.79873   0.00000  Uiso   1.00
C641   C     0.52650   0.02399   0.77709   0.00000  Uiso   1.00
C642   C     0.47349   0.30935   0.72292   0.00000  Uiso   1.00
C643   C     0.47350   0.02399   0.72291   0.00000  Uiso   1.00
C644   C     0.52651   0.30935   0.77709   0.00000  Uiso   1.00
C645   C     0.35465   0.12610   0.75787   0.00000  Uiso   1.00
C646   C     0.64536   0.20725   0.74229   0.00000  Uiso   1.00
C647   C     0.64538   0.12610   0.75792   0.00000  Uiso   1.00
C648   C     0.35463   0.20724   0.74221   0.00000  Uiso   1.00
C649   C     0.53045   0.19047   0.54649   0.00000  Uiso   1.00
C650   C     0.53010   0.14190   0.95356   0.00000  Uiso   1.00
C651   C     0.46937   0.19087   0.95341   0.00000  Uiso   1.00
C652   C     0.46905   0.14249   0.54656   0.00000  Uiso   1.00
H653   H     0.55422   0.20842   0.52789   0.00000  Uiso   1.00
H654   H     0.55361   0.12349   0.97220   0.00000  Uiso   1.00
H655   H     0.44580   0.20921   0.97192   0.00000  Uiso   1.00
H656   H     0.44525   0.12445   0.52801   0.00000  Uiso   1.00
C657   C     0.53118   0.19058   0.59281   0.00000  Uiso   1.00
C658   C     0.53086   0.14201   0.90725   0.00000  Uiso   1.00
C659   C     0.46881   0.19100   0.90709   0.00000  Uiso   1.00
C660   C     0.46846   0.14258   0.59288   0.00000  Uiso   1.00
C661   C     0.49985   0.16664   0.61602   0.00000  Uiso   1.00
C662   C     0.49991   0.16660   0.88399   0.00000  Uiso   1.00
H663   H     0.37088   0.09456   0.76420   0.00000  Uiso   1.00
H664   H     0.62913   0.23879   0.73593   0.00000  Uiso   1.00
H665   H     0.62917   0.09457   0.76432   0.00000  Uiso   1.00
H666   H     0.37084   0.23877   0.73582   0.00000  Uiso   1.00
C667   C     0.49973   0.16643   0.52392   0.00000  Uiso   1.00
C668   C     0.49970   0.16634   0.97609   0.00000  Uiso   1.00
C669   C     0.62420   0.16668   0.75011   0.00000  Uiso   1.00
C670   C     0.37581   0.16666   0.75001   0.00000  Uiso   1.00
N671   N     0.56444   0.21370   0.61554   0.00000  Uiso   1.00
O672   O     0.58371   0.19430   0.64865   0.00000  Uiso   1.00
O673   O     0.57976   0.25087   0.59893   0.00000  Uiso   1.00
N674   N     0.56375   0.11836   0.88456   0.00000  Uiso   1.00
O675   O     0.58343   0.13758   0.85170   0.00000  Uiso   1.00
O676   O     0.57829   0.08069   0.90094   0.00000  Uiso   1.00
N677   N     0.43595   0.21467   0.88423   0.00000  Uiso   1.00
O678   O     0.41642   0.19553   0.85113   0.00000  Uiso   1.00
O679   O     0.42120   0.25216   0.90071   0.00000  Uiso   1.00
N680   N     0.43534   0.11941   0.61570   0.00000  Uiso   1.00
O681   O     0.41618   0.13880   0.64882   0.00000  Uiso   1.00
O682   O     0.42011   0.08210   0.59926   0.00000  Uiso   1.00
O683   O     0.77226   0.20487   0.75000   0.00000  Uiso   1.00
O684   O     0.89441   0.12846   0.75001   0.00000  Uiso   1.00
O685   O     0.89441   0.20487   0.75001   0.00000  Uiso   1.00
O686   O     0.77226   0.12846   0.75000   0.00000  Uiso   1.00
N687   N     0.83333   0.28573   0.75000   0.00000  Uiso   1.00
N688   N     0.83333   0.04760   0.75000   0.00000  Uiso   1.00
C689   C     0.75329   0.16666   0.74999   0.00000  Uiso   1.00
C690   C     0.91338   0.16667   0.75007   0.00000  Uiso   1.00
O691   O     0.83333   0.20489   0.68453   0.00000  Uiso   1.00
O692   O     0.83334   0.12845   0.81547   0.00000  Uiso   1.00
O693   O     0.83334   0.20489   0.81547   0.00000  Uiso   1.00
O694   O     0.83333   0.12845   0.68453   0.00000  Uiso   1.00
C695   C     0.83329   0.16666   0.66398   0.00000  Uiso   1.00
C696   C     0.83332   0.16666   0.83602   0.00000  Uiso   1.00
Zn697  Zn    0.83333   0.21771   0.75000   0.00000  Uiso   1.00
Zn698  Zn    0.83333   0.11563   0.75000   0.00000  Uiso   1.00
H699   H     0.88102   0.04219   0.79875   0.00000  Uiso   1.00
H700   H     0.78563   0.29116   0.70127   0.00000  Uiso   1.00
H701   H     0.78565   0.04219   0.70125   0.00000  Uiso   1.00
H702   H     0.88103   0.29116   0.79873   0.00000  Uiso   1.00
C703   C     0.85984   0.02399   0.77709   0.00000  Uiso   1.00
C704   C     0.80682   0.30935   0.72292   0.00000  Uiso   1.00
C705   C     0.80683   0.02399   0.72291   0.00000  Uiso   1.00
C706   C     0.85984   0.30935   0.77709   0.00000  Uiso   1.00
C707   C     0.68798   0.12610   0.75787   0.00000  Uiso   1.00
C708   C     0.97869   0.20725   0.74229   0.00000  Uiso   1.00
C709   C     0.97871   0.12610   0.75792   0.00000  Uiso   1.00
C710   C     0.68796   0.20724   0.74221   0.00000  Uiso   1.00
C711   C     0.86379   0.19047   0.54649   0.00000  Uiso   1.00
C712   C     0.86344   0.14190   0.95356   0.00000  Uiso   1.00
C713   C     0.80270   0.19087   0.95341   0.00000  Uiso   1.00
C714   C     0.80238   0.14249   0.54656   0.00000  Uiso   1.00
H715   H     0.88756   0.20842   0.52789   0.00000  Uiso   1.00
H716   H     0.88694   0.12349   0.97220   0.00000  Uiso   1.00
H717   H     0.77914   0.20921   0.97192   0.00000  Uiso   1.00
H718   H     0.77858   0.12445   0.52801   0.00000  Uiso   1.00
C719   C     0.86451   0.19058   0.59281   0.00000  Uiso   1.00
C720   C     0.86419   0.14201   0.90725   0.00000  Uiso   1.00
C721   C     0.80214   0.19100   0.90709   0.00000  Uiso   1.00
C722   C     0.80179   0.14258   0.59288   0.00000  Uiso   1.00
C723   C     0.83318   0.16664   0.61602   0.00000  Uiso   1.00
C724   C     0.83324   0.16660   0.88399   0.00000  Uiso   1.00
H725   H     0.70421   0.09456   0.76420   0.00000  Uiso   1.00
H726   H     0.96247   0.23879   0.73593   0.00000  Uiso   1.00
H727   H     0.96250   0.09457   0.76432   0.00000  Uiso   1.00
H728   H     0.70417   0.23877   0.73582   0.00000  Uiso   1.00
C729   C     0.83306   0.16643   0.52392   0.00000  Uiso   1.00
C730   C     0.83303   0.16634   0.97609   0.00000  Uiso   1.00
C731   C     0.95753   0.16668   0.75011   0.00000  Uiso   1.00
C732   C     0.70914   0.16666   0.75001   0.00000  Uiso   1.00
N733   N     0.89777   0.21370   0.61554   0.00000  Uiso   1.00
O734   O     0.91705   0.19430   0.64865   0.00000  Uiso   1.00
O735   O     0.91309   0.25087   0.59893   0.00000  Uiso   1.00
N736   N     0.89709   0.11836   0.88456   0.00000  Uiso   1.00
O737   O     0.91676   0.13758   0.85170   0.00000  Uiso   1.00
O738   O     0.91162   0.08069   0.90094   0.00000  Uiso   1.00
N739   N     0.76928   0.21467   0.88423   0.00000  Uiso   1.00
O740   O     0.74976   0.19553   0.85113   0.00000  Uiso   1.00
O741   O     0.75453   0.25216   0.90071   0.00000  Uiso   1.00
N742   N     0.76867   0.11941   0.61570   0.00000  Uiso   1.00
O743   O     0.74951   0.13880   0.64882   0.00000  Uiso   1.00
O744   O     0.75344   0.08210   0.59926   0.00000  Uiso   1.00
O745   O     0.10559   0.53821   0.75000   0.00000  Uiso   1.00
O746   O     0.22774   0.46179   0.75001   0.00000  Uiso   1.00
O747   O     0.22774   0.53821   0.75001   0.00000  Uiso   1.00
O748   O     0.10559   0.46179   0.75000   0.00000  Uiso   1.00
N749   N     0.16667   0.61907   0.75000   0.00000  Uiso   1.00
N750   N     0.16667   0.38093   0.75000   0.00000  Uiso   1.00
C751   C     0.08662   0.50000   0.74999   0.00000  Uiso   1.00
C752   C     0.24671   0.50000   0.75007   0.00000  Uiso   1.00
O753   O     0.16666   0.53822   0.68453   0.00000  Uiso   1.00
O754   O     0.16667   0.46178   0.81547   0.00000  Uiso   1.00
O755   O     0.16667   0.53822   0.81547   0.00000  Uiso   1.00
O756   O     0.16666   0.46178   0.68453   0.00000  Uiso   1.00
C757   C     0.16662   0.50000   0.66398   0.00000  Uiso   1.00
C758   C     0.16665   0.49999   0.83602   0.00000  Uiso   1.00
Zn759  Zn    0.16667   0.55104   0.75000   0.00000  Uiso   1.00
Zn760  Zn    0.16667   0.44896   0.75000   0.00000  Uiso   1.00
H761   H     0.21435   0.37552   0.79875   0.00000  Uiso   1.00
H762   H     0.11897   0.62449   0.70127   0.00000  Uiso   1.00
H763   H     0.11899   0.37552   0.70125   0.00000  Uiso   1.00
H764   H     0.21436   0.62449   0.79873   0.00000  Uiso   1.00
C765   C     0.19317   0.35733   0.77709   0.00000  Uiso   1.00
C766   C     0.14016   0.64268   0.72292   0.00000  Uiso   1.00
C767   C     0.14016   0.35732   0.72291   0.00000  Uiso   1.00
C768   C     0.19317   0.64268   0.77709   0.00000  Uiso   1.00
C769   C     0.02132   0.45943   0.75787   0.00000  Uiso   1.00
C770   C     0.31203   0.54058   0.74229   0.00000  Uiso   1.00
C771   C     0.31205   0.45944   0.75792   0.00000  Uiso   1.00
C772   C     0.02130   0.54057   0.74221   0.00000  Uiso   1.00
C773   C     0.19712   0.52381   0.54649   0.00000  Uiso   1.00
C774   C     0.19677   0.47523   0.95356   0.00000  Uiso   1.00
C775   C     0.13603   0.52420   0.95341   0.00000  Uiso   1.00
C776   C     0.13572   0.47582   0.54656   0.00000  Uiso   1.00
H777   H     0.22089   0.54175   0.52789   0.00000  Uiso   1.00
H778   H     0.22028   0.45682   0.97220   0.00000  Uiso   1.00
H779   H     0.11247   0.54255   0.97192   0.00000  Uiso   1.00
H780   H     0.11191   0.45778   0.52801   0.00000  Uiso   1.00
C781   C     0.19784   0.52391   0.59281   0.00000  Uiso   1.00
C782   C     0.19752   0.47534   0.90725   0.00000  Uiso   1.00
C783   C     0.13548   0.52433   0.90709   0.00000  Uiso   1.00
C784   C     0.13513   0.47591   0.59288   0.00000  Uiso   1.00
C785   C     0.16652   0.49997   0.61602   0.00000  Uiso   1.00
C786   C     0.16657   0.49993   0.88399   0.00000  Uiso   1.00
H787   H     0.03755   0.42789   0.76420   0.00000  Uiso   1.00
H788   H     0.29580   0.57212   0.73593   0.00000  Uiso   1.00
H789   H     0.29584   0.42791   0.76432   0.00000  Uiso   1.00
H790   H     0.03750   0.57210   0.73582   0.00000  Uiso   1.00
C791   C     0.16640   0.49976   0.52392   0.00000  Uiso   1.00
C792   C     0.16636   0.49968   0.97609   0.00000  Uiso   1.00
C793   C     0.29086   0.50001   0.75011   0.00000  Uiso   1.00
C794   C     0.04248   0.50000   0.75001   0.00000  Uiso   1.00
N795   N     0.23111   0.54704   0.61554   0.00000  Uiso   1.00
O796   O     0.25038   0.52763   0.64865   0.00000  Uiso   1.00
O797   O     0.24643   0.58420   0.59893   0.00000  Uiso   1.00
N798   N     0.23042   0.45170   0.88456   0.00000  Uiso   1.00
O799   O     0.25010   0.47092   0.85170   0.00000  Uiso   1.00
O800   O     0.24496   0.41402   0.90094   0.00000  Uiso   1.00
N801   N     0.10261   0.54800   0.88423   0.00000  Uiso   1.00
O802   O     0.08309   0.52887   0.85113   0.00000  Uiso   1.00
O803   O     0.08786   0.58549   0.90071   0.00000  Uiso   1.00
N804   N     0.10201   0.45275   0.61570   0.00000  Uiso   1.00
O805   O     0.08284   0.47213   0.64882   0.00000  Uiso   1.00
O806   O     0.08678   0.41544   0.59926   0.00000  Uiso   1.00
O807   O     0.43892   0.53821   0.75000   0.00000  Uiso   1.00
O808   O     0.56108   0.46179   0.75001   0.00000  Uiso   1.00
O809   O     0.56108   0.53821   0.75001   0.00000  Uiso   1.00
O810   O     0.43892   0.46179   0.75000   0.00000  Uiso   1.00
N811   N     0.50000   0.61907   0.75000   0.00000  Uiso   1.00
N812   N     0.50000   0.38093   0.75000   0.00000  Uiso   1.00
C813   C     0.41996   0.50000   0.74999   0.00000  Uiso   1.00
C814   C     0.58005   0.50000   0.75007   0.00000  Uiso   1.00
O815   O     0.50000   0.53822   0.68453   0.00000  Uiso   1.00
O816   O     0.50000   0.46178   0.81547   0.00000  Uiso   1.00
O817   O     0.50000   0.53822   0.81547   0.00000  Uiso   1.00
O818   O     0.50000   0.46178   0.68453   0.00000  Uiso   1.00
C819   C     0.49996   0.50000   0.66398   0.00000  Uiso   1.00
C820   C     0.49999   0.49999   0.83602   0.00000  Uiso   1.00
Zn821  Zn    0.50000   0.55104   0.75000   0.00000  Uiso   1.00
Zn822  Zn    0.50000   0.44896   0.75000   0.00000  Uiso   1.00
H823   H     0.54768   0.37552   0.79875   0.00000  Uiso   1.00
H824   H     0.45230   0.62449   0.70127   0.00000  Uiso   1.00
H825   H     0.45232   0.37552   0.70125   0.00000  Uiso   1.00
H826   H     0.54769   0.62449   0.79873   0.00000  Uiso   1.00
C827   C     0.52650   0.35733   0.77709   0.00000  Uiso   1.00
C828   C     0.47349   0.64268   0.72292   0.00000  Uiso   1.00
C829   C     0.47350   0.35732   0.72291   0.00000  Uiso   1.00
C830   C     0.52651   0.64268   0.77709   0.00000  Uiso   1.00
C831   C     0.35465   0.45943   0.75787   0.00000  Uiso   1.00
C832   C     0.64536   0.54058   0.74229   0.00000  Uiso   1.00
C833   C     0.64538   0.45944   0.75792   0.00000  Uiso   1.00
C834   C     0.35463   0.54057   0.74221   0.00000  Uiso   1.00
C835   C     0.53045   0.52381   0.54649   0.00000  Uiso   1.00
C836   C     0.53010   0.47523   0.95356   0.00000  Uiso   1.00
C837   C     0.46937   0.52420   0.95341   0.00000  Uiso   1.00
C838   C     0.46905   0.47582   0.54656   0.00000  Uiso   1.00
H839   H     0.55422   0.54175   0.52789   0.00000  Uiso   1.00
H840   H     0.55361   0.45682   0.97220   0.00000  Uiso   1.00
H841   H     0.44580   0.54255   0.97192   0.00000  Uiso   1.00
H842   H     0.44525   0.45778   0.52801   0.00000  Uiso   1.00
C843   C     0.53118   0.52391   0.59281   0.00000  Uiso   1.00
C844   C     0.53086   0.47534   0.90725   0.00000  Uiso   1.00
C845   C     0.46881   0.52433   0.90709   0.00000  Uiso   1.00
C846   C     0.46846   0.47591   0.59288   0.00000  Uiso   1.00
C847   C     0.49985   0.49997   0.61602   0.00000  Uiso   1.00
C848   C     0.49991   0.49993   0.88399   0.00000  Uiso   1.00
H849   H     0.37088   0.42789   0.76420   0.00000  Uiso   1.00
H850   H     0.62913   0.57212   0.73593   0.00000  Uiso   1.00
H851   H     0.62917   0.42791   0.76432   0.00000  Uiso   1.00
H852   H     0.37084   0.57210   0.73582   0.00000  Uiso   1.00
C853   C     0.49973   0.49976   0.52392   0.00000  Uiso   1.00
C854   C     0.49970   0.49968   0.97609   0.00000  Uiso   1.00
C855   C     0.62420   0.50001   0.75011   0.00000  Uiso   1.00
C856   C     0.37581   0.50000   0.75001   0.00000  Uiso   1.00
N857   N     0.56444   0.54704   0.61554   0.00000  Uiso   1.00
O858   O     0.58371   0.52763   0.64865   0.00000  Uiso   1.00
O859   O     0.57976   0.58420   0.59893   0.00000  Uiso   1.00
N860   N     0.56375   0.45170   0.88456   0.00000  Uiso   1.00
O861   O     0.58343   0.47092   0.85170   0.00000  Uiso   1.00
O862   O     0.57829   0.41402   0.90094   0.00000  Uiso   1.00
N863   N     0.43595   0.54800   0.88423   0.00000  Uiso   1.00
O864   O     0.41642   0.52887   0.85113   0.00000  Uiso   1.00
O865   O     0.42120   0.58549   0.90071   0.00000  Uiso   1.00
N866   N     0.43534   0.45275   0.61570   0.00000  Uiso   1.00
O867   O     0.41618   0.47213   0.64882   0.00000  Uiso   1.00
O868   O     0.42011   0.41544   0.59926   0.00000  Uiso   1.00
O869   O     0.77226   0.53821   0.75000   0.00000  Uiso   1.00
O870   O     0.89441   0.46179   0.75001   0.00000  Uiso   1.00
O871   O     0.89441   0.53821   0.75001   0.00000  Uiso   1.00
O872   O     0.77226   0.46179   0.75000   0.00000  Uiso   1.00
N873   N     0.83333   0.61907   0.75000   0.00000  Uiso   1.00
N874   N     0.83333   0.38093   0.75000   0.00000  Uiso   1.00
C875   C     0.75329   0.50000   0.74999   0.00000  Uiso   1.00
C876   C     0.91338   0.50000   0.75007   0.00000  Uiso   1.00
O877   O     0.83333   0.53822   0.68453   0.00000  Uiso   1.00
O878   O     0.83334   0.46178   0.81547   0.00000  Uiso   1.00
O879   O     0.83334   0.53822   0.81547   0.00000  Uiso   1.00
O880   O     0.83333   0.46178   0.68453   0.00000  Uiso   1.00
C881   C     0.83329   0.50000   0.66398   0.00000  Uiso   1.00
C882   C     0.83332   0.49999   0.83602   0.00000  Uiso   1.00
Zn883  Zn    0.83333   0.55104   0.75000   0.00000  Uiso   1.00
Zn884  Zn    0.83333   0.44896   0.75000   0.00000  Uiso   1.00
H885   H     0.88102   0.37552   0.79875   0.00000  Uiso   1.00
H886   H     0.78563   0.62449   0.70127   0.00000  Uiso   1.00
H887   H     0.78565   0.37552   0.70125   0.00000  Uiso   1.00
H888   H     0.88103   0.62449   0.79873   0.00000  Uiso   1.00
C889   C     0.85984   0.35733   0.77709   0.00000  Uiso   1.00
C890   C     0.80682   0.64268   0.72292   0.00000  Uiso   1.00
C891   C     0.80683   0.35732   0.72291   0.00000  Uiso   1.00
C892   C     0.85984   0.64268   0.77709   0.00000  Uiso   1.00
C893   C     0.68798   0.45943   0.75787   0.00000  Uiso   1.00
C894   C     0.97869   0.54058   0.74229   0.00000  Uiso   1.00
C895   C     0.97871   0.45944   0.75792   0.00000  Uiso   1.00
C896   C     0.68796   0.54057   0.74221   0.00000  Uiso   1.00
C897   C     0.86379   0.52381   0.54649   0.00000  Uiso   1.00
C898   C     0.86344   0.47523   0.95356   0.00000  Uiso   1.00
C899   C     0.80270   0.52420   0.95341   0.00000  Uiso   1.00
C900   C     0.80238   0.47582   0.54656   0.00000  Uiso   1.00
H901   H     0.88756   0.54175   0.52789   0.00000  Uiso   1.00
H902   H     0.88694   0.45682   0.97220   0.00000  Uiso   1.00
H903   H     0.77914   0.54255   0.97192   0.00000  Uiso   1.00
H904   H     0.77858   0.45778   0.52801   0.00000  Uiso   1.00
C905   C     0.86451   0.52391   0.59281   0.00000  Uiso   1.00
C906   C     0.86419   0.47534   0.90725   0.00000  Uiso   1.00
C907   C     0.80214   0.52433   0.90709   0.00000  Uiso   1.00
C908   C     0.80179   0.47591   0.59288   0.00000  Uiso   1.00
C909   C     0.83318   0.49997   0.61602   0.00000  Uiso   1.00
C910   C     0.83324   0.49993   0.88399   0.00000  Uiso   1.00
H911   H     0.70421   0.42789   0.76420   0.00000  Uiso   1.00
H912   H     0.96247   0.57212   0.73593   0.00000  Uiso   1.00
H913   H     0.96250   0.42791   0.76432   0.00000  Uiso   1.00
H914   H     0.70417   0.57210   0.73582   0.00000  Uiso   1.00
C915   C     0.83306   0.49976   0.52392   0.00000  Uiso   1.00
C916   C     0.83303   0.49968   0.97609   0.00000  Uiso   1.00
C917   C     0.95753   0.50001   0.75011   0.00000  Uiso   1.00
C918   C     0.70914   0.50000   0.75001   0.00000  Uiso   1.00
N919   N     0.89777   0.54704   0.61554   0.00000  Uiso   1.00
O920   O     0.91705   0.52763   0.64865   0.00000  Uiso   1.00
O921   O     0.91309   0.58420   0.59893   0.00000  Uiso   1.00
N922   N     0.89709   0.45170   0.88456   0.00000  Uiso   1.00
O923   O     0.91676   0.47092   0.85170   0.00000  Uiso   1.00
O924   O     0.91162   0.41402   0.90094   0.00000  Uiso   1.00
N925   N     0.76928   0.54800   0.88423   0.00000  Uiso   1.00
O926   O     0.74976   0.52887   0.85113   0.00000  Uiso   1.00
O927   O     0.75453   0.58549   0.90071   0.00000  Uiso   1.00
N928   N     0.76867   0.45275   0.61570   0.00000  Uiso   1.00
O929   O     0.74951   0.47213   0.64882   0.00000  Uiso   1.00
O930   O     0.75344   0.41544   0.59926   0.00000  Uiso   1.00
O931   O     0.10559   0.87154   0.75000   0.00000  Uiso   1.00
O932   O     0.22774   0.79513   0.75001   0.00000  Uiso   1.00
O933   O     0.22774   0.87154   0.75001   0.00000  Uiso   1.00
O934   O     0.10559   0.79513   0.75000   0.00000  Uiso   1.00
N935   N     0.16667   0.95240   0.75000   0.00000  Uiso   1.00
N936   N     0.16667   0.71427   0.75000   0.00000  Uiso   1.00
C937   C     0.08662   0.83333   0.74999   0.00000  Uiso   1.00
C938   C     0.24671   0.83334   0.75007   0.00000  Uiso   1.00
O939   O     0.16666   0.87155   0.68453   0.00000  Uiso   1.00
O940   O     0.16667   0.79511   0.81547   0.00000  Uiso   1.00
O941   O     0.16667   0.87155   0.81547   0.00000  Uiso   1.00
O942   O     0.16666   0.79511   0.68453   0.00000  Uiso   1.00
C943   C     0.16662   0.83333   0.66398   0.00000  Uiso   1.00
C944   C     0.16665   0.83333   0.83602   0.00000  Uiso   1.00
Zn945  Zn    0.16667   0.88437   0.75000   0.00000  Uiso   1.00
Zn946  Zn    0.16667   0.78229   0.75000   0.00000  Uiso   1.00
H947   H     0.21435   0.70886   0.79875   0.00000  Uiso   1.00
H948   H     0.11897   0.95782   0.70127   0.00000  Uiso   1.00
H949   H     0.11899   0.70886   0.70125   0.00000  Uiso   1.00
H950   H     0.21436   0.95783   0.79873   0.00000  Uiso   1.00
C951   C     0.19317   0.69066   0.77709   0.00000  Uiso   1.00
C952   C     0.14016   0.97601   0.72292   0.00000  Uiso   1.00
C953   C     0.14016   0.69066   0.72291   0.00000  Uiso   1.00
C954   C     0.19317   0.97602   0.77709   0.00000  Uiso   1.00
C955   C     0.02132   0.79276   0.75787   0.00000  Uiso   1.00
C956   C     0.31203   0.87391   0.74229   0.00000  Uiso   1.00
C957   C     0.31205   0.79277   0.75792   0.00000  Uiso   1.00
C958   C     0.02130   0.87390   0.74221   0.00000  Uiso   1.00
C959   C     0.19712   0.85714   0.54649   0.00000  Uiso   1.00
C960   C     0.19677   0.80856   0.95356   0.00000  Uiso   1.00
C961   C     0.13603   0.85754   0.95341   0.00000  Uiso   1.00
C962   C     0.13572   0.80916   0.54656   0.00000  Uiso   1.00
H963   H     0.22089   0.87509   0.52789   0.00000  Uiso   1.00
H964   H     0.22028   0.79015   0.97220   0.00000  Uiso   1.00
H965   H     0.11247   0.87588   0.97192   0.00000  Uiso   1.00
H966   H     0.11191   0.79111   0.52801   0.00000  Uiso   1.00
C967   C     0.19784   0.85725   0.59281   0.00000  Uiso   1.00
C968   C     0.19752   0.80868   0.90725   0.00000  Uiso   1.00
C969   C     0.13548   0.85767   0.90709   0.00000  Uiso   1.00
C970   C     0.13513   0.80924   0.59288   0.00000  Uiso   1.00
C971   C     0.16652   0.83330   0.61602   0.00000  Uiso   1.00
C972   C     0.16657   0.83327   0.88399   0.00000  Uiso   1.00
H973   H     0.03755   0.76122   0.76420   0.00000  Uiso   1.00
H974   H     0.29580   0.90545   0.73593   0.00000  Uiso   1.00
H975   H     0.29584   0.76124   0.76432   0.00000  Uiso   1.00
H976   H     0.03750   0.90544   0.73582   0.00000  Uiso   1.00
C977   C     0.16640   0.83309   0.52392   0.00000  Uiso   1.00
C978   C     0.16636   0.83301   0.97609   0.00000  Uiso   1.00
C979   C     0.29086   0.83334   0.75011   0.00000  Uiso   1.00
C980   C     0.04248   0.83333   0.75001   0.00000  Uiso   1.00
N981   N     0.23111   0.88037   0.61554   0.00000  Uiso   1.00
O982   O     0.25038   0.86096   0.64865   0.00000  Uiso   1.00
O983   O     0.24643   0.91753   0.59893   0.00000  Uiso   1.00
N984   N     0.23042   0.78503   0.88456   0.00000  Uiso   1.00
O985   O     0.25010   0.80425   0.85170   0.00000  Uiso   1.00
O986   O     0.24496   0.74735   0.90094   0.00000  Uiso   1.00
N987   N     0.10261   0.88133   0.88423   0.00000  Uiso   1.00
O988   O     0.08309   0.86220   0.85113   0.00000  Uiso   1.00
O989   O     0.08786   0.91883   0.90071   0.00000  Uiso   1.00
N990   N     0.10201   0.78608   0.61570   0.00000  Uiso   1.00
O991   O     0.08284   0.80547   0.64882   0.00000  Uiso   1.00
O992   O     0.08678   0.74877   0.59926   0.00000  Uiso   1.00
O993   O     0.43892   0.87154   0.75000   0.00000  Uiso   1.00
O994   O     0.56108   0.79513   0.75001   0.00000  Uiso   1.00
O995   O     0.56108   0.87154   0.75001   0.00000  Uiso   1.00
O996   O     0.43892   0.79513   0.75000   0.00000  Uiso   1.00
N997   N     0.50000   0.95240   0.75000   0.00000  Uiso   1.00
N998   N     0.50000   0.71427   0.75000   0.00000  Uiso   1.00
C999   C     0.41996   0.83333   0.74999   0.00000  Uiso   1.00
C1000  C     0.58005   0.83334   0.75007   0.00000  Uiso   1.00
O1001  O     0.50000   0.87155   0.68453   0.00000  Uiso   1.00
O1002  O     0.50000   0.79511   0.81547   0.00000  Uiso   1.00
O1003  O     0.50000   0.87155   0.81547   0.00000  Uiso   1.00
O1004  O     0.50000   0.79511   0.68453   0.00000  Uiso   1.00
C1005  C     0.49996   0.83333   0.66398   0.00000  Uiso   1.00
C1006  C     0.49999   0.83333   0.83602   0.00000  Uiso   1.00
Zn1007 Zn    0.50000   0.88437   0.75000   0.00000  Uiso   1.00
Zn1008 Zn    0.50000   0.78229   0.75000   0.00000  Uiso   1.00
H1009  H     0.54768   0.70886   0.79875   0.00000  Uiso   1.00
H1010  H     0.45230   0.95782   0.70127   0.00000  Uiso   1.00
H1011  H     0.45232   0.70886   0.70125   0.00000  Uiso   1.00
H1012  H     0.54769   0.95783   0.79873   0.00000  Uiso   1.00
C1013  C     0.52650   0.69066   0.77709   0.00000  Uiso   1.00
C1014  C     0.47349   0.97601   0.72292   0.00000  Uiso   1.00
C1015  C     0.47350   0.69066   0.72291   0.00000  Uiso   1.00
C1016  C     0.52651   0.97602   0.77709   0.00000  Uiso   1.00
C1017  C     0.35465   0.79276   0.75787   0.00000  Uiso   1.00
C1018  C     0.64536   0.87391   0.74229   0.00000  Uiso   1.00
C1019  C     0.64538   0.79277   0.75792   0.00000  Uiso   1.00
C1020  C     0.35463   0.87390   0.74221   0.00000  Uiso   1.00
C1021  C     0.53045   0.85714   0.54649   0.00000  Uiso   1.00
C1022  C     0.53010   0.80856   0.95356   0.00000  Uiso   1.00
C1023  C     0.46937   0.85754   0.95341   0.00000  Uiso   1.00
C1024  C     0.46905   0.80916   0.54656   0.00000  Uiso   1.00
H1025  H     0.55422   0.87509   0.52789   0.00000  Uiso   1.00
H1026  H     0.55361   0.79015   0.97220   0.00000  Uiso   1.00
H1027  H     0.44580   0.87588   0.97192   0.00000  Uiso   1.00
H1028  H     0.44525   0.79111   0.52801   0.00000  Uiso   1.00
C1029  C     0.53118   0.85725   0.59281   0.00000  Uiso   1.00
C1030  C     0.53086   0.80868   0.90725   0.00000  Uiso   1.00
C1031  C     0.46881   0.85767   0.90709   0.00000  Uiso   1.00
C1032  C     0.46846   0.80924   0.59288   0.00000  Uiso   1.00
C1033  C     0.49985   0.83330   0.61602   0.00000  Uiso   1.00
C1034  C     0.49991   0.83327   0.88399   0.00000  Uiso   1.00
H1035  H     0.37088   0.76122   0.76420   0.00000  Uiso   1.00
H1036  H     0.62913   0.90545   0.73593   0.00000  Uiso   1.00
H1037  H     0.62917   0.76124   0.76432   0.00000  Uiso   1.00
H1038  H     0.37084   0.90544   0.73582   0.00000  Uiso   1.00
C1039  C     0.49973   0.83309   0.52392   0.00000  Uiso   1.00
C1040  C     0.49970   0.83301   0.97609   0.00000  Uiso   1.00
C1041  C     0.62420   0.83334   0.75011   0.00000  Uiso   1.00
C1042  C     0.37581   0.83333   0.75001   0.00000  Uiso   1.00
N1043  N     0.56444   0.88037   0.61554   0.00000  Uiso   1.00
O1044  O     0.58371   0.86096   0.64865   0.00000  Uiso   1.00
O1045  O     0.57976   0.91753   0.59893   0.00000  Uiso   1.00
N1046  N     0.56375   0.78503   0.88456   0.00000  Uiso   1.00
O1047  O     0.58343   0.80425   0.85170   0.00000  Uiso   1.00
O1048  O     0.57829   0.74735   0.90094   0.00000  Uiso   1.00
N1049  N     0.43595   0.88133   0.88423   0.00000  Uiso   1.00
O1050  O     0.41642   0.86220   0.85113   0.00000  Uiso   1.00
O1051  O     0.42120   0.91883   0.90071   0.00000  Uiso   1.00
N1052  N     0.43534   0.78608   0.61570   0.00000  Uiso   1.00
O1053  O     0.41618   0.80547   0.64882   0.00000  Uiso   1.00
O1054  O     0.42011   0.74877   0.59926   0.00000  Uiso   1.00
O1055  O     0.77226   0.87154   0.75000   0.00000  Uiso   1.00
O1056  O     0.89441   0.79513   0.75001   0.00000  Uiso   1.00
O1057  O     0.89441   0.87154   0.75001   0.00000  Uiso   1.00
O1058  O     0.77226   0.79513   0.75000   0.00000  Uiso   1.00
N1059  N     0.83333   0.95240   0.75000   0.00000  Uiso   1.00
N1060  N     0.83333   0.71427   0.75000   0.00000  Uiso   1.00
C1061  C     0.75329   0.83333   0.74999   0.00000  Uiso   1.00
C1062  C     0.91338   0.83334   0.75007   0.00000  Uiso   1.00
O1063  O     0.83333   0.87155   0.68453   0.00000  Uiso   1.00
O1064  O     0.83334   0.79511   0.81547   0.00000  Uiso   1.00
O1065  O     0.83334   0.87155   0.81547   0.00000  Uiso   1.00
O1066  O     0.83333   0.79511   0.68453   0.00000  Uiso   1.00
C1067  C     0.83329   0.83333   0.66398   0.00000  Uiso   1.00
C1068  C     0.83332   0.83333   0.83602   0.00000  Uiso   1.00
Zn1069 Zn    0.83333   0.88437   0.75000   0.00000  Uiso   1.00
Zn1070 Zn    0.83333   0.78229   0.75000   0.00000  Uiso   1.00
H1071  H     0.88102   0.70886   0.79875   0.00000  Uiso   1.00
H1072  H     0.78563   0.95782   0.70127   0.00000  Uiso   1.00
H1073  H     0.78565   0.70886   0.70125   0.00000  Uiso   1.00
H1074  H     0.88103   0.95783   0.79873   0.00000  Uiso   1.00
C1075  C     0.85984   0.69066   0.77709   0.00000  Uiso   1.00
C1076  C     0.80682   0.97601   0.72292   0.00000  Uiso   1.00
C1077  C     0.80683   0.69066   0.72291   0.00000  Uiso   1.00
C1078  C     0.85984   0.97602   0.77709   0.00000  Uiso   1.00
C1079  C     0.68798   0.79276   0.75787   0.00000  Uiso   1.00
C1080  C     0.97869   0.87391   0.74229   0.00000  Uiso   1.00
C1081  C     0.97871   0.79277   0.75792   0.00000  Uiso   1.00
C1082  C     0.68796   0.87390   0.74221   0.00000  Uiso   1.00
C1083  C     0.86379   0.85714   0.54649   0.00000  Uiso   1.00
C1084  C     0.86344   0.80856   0.95356   0.00000  Uiso   1.00
C1085  C     0.80270   0.85754   0.95341   0.00000  Uiso   1.00
C1086  C     0.80238   0.80916   0.54656   0.00000  Uiso   1.00
H1087  H     0.88756   0.87509   0.52789   0.00000  Uiso   1.00
H1088  H     0.88694   0.79015   0.97220   0.00000  Uiso   1.00
H1089  H     0.77914   0.87588   0.97192   0.00000  Uiso   1.00
H1090  H     0.77858   0.79111   0.52801   0.00000  Uiso   1.00
C1091  C     0.86451   0.85725   0.59281   0.00000  Uiso   1.00
C1092  C     0.86419   0.80868   0.90725   0.00000  Uiso   1.00
C1093  C     0.80214   0.85767   0.90709   0.00000  Uiso   1.00
C1094  C     0.80179   0.80924   0.59288   0.00000  Uiso   1.00
C1095  C     0.83318   0.83330   0.61602   0.00000  Uiso   1.00
C1096  C     0.83324   0.83327   0.88399   0.00000  Uiso   1.00
H1097  H     0.70421   0.76122   0.76420   0.00000  Uiso   1.00
H1098  H     0.96247   0.90545   0.73593   0.00000  Uiso   1.00
H1099  H     0.96250   0.76124   0.76432   0.00000  Uiso   1.00
H1100  H     0.70417   0.90544   0.73582   0.00000  Uiso   1.00
C1101  C     0.83306   0.83309   0.52392   0.00000  Uiso   1.00
C1102  C     0.83303   0.83301   0.97609   0.00000  Uiso   1.00
C1103  C     0.95753   0.83334   0.75011   0.00000  Uiso   1.00
C1104  C     0.70914   0.83333   0.75001   0.00000  Uiso   1.00
N1105  N     0.89777   0.88037   0.61554   0.00000  Uiso   1.00
O1106  O     0.91705   0.86096   0.64865   0.00000  Uiso   1.00
O1107  O     0.91309   0.91753   0.59893   0.00000  Uiso   1.00
N1108  N     0.89709   0.78503   0.88456   0.00000  Uiso   1.00
O1109  O     0.91676   0.80425   0.85170   0.00000  Uiso   1.00
O1110  O     0.91162   0.74735   0.90094   0.00000  Uiso   1.00
N1111  N     0.76928   0.88133   0.88423   0.00000  Uiso   1.00
O1112  O     0.74976   0.86220   0.85113   0.00000  Uiso   1.00
O1113  O     0.75453   0.91883   0.90071   0.00000  Uiso   1.00
N1114  N     0.76867   0.78608   0.61570   0.00000  Uiso   1.00
O1115  O     0.74951   0.80547   0.64882   0.00000  Uiso   1.00
O1116  O     0.75344   0.74877   0.59926   0.00000  Uiso   1.00
loop_
_geom_bond_atom_site_label_1
_geom_bond_atom_site_label_2
_geom_bond_distance
_geom_bond_site_symmetry_2
_ccdc_geom_bond_type
O1     Zn15    2.000   .     S
O1     C7      1.282   .     A
O2     Zn16    2.000   .     S
O2     C8      1.282   .     A
O3     Zn15    2.000   .     S
O3     C8      1.282   .     A
O4     Zn16    2.000   .     S
O4     C7      1.282   .     A
N5     C24     1.366   .     A
N5     Zn15    2.008   .     S
N5     C22     1.366   .     A
N6     C23     1.366   .     A
N6     Zn16    2.008   .     S
N6     C21     1.366   .     A
C7     C50     1.419   .     S
C8     C49     1.419   .     S
O9     Zn15    1.996   .     S
O9     C13     1.285   .     A
O10    Zn16    1.996   .     S
O10    C14     1.285   .     A
O11    Zn15    1.996   .     S
O11    C14     1.285   .     A
O12    Zn16    1.996   .     S
O12    C13     1.285   .     A
C13    C41     1.436   .     S
C14    C42     1.436   .     S
H17    C21     1.082   .     S
H18    C22     1.082   .     S
H19    C23     1.082   .     S
H20    C24     1.082   .     S
C21    C396    1.416   1_545 S
C22    C209    1.416   .     S
C23    C394    1.416   1_545 S
C24    C207    1.416   .     S
C25    H43     1.084   .     S
C25    C50     1.397   .     A
C25    C151    1.370   1_455 S
C26    H44     1.084   .     S
C26    C49     1.397   .     A
C26    C90     1.370   .     S
C27    H45     1.084   .     S
C27    C49     1.397   .     A
C27    C87     1.370   .     S
C28    H46     1.084   .     S
C28    C50     1.397   .     A
C28    C150    1.370   1_455 S
C29    C47     1.390   .     A
C29    H33     1.084   .     S
C29    C37     1.387   .     A
C30    C48     1.391   .     A
C30    H34     1.084   .     S
C30    C38     1.387   .     A
C31    C39     1.387   .     A
C31    C48     1.390   .     A
C31    H35     1.084   .     S
C32    H36     1.084   .     S
C32    C47     1.390   .     A
C32    C40     1.387   .     A
C37    C41     1.414   .     A
C37    N51     1.439   .     S
C38    N54     1.439   .     S
C38    C42     1.414   .     A
C39    C42     1.414   .     A
C39    N57     1.439   .     S
C40    N60     1.439   .     S
C40    C41     1.414   .     A
C47    C606    1.432   1_554 S
C48    C605    1.432   .     S
N51    O52     1.301   .     A
N51    O53     1.301   .     A
N54    O56     1.302   .     A
N54    O55     1.301   .     A
N57    O58     1.301   .     A
N57    O59     1.302   .     A
N60    O62     1.301   .     A
N60    O61     1.301   .     A
O63    Zn77    2.000   .     S
O63    C69     1.282   .     A
O64    Zn78    2.000   .     S
O64    C70     1.282   .     A
O65    Zn77    2.000   .     S
O65    C70     1.282   .     A
O66    Zn78    2.000   .     S
O66    C69     1.282   .     A
N67    C86     1.366   .     A
N67    Zn77    2.008   .     S
N67    C84     1.366   .     A
N68    C85     1.366   .     A
N68    Zn78    2.008   .     S
N68    C83     1.366   .     A
C69    C112    1.419   .     S
C70    C111    1.419   .     S
O71    Zn77    1.996   .     S
O71    C75     1.285   .     A
O72    Zn78    1.996   .     S
O72    C76     1.285   .     A
O73    Zn77    1.996   .     S
O73    C76     1.285   .     A
O74    Zn78    1.996   .     S
O74    C75     1.285   .     A
C75    C103    1.436   .     S
C76    C104    1.436   .     S
H79    C83     1.082   .     S
H80    C84     1.082   .     S
H81    C85     1.082   .     S
H82    C86     1.082   .     S
C83    C458    1.416   1_545 S
C84    C271    1.416   .     S
C85    C456    1.416   1_545 S
C86    C269    1.416   .     S
C87    H105    1.084   .     S
C87    C112    1.397   .     A
C88    H106    1.084   .     S
C88    C111    1.397   .     A
C88    C152    1.370   .     S
C89    H107    1.084   .     S
C89    C111    1.397   .     A
C89    C149    1.370   .     S
C90    H108    1.084   .     S
C90    C112    1.397   .     A
C91    C109    1.390   .     A
C91    H95     1.084   .     S
C91    C99     1.387   .     A
C92    C110    1.391   .     A
C92    H96     1.084   .     S
C92    C100    1.387   .     A
C93    C101    1.387   .     A
C93    C110    1.390   .     A
C93    H97     1.084   .     S
C94    H98     1.084   .     S
C94    C109    1.390   .     A
C94    C102    1.387   .     A
C99    C103    1.414   .     A
C99    N113    1.439   .     S
C100   N116    1.439   .     S
C100   C104    1.414   .     A
C101   C104    1.414   .     A
C101   N119    1.439   .     S
C102   N122    1.439   .     S
C102   C103    1.414   .     A
C109   C668    1.432   1_554 S
C110   C667    1.432   .     S
N113   O114    1.301   .     A
N113   O115    1.301   .     A
N116   O118    1.302   .     A
N116   O117    1.301   .     A
N119   O120    1.301   .     A
N119   O121    1.302   .     A
N122   O124    1.301   .     A
N122   O123    1.301   .     A
O125   Zn139   2.000   .     S
O125   C131    1.282   .     A
O126   Zn140   2.000   .     S
O126   C132    1.282   .     A
O127   Zn139   2.000   .     S
O127   C132    1.282   .     A
O128   Zn140   2.000   .     S
O128   C131    1.282   .     A
N129   C148    1.366   .     A
N129   Zn139   2.008   .     S
N129   C146    1.366   .     A
N130   C147    1.366   .     A
N130   Zn140   2.008   .     S
N130   C145    1.366   .     A
C131   C174    1.419   .     S
C132   C173    1.419   .     S
O133   Zn139   1.996   .     S
O133   C137    1.285   .     A
O134   Zn140   1.996   .     S
O134   C138    1.285   .     A
O135   Zn139   1.996   .     S
O135   C138    1.285   .     A
O136   Zn140   1.996   .     S
O136   C137    1.285   .     A
C137   C165    1.436   .     S
C138   C166    1.436   .     S
H141   C145    1.082   .     S
H142   C146    1.082   .     S
H143   C147    1.082   .     S
H144   C148    1.082   .     S
C145   C520    1.416   1_545 S
C146   C333    1.416   .     S
C147   C518    1.416   1_545 S
C148   C331    1.416   .     S
C149   H167    1.084   .     S
C149   C174    1.397   .     A
C150   H168    1.084   .     S
C150   C173    1.397   .     A
C150   C28     1.370   1_655 S
C151   H169    1.084   .     S
C151   C173    1.397   .     A
C151   C25     1.370   1_655 S
C152   H170    1.084   .     S
C152   C174    1.397   .     A
C153   C171    1.390   .     A
C153   H157    1.084   .     S
C153   C161    1.387   .     A
C154   C172    1.391   .     A
C154   H158    1.084   .     S
C154   C162    1.387   .     A
C155   C163    1.387   .     A
C155   C172    1.390   .     A
C155   H159    1.084   .     S
C156   H160    1.084   .     S
C156   C171    1.390   .     A
C156   C164    1.387   .     A
C161   C165    1.414   .     A
C161   N175    1.439   .     S
C162   N178    1.439   .     S
C162   C166    1.414   .     A
C163   C166    1.414   .     A
C163   N181    1.439   .     S
C164   N184    1.439   .     S
C164   C165    1.414   .     A
C171   C730    1.432   1_554 S
C172   C729    1.432   .     S
N175   O176    1.301   .     A
N175   O177    1.301   .     A
N178   O180    1.302   .     A
N178   O179    1.301   .     A
N181   O182    1.301   .     A
N181   O183    1.302   .     A
N184   O186    1.301   .     A
N184   O185    1.301   .     A
O187   Zn201   2.000   .     S
O187   C193    1.282   .     A
O188   Zn202   2.000   .     S
O188   C194    1.282   .     A
O189   Zn201   2.000   .     S
O189   C194    1.282   .     A
O190   Zn202   2.000   .     S
O190   C193    1.282   .     A
N191   C210    1.366   .     A
N191   Zn201   2.008   .     S
N191   C208    1.366   .     A
N192   C209    1.366   .     A
N192   Zn202   2.008   .     S
N192   C207    1.366   .     A
C193   C236    1.419   .     S
C194   C235    1.419   .     S
O195   Zn201   1.996   .     S
O195   C199    1.285   .     A
O196   Zn202   1.996   .     S
O196   C200    1.285   .     A
O197   Zn201   1.996   .     S
O197   C200    1.285   .     A
O198   Zn202   1.996   .     S
O198   C199    1.285   .     A
C199   C227    1.436   .     S
C200   C228    1.436   .     S
H203   C207    1.082   .     S
H204   C208    1.082   .     S
H205   C209    1.082   .     S
H206   C210    1.082   .     S
C208   C395    1.416   .     S
C210   C393    1.416   .     S
C211   H229    1.084   .     S
C211   C236    1.397   .     A
C211   C337    1.370   1_455 S
C212   H230    1.084   .     S
C212   C235    1.397   .     A
C212   C276    1.370   .     S
C213   H231    1.084   .     S
C213   C235    1.397   .     A
C213   C273    1.370   .     S
C214   H232    1.084   .     S
C214   C236    1.397   .     A
C214   C336    1.370   1_455 S
C215   C233    1.390   .     A
C215   H219    1.084   .     S
C215   C223    1.387   .     A
C216   C234    1.391   .     A
C216   H220    1.084   .     S
C216   C224    1.387   .     A
C217   C225    1.387   .     A
C217   C234    1.390   .     A
C217   H221    1.084   .     S
C218   H222    1.084   .     S
C218   C233    1.390   .     A
C218   C226    1.387   .     A
C223   C227    1.414   .     A
C223   N237    1.439   .     S
C224   N240    1.439   .     S
C224   C228    1.414   .     A
C225   C228    1.414   .     A
C225   N243    1.439   .     S
C226   N246    1.439   .     S
C226   C227    1.414   .     A
C233   C792    1.432   1_554 S
C234   C791    1.432   .     S
N237   O238    1.301   .     A
N237   O239    1.301   .     A
N240   O242    1.302   .     A
N240   O241    1.301   .     A
N243   O244    1.301   .     A
N243   O245    1.302   .     A
N246   O248    1.301   .     A
N246   O247    1.301   .     A
O249   Zn263   2.000   .     S
O249   C255    1.282   .     A
O250   Zn264   2.000   .     S
O250   C256    1.282   .     A
O251   Zn263   2.000   .     S
O251   C256    1.282   .     A
O252   Zn264   2.000   .     S
O252   C255    1.282   .     A
N253   C272    1.366   .     A
N253   Zn263   2.008   .     S
N253   C270    1.366   .     A
N254   C271    1.366   .     A
N254   Zn264   2.008   .     S
N254   C269    1.366   .     A
C255   C298    1.419   .     S
C256   C297    1.419   .     S
O257   Zn263   1.996   .     S
O257   C261    1.285   .     A
O258   Zn264   1.996   .     S
O258   C262    1.285   .     A
O259   Zn263   1.996   .     S
O259   C262    1.285   .     A
O260   Zn264   1.996   .     S
O260   C261    1.285   .     A
C261   C289    1.436   .     S
C262   C290    1.436   .     S
H265   C269    1.082   .     S
H266   C270    1.082   .     S
H267   C271    1.082   .     S
H268   C272    1.082   .     S
C270   C457    1.416   .     S
C272   C455    1.416   .     S
C273   H291    1.084   .     S
C273   C298    1.397   .     A
C274   H292    1.084   .     S
C274   C297    1.397   .     A
C274   C338    1.370   .     S
C275   H293    1.084   .     S
C275   C297    1.397   .     A
C275   C335    1.370   .     S
C276   H294    1.084   .     S
C276   C298    1.397   .     A
C277   C295    1.390   .     A
C277   H281    1.084   .     S
C277   C285    1.387   .     A
C278   C296    1.391   .     A
C278   H282    1.084   .     S
C278   C286    1.387   .     A
C279   C287    1.387   .     A
C279   C296    1.390   .     A
C279   H283    1.084   .     S
C280   H284    1.084   .     S
C280   C295    1.390   .     A
C280   C288    1.387   .     A
C285   C289    1.414   .     A
C285   N299    1.439   .     S
C286   N302    1.439   .     S
C286   C290    1.414   .     A
C287   C290    1.414   .     A
C287   N305    1.439   .     S
C288   N308    1.439   .     S
C288   C289    1.414   .     A
C295   C854    1.432   1_554 S
C296   C853    1.432   .     S
N299   O300    1.301   .     A
N299   O301    1.301   .     A
N302   O304    1.302   .     A
N302   O303    1.301   .     A
N305   O306    1.301   .     A
N305   O307    1.302   .     A
N308   O310    1.301   .     A
N308   O309    1.301   .     A
O311   Zn325   2.000   .     S
O311   C317    1.282   .     A
O312   Zn326   2.000   .     S
O312   C318    1.282   .     A
O313   Zn325   2.000   .     S
O313   C318    1.282   .     A
O314   Zn326   2.000   .     S
O314   C317    1.282   .     A
N315   C334    1.366   .     A
N315   Zn325   2.008   .     S
N315   C332    1.366   .     A
N316   C333    1.366   .     A
N316   Zn326   2.008   .     S
N316   C331    1.366   .     A
C317   C360    1.419   .     S
C318   C359    1.419   .     S
O319   Zn325   1.996   .     S
O319   C323    1.285   .     A
O320   Zn326   1.996   .     S
O320   C324    1.285   .     A
O321   Zn325   1.996   .     S
O321   C324    1.285   .     A
O322   Zn326   1.996   .     S
O322   C323    1.285   .     A
C323   C351    1.436   .     S
C324   C352    1.436   .     S
H327   C331    1.082   .     S
H328   C332    1.082   .     S
H329   C333    1.082   .     S
H330   C334    1.082   .     S
C332   C519    1.416   .     S
C334   C517    1.416   .     S
C335   H353    1.084   .     S
C335   C360    1.397   .     A
C336   H354    1.084   .     S
C336   C359    1.397   .     A
C336   C214    1.370   1_655 S
C337   H355    1.084   .     S
C337   C359    1.397   .     A
C337   C211    1.370   1_655 S
C338   H356    1.084   .     S
C338   C360    1.397   .     A
C339   C357    1.390   .     A
C339   H343    1.084   .     S
C339   C347    1.387   .     A
C340   C358    1.391   .     A
C340   H344    1.084   .     S
C340   C348    1.387   .     A
C341   C349    1.387   .     A
C341   C358    1.390   .     A
C341   H345    1.084   .     S
C342   H346    1.084   .     S
C342   C357    1.390   .     A
C342   C350    1.387   .     A
C347   C351    1.414   .     A
C347   N361    1.439   .     S
C348   N364    1.439   .     S
C348   C352    1.414   .     A
C349   C352    1.414   .     A
C349   N367    1.439   .     S
C350   N370    1.439   .     S
C350   C351    1.414   .     A
C357   C916    1.432   1_554 S
C358   C915    1.432   .     S
N361   O362    1.301   .     A
N361   O363    1.301   .     A
N364   O366    1.302   .     A
N364   O365    1.301   .     A
N367   O368    1.301   .     A
N367   O369    1.302   .     A
N370   O372    1.301   .     A
N370   O371    1.301   .     A
O373   Zn387   2.000   .     S
O373   C379    1.282   .     A
O374   Zn388   2.000   .     S
O374   C380    1.282   .     A
O375   Zn387   2.000   .     S
O375   C380    1.282   .     A
O376   Zn388   2.000   .     S
O376   C379    1.282   .     A
N377   C396    1.366   .     A
N377   Zn387   2.008   .     S
N377   C394    1.366   .     A
N378   C395    1.366   .     A
N378   Zn388   2.008   .     S
N378   C393    1.366   .     A
C379   C422    1.419   .     S
C380   C421    1.419   .     S
O381   Zn387   1.996   .     S
O381   C385    1.285   .     A
O382   Zn388   1.996   .     S
O382   C386    1.285   .     A
O383   Zn387   1.996   .     S
O383   C386    1.285   .     A
O384   Zn388   1.996   .     S
O384   C385    1.285   .     A
C385   C413    1.436   .     S
C386   C414    1.436   .     S
H389   C393    1.082   .     S
H390   C394    1.082   .     S
H391   C395    1.082   .     S
H392   C396    1.082   .     S
C394   C23     1.416   1_565 S
C396   C21     1.416   1_565 S
C397   H415    1.084   .     S
C397   C422    1.397   .     A
C397   C523    1.370   1_455 S
C398   H416    1.084   .     S
C398   C421    1.397   .     A
C398   C462    1.370   .     S
C399   H417    1.084   .     S
C399   C421    1.397   .     A
C399   C459    1.370   .     S
C400   H418    1.084   .     S
C400   C422    1.397   .     A
C400   C522    1.370   1_455 S
C401   C419    1.390   .     A
C401   H405    1.084   .     S
C401   C409    1.387   .     A
C402   C420    1.391   .     A
C402   H406    1.084   .     S
C402   C410    1.387   .     A
C403   C411    1.387   .     A
C403   C420    1.390   .     A
C403   H407    1.084   .     S
C404   H408    1.084   .     S
C404   C419    1.390   .     A
C404   C412    1.387   .     A
C409   C413    1.414   .     A
C409   N423    1.439   .     S
C410   N426    1.439   .     S
C410   C414    1.414   .     A
C411   C414    1.414   .     A
C411   N429    1.439   .     S
C412   N432    1.439   .     S
C412   C413    1.414   .     A
C419   C978    1.432   1_554 S
C420   C977    1.432   .     S
N423   O424    1.301   .     A
N423   O425    1.301   .     A
N426   O428    1.302   .     A
N426   O427    1.301   .     A
N429   O430    1.301   .     A
N429   O431    1.302   .     A
N432   O434    1.301   .     A
N432   O433    1.301   .     A
O435   Zn449   2.000   .     S
O435   C441    1.282   .     A
O436   Zn450   2.000   .     S
O436   C442    1.282   .     A
O437   Zn449   2.000   .     S
O437   C442    1.282   .     A
O438   Zn450   2.000   .     S
O438   C441    1.282   .     A
N439   C458    1.366   .     A
N439   Zn449   2.008   .     S
N439   C456    1.366   .     A
N440   C457    1.366   .     A
N440   Zn450   2.008   .     S
N440   C455    1.366   .     A
C441   C484    1.419   .     S
C442   C483    1.419   .     S
O443   Zn449   1.996   .     S
O443   C447    1.285   .     A
O444   Zn450   1.996   .     S
O444   C448    1.285   .     A
O445   Zn449   1.996   .     S
O445   C448    1.285   .     A
O446   Zn450   1.996   .     S
O446   C447    1.285   .     A
C447   C475    1.436   .     S
C448   C476    1.436   .     S
H451   C455    1.082   .     S
H452   C456    1.082   .     S
H453   C457    1.082   .     S
H454   C458    1.082   .     S
C456   C85     1.416   1_565 S
C458   C83     1.416   1_565 S
C459   H477    1.084   .     S
C459   C484    1.397   .     A
C460   H478    1.084   .     S
C460   C483    1.397   .     A
C460   C524    1.370   .     S
C461   H479    1.084   .     S
C461   C483    1.397   .     A
C461   C521    1.370   .     S
C462   H480    1.084   .     S
C462   C484    1.397   .     A
C463   C481    1.390   .     A
C463   H467    1.084   .     S
C463   C471    1.387   .     A
C464   C482    1.391   .     A
C464   H468    1.084   .     S
C464   C472    1.387   .     A
C465   C473    1.387   .     A
C465   C482    1.390   .     A
C465   H469    1.084   .     S
C466   H470    1.084   .     S
C466   C481    1.390   .     A
C466   C474    1.387   .     A
C471   C475    1.414   .     A
C471   N485    1.439   .     S
C472   N488    1.439   .     S
C472   C476    1.414   .     A
C473   C476    1.414   .     A
C473   N491    1.439   .     S
C474   N494    1.439   .     S
C474   C475    1.414   .     A
C481   C1040   1.432   1_554 S
C482   C1039   1.432   .     S
N485   O486    1.301   .     A
N485   O487    1.301   .     A
N488   O490    1.302   .     A
N488   O489    1.301   .     A
N491   O492    1.301   .     A
N491   O493    1.302   .     A
N494   O496    1.301   .     A
N494   O495    1.301   .     A
O497   Zn511   2.000   .     S
O497   C503    1.282   .     A
O498   Zn512   2.000   .     S
O498   C504    1.282   .     A
O499   Zn511   2.000   .     S
O499   C504    1.282   .     A
O500   Zn512   2.000   .     S
O500   C503    1.282   .     A
N501   C520    1.366   .     A
N501   Zn511   2.008   .     S
N501   C518    1.366   .     A
N502   C519    1.366   .     A
N502   Zn512   2.008   .     S
N502   C517    1.366   .     A
C503   C546    1.419   .     S
C504   C545    1.419   .     S
O505   Zn511   1.996   .     S
O505   C509    1.285   .     A
O506   Zn512   1.996   .     S
O506   C510    1.285   .     A
O507   Zn511   1.996   .     S
O507   C510    1.285   .     A
O508   Zn512   1.996   .     S
O508   C509    1.285   .     A
C509   C537    1.436   .     S
C510   C538    1.436   .     S
H513   C517    1.082   .     S
H514   C518    1.082   .     S
H515   C519    1.082   .     S
H516   C520    1.082   .     S
C518   C147    1.416   1_565 S
C520   C145    1.416   1_565 S
C521   H539    1.084   .     S
C521   C546    1.397   .     A
C522   H540    1.084   .     S
C522   C545    1.397   .     A
C522   C400    1.370   1_655 S
C523   H541    1.084   .     S
C523   C545    1.397   .     A
C523   C397    1.370   1_655 S
C524   H542    1.084   .     S
C524   C546    1.397   .     A
C525   C543    1.390   .     A
C525   H529    1.084   .     S
C525   C533    1.387   .     A
C526   C544    1.391   .     A
C526   H530    1.084   .     S
C526   C534    1.387   .     A
C527   C535    1.387   .     A
C527   C544    1.390   .     A
C527   H531    1.084   .     S
C528   H532    1.084   .     S
C528   C543    1.390   .     A
C528   C536    1.387   .     A
C533   C537    1.414   .     A
C533   N547    1.439   .     S
C534   N550    1.439   .     S
C534   C538    1.414   .     A
C535   C538    1.414   .     A
C535   N553    1.439   .     S
C536   N556    1.439   .     S
C536   C537    1.414   .     A
C543   C1102   1.432   1_554 S
C544   C1101   1.432   .     S
N547   O548    1.301   .     A
N547   O549    1.301   .     A
N550   O552    1.302   .     A
N550   O551    1.301   .     A
N553   O554    1.301   .     A
N553   O555    1.302   .     A
N556   O558    1.301   .     A
N556   O557    1.301   .     A
O559   Zn573   2.000   .     S
O559   C565    1.282   .     A
O560   Zn574   2.000   .     S
O560   C566    1.282   .     A
O561   Zn573   2.000   .     S
O561   C566    1.282   .     A
O562   Zn574   2.000   .     S
O562   C565    1.282   .     A
N563   C582    1.366   .     A
N563   Zn573   2.008   .     S
N563   C580    1.366   .     A
N564   C581    1.366   .     A
N564   Zn574   2.008   .     S
N564   C579    1.366   .     A
C565   C608    1.419   .     S
C566   C607    1.419   .     S
O567   Zn573   1.996   .     S
O567   C571    1.285   .     A
O568   Zn574   1.996   .     S
O568   C572    1.285   .     A
O569   Zn573   1.996   .     S
O569   C572    1.285   .     A
O570   Zn574   1.996   .     S
O570   C571    1.285   .     A
C571   C599    1.436   .     S
C572   C600    1.436   .     S
H575   C579    1.082   .     S
H576   C580    1.082   .     S
H577   C581    1.082   .     S
H578   C582    1.082   .     S
C579   C954    1.416   1_545 S
C580   C767    1.416   .     S
C581   C952    1.416   1_545 S
C582   C765    1.416   .     S
C583   H601    1.084   .     S
C583   C608    1.397   .     A
C583   C709    1.370   1_455 S
C584   H602    1.084   .     S
C584   C607    1.397   .     A
C584   C648    1.370   .     S
C585   H603    1.084   .     S
C585   C607    1.397   .     A
C585   C645    1.370   .     S
C586   H604    1.084   .     S
C586   C608    1.397   .     A
C586   C708    1.370   1_455 S
C587   C605    1.390   .     A
C587   H591    1.084   .     S
C587   C595    1.387   .     A
C588   C606    1.391   .     A
C588   H592    1.084   .     S
C588   C596    1.387   .     A
C589   C597    1.387   .     A
C589   C606    1.390   .     A
C589   H593    1.084   .     S
C590   H594    1.084   .     S
C590   C605    1.390   .     A
C590   C598    1.387   .     A
C595   C599    1.414   .     A
C595   N609    1.439   .     S
C596   N612    1.439   .     S
C596   C600    1.414   .     A
C597   C600    1.414   .     A
C597   N615    1.439   .     S
C598   N618    1.439   .     S
C598   C599    1.414   .     A
C606   C47     1.432   1_556 S
N609   O610    1.301   .     A
N609   O611    1.301   .     A
N612   O614    1.302   .     A
N612   O613    1.301   .     A
N615   O616    1.301   .     A
N615   O617    1.302   .     A
N618   O620    1.301   .     A
N618   O619    1.301   .     A
O621   Zn635   2.000   .     S
O621   C627    1.282   .     A
O622   Zn636   2.000   .     S
O622   C628    1.282   .     A
O623   Zn635   2.000   .     S
O623   C628    1.282   .     A
O624   Zn636   2.000   .     S
O624   C627    1.282   .     A
N625   C644    1.366   .     A
N625   Zn635   2.008   .     S
N625   C642    1.366   .     A
N626   C643    1.366   .     A
N626   Zn636   2.008   .     S
N626   C641    1.366   .     A
C627   C670    1.419   .     S
C628   C669    1.419   .     S
O629   Zn635   1.996   .     S
O629   C633    1.285   .     A
O630   Zn636   1.996   .     S
O630   C634    1.285   .     A
O631   Zn635   1.996   .     S
O631   C634    1.285   .     A
O632   Zn636   1.996   .     S
O632   C633    1.285   .     A
C633   C661    1.436   .     S
C634   C662    1.436   .     S
H637   C641    1.082   .     S
H638   C642    1.082   .     S
H639   C643    1.082   .     S
H640   C644    1.082   .     S
C641   C1016   1.416   1_545 S
C642   C829    1.416   .     S
C643   C1014   1.416   1_545 S
C644   C827    1.416   .     S
C645   H663    1.084   .     S
C645   C670    1.397   .     A
C646   H664    1.084   .     S
C646   C669    1.397   .     A
C646   C710    1.370   .     S
C647   H665    1.084   .     S
C647   C669    1.397   .     A
C647   C707    1.370   .     S
C648   H666    1.084   .     S
C648   C670    1.397   .     A
C649   C667    1.390   .     A
C649   H653    1.084   .     S
C649   C657    1.387   .     A
C650   C668    1.391   .     A
C650   H654    1.084   .     S
C650   C658    1.387   .     A
C651   C659    1.387   .     A
C651   C668    1.390   .     A
C651   H655    1.084   .     S
C652   H656    1.084   .     S
C652   C667    1.390   .     A
C652   C660    1.387   .     A
C657   C661    1.414   .     A
C657   N671    1.439   .     S
C658   N674    1.439   .     S
C658   C662    1.414   .     A
C659   C662    1.414   .     A
C659   N677    1.439   .     S
C660   N680    1.439   .     S
C660   C661    1.414   .     A
C668   C109    1.432   1_556 S
N671   O672    1.301   .     A
N671   O673    1.301   .     A
N674   O676    1.302   .     A
N674   O675    1.301   .     A
N677   O678    1.301   .     A
N677   O679    1.302   .     A
N680   O682    1.301   .     A
N680   O681    1.301   .     A
O683   Zn697   2.000   .     S
O683   C689    1.282   .     A
O684   Zn698   2.000   .     S
O684   C690    1.282   .     A
O685   Zn697   2.000   .     S
O685   C690    1.282   .     A
O686   Zn698   2.000   .     S
O686   C689    1.282   .     A
N687   C706    1.366   .     A
N687   Zn697   2.008   .     S
N687   C704    1.366   .     A
N688   C705    1.366   .     A
N688   Zn698   2.008   .     S
N688   C703    1.366   .     A
C689   C732    1.419   .     S
C690   C731    1.419   .     S
O691   Zn697   1.996   .     S
O691   C695    1.285   .     A
O692   Zn698   1.996   .     S
O692   C696    1.285   .     A
O693   Zn697   1.996   .     S
O693   C696    1.285   .     A
O694   Zn698   1.996   .     S
O694   C695    1.285   .     A
C695   C723    1.436   .     S
C696   C724    1.436   .     S
H699   C703    1.082   .     S
H700   C704    1.082   .     S
H701   C705    1.082   .     S
H702   C706    1.082   .     S
C703   C1078   1.416   1_545 S
C704   C891    1.416   .     S
C705   C1076   1.416   1_545 S
C706   C889    1.416   .     S
C707   H725    1.084   .     S
C707   C732    1.397   .     A
C708   H726    1.084   .     S
C708   C731    1.397   .     A
C708   C586    1.370   1_655 S
C709   H727    1.084   .     S
C709   C731    1.397   .     A
C709   C583    1.370   1_655 S
C710   H728    1.084   .     S
C710   C732    1.397   .     A
C711   C729    1.390   .     A
C711   H715    1.084   .     S
C711   C719    1.387   .     A
C712   C730    1.391   .     A
C712   H716    1.084   .     S
C712   C720    1.387   .     A
C713   C721    1.387   .     A
C713   C730    1.390   .     A
C713   H717    1.084   .     S
C714   H718    1.084   .     S
C714   C729    1.390   .     A
C714   C722    1.387   .     A
C719   C723    1.414   .     A
C719   N733    1.439   .     S
C720   N736    1.439   .     S
C720   C724    1.414   .     A
C721   C724    1.414   .     A
C721   N739    1.439   .     S
C722   N742    1.439   .     S
C722   C723    1.414   .     A
C730   C171    1.432   1_556 S
N733   O734    1.301   .     A
N733   O735    1.301   .     A
N736   O738    1.302   .     A
N736   O737    1.301   .     A
N739   O740    1.301   .     A
N739   O741    1.302   .     A
N742   O744    1.301   .     A
N742   O743    1.301   .     A
O745   Zn759   2.000   .     S
O745   C751    1.282   .     A
O746   Zn760   2.000   .     S
O746   C752    1.282   .     A
O747   Zn759   2.000   .     S
O747   C752    1.282   .     A
O748   Zn760   2.000   .     S
O748   C751    1.282   .     A
N749   C768    1.366   .     A
N749   Zn759   2.008   .     S
N749   C766    1.366   .     A
N750   C767    1.366   .     A
N750   Zn760   2.008   .     S
N750   C765    1.366   .     A
C751   C794    1.419   .     S
C752   C793    1.419   .     S
O753   Zn759   1.996   .     S
O753   C757    1.285   .     A
O754   Zn760   1.996   .     S
O754   C758    1.285   .     A
O755   Zn759   1.996   .     S
O755   C758    1.285   .     A
O756   Zn760   1.996   .     S
O756   C757    1.285   .     A
C757   C785    1.436   .     S
C758   C786    1.436   .     S
H761   C765    1.082   .     S
H762   C766    1.082   .     S
H763   C767    1.082   .     S
H764   C768    1.082   .     S
C766   C953    1.416   .     S
C768   C951    1.416   .     S
C769   H787    1.084   .     S
C769   C794    1.397   .     A
C769   C895    1.370   1_455 S
C770   H788    1.084   .     S
C770   C793    1.397   .     A
C770   C834    1.370   .     S
C771   H789    1.084   .     S
C771   C793    1.397   .     A
C771   C831    1.370   .     S
C772   H790    1.084   .     S
C772   C794    1.397   .     A
C772   C894    1.370   1_455 S
C773   C791    1.390   .     A
C773   H777    1.084   .     S
C773   C781    1.387   .     A
C774   C792    1.391   .     A
C774   H778    1.084   .     S
C774   C782    1.387   .     A
C775   C783    1.387   .     A
C775   C792    1.390   .     A
C775   H779    1.084   .     S
C776   H780    1.084   .     S
C776   C791    1.390   .     A
C776   C784    1.387   .     A
C781   C785    1.414   .     A
C781   N795    1.439   .     S
C782   N798    1.439   .     S
C782   C786    1.414   .     A
C783   C786    1.414   .     A
C783   N801    1.439   .     S
C784   N804    1.439   .     S
C784   C785    1.414   .     A
C792   C233    1.432   1_556 S
N795   O796    1.301   .     A
N795   O797    1.301   .     A
N798   O800    1.302   .     A
N798   O799    1.301   .     A
N801   O802    1.301   .     A
N801   O803    1.302   .     A
N804   O806    1.301   .     A
N804   O805    1.301   .     A
O807   Zn821   2.000   .     S
O807   C813    1.282   .     A
O808   Zn822   2.000   .     S
O808   C814    1.282   .     A
O809   Zn821   2.000   .     S
O809   C814    1.282   .     A
O810   Zn822   2.000   .     S
O810   C813    1.282   .     A
N811   C830    1.366   .     A
N811   Zn821   2.008   .     S
N811   C828    1.366   .     A
N812   C829    1.366   .     A
N812   Zn822   2.008   .     S
N812   C827    1.366   .     A
C813   C856    1.419   .     S
C814   C855    1.419   .     S
O815   Zn821   1.996   .     S
O815   C819    1.285   .     A
O816   Zn822   1.996   .     S
O816   C820    1.285   .     A
O817   Zn821   1.996   .     S
O817   C820    1.285   .     A
O818   Zn822   1.996   .     S
O818   C819    1.285   .     A
C819   C847    1.436   .     S
C820   C848    1.436   .     S
H823   C827    1.082   .     S
H824   C828    1.082   .     S
H825   C829    1.082   .     S
H826   C830    1.082   .     S
C828   C1015   1.416   .     S
C830   C1013   1.416   .     S
C831   H849    1.084   .     S
C831   C856    1.397   .     A
C832   H850    1.084   .     S
C832   C855    1.397   .     A
C832   C896    1.370   .     S
C833   H851    1.084   .     S
C833   C855    1.397   .     A
C833   C893    1.370   .     S
C834   H852    1.084   .     S
C834   C856    1.397   .     A
C835   C853    1.390   .     A
C835   H839    1.084   .     S
C835   C843    1.387   .     A
C836   C854    1.391   .     A
C836   H840    1.084   .     S
C836   C844    1.387   .     A
C837   C845    1.387   .     A
C837   C854    1.390   .     A
C837   H841    1.084   .     S
C838   H842    1.084   .     S
C838   C853    1.390   .     A
C838   C846    1.387   .     A
C843   C847    1.414   .     A
C843   N857    1.439   .     S
C844   N860    1.439   .     S
C844   C848    1.414   .     A
C845   C848    1.414   .     A
C845   N863    1.439   .     S
C846   N866    1.439   .     S
C846   C847    1.414   .     A
C854   C295    1.432   1_556 S
N857   O858    1.301   .     A
N857   O859    1.301   .     A
N860   O862    1.302   .     A
N860   O861    1.301   .     A
N863   O864    1.301   .     A
N863   O865    1.302   .     A
N866   O868    1.301   .     A
N866   O867    1.301   .     A
O869   Zn883   2.000   .     S
O869   C875    1.282   .     A
O870   Zn884   2.000   .     S
O870   C876    1.282   .     A
O871   Zn883   2.000   .     S
O871   C876    1.282   .     A
O872   Zn884   2.000   .     S
O872   C875    1.282   .     A
N873   C892    1.366   .     A
N873   Zn883   2.008   .     S
N873   C890    1.366   .     A
N874   C891    1.366   .     A
N874   Zn884   2.008   .     S
N874   C889    1.366   .     A
C875   C918    1.419   .     S
C876   C917    1.419   .     S
O877   Zn883   1.996   .     S
O877   C881    1.285   .     A
O878   Zn884   1.996   .     S
O878   C882    1.285   .     A
O879   Zn883   1.996   .     S
O879   C882    1.285   .     A
O880   Zn884   1.996   .     S
O880   C881    1.285   .     A
C881   C909    1.436   .     S
C882   C910    1.436   .     S
H885   C889    1.082   .     S
H886   C890    1.082   .     S
H887   C891    1.082   .     S
H888   C892    1.082   .     S
C890   C1077   1.416   .     S
C892   C1075   1.416   .     S
C893   H911    1.084   .     S
C893   C918    1.397   .     A
C894   H912    1.084   .     S
C894   C917    1.397   .     A
C894   C772    1.370   1_655 S
C895   H913    1.084   .     S
C895   C917    1.397   .     A
C895   C769    1.370   1_655 S
C896   H914    1.084   .     S
C896   C918    1.397   .     A
C897   C915    1.390   .     A
C897   H901    1.084   .     S
C897   C905    1.387   .     A
C898   C916    1.391   .     A
C898   H902    1.084   .     S
C898   C906    1.387   .     A
C899   C907    1.387   .     A
C899   C916    1.390   .     A
C899   H903    1.084   .     S
C900   H904    1.084   .     S
C900   C915    1.390   .     A
C900   C908    1.387   .     A
C905   C909    1.414   .     A
C905   N919    1.439   .     S
C906   N922    1.439   .     S
C906   C910    1.414   .     A
C907   C910    1.414   .     A
C907   N925    1.439   .     S
C908   N928    1.439   .     S
C908   C909    1.414   .     A
C916   C357    1.432   1_556 S
N919   O920    1.301   .     A
N919   O921    1.301   .     A
N922   O924    1.302   .     A
N922   O923    1.301   .     A
N925   O926    1.301   .     A
N925   O927    1.302   .     A
N928   O930    1.301   .     A
N928   O929    1.301   .     A
O931   Zn945   2.000   .     S
O931   C937    1.282   .     A
O932   Zn946   2.000   .     S
O932   C938    1.282   .     A
O933   Zn945   2.000   .     S
O933   C938    1.282   .     A
O934   Zn946   2.000   .     S
O934   C937    1.282   .     A
N935   C954    1.366   .     A
N935   Zn945   2.008   .     S
N935   C952    1.366   .     A
N936   C953    1.366   .     A
N936   Zn946   2.008   .     S
N936   C951    1.366   .     A
C937   C980    1.419   .     S
C938   C979    1.419   .     S
O939   Zn945   1.996   .     S
O939   C943    1.285   .     A
O940   Zn946   1.996   .     S
O940   C944    1.285   .     A
O941   Zn945   1.996   .     S
O941   C944    1.285   .     A
O942   Zn946   1.996   .     S
O942   C943    1.285   .     A
C943   C971    1.436   .     S
C944   C972    1.436   .     S
H947   C951    1.082   .     S
H948   C952    1.082   .     S
H949   C953    1.082   .     S
H950   C954    1.082   .     S
C952   C581    1.416   1_565 S
C954   C579    1.416   1_565 S
C955   H973    1.084   .     S
C955   C980    1.397   .     A
C955   C1081   1.370   1_455 S
C956   H974    1.084   .     S
C956   C979    1.397   .     A
C956   C1020   1.370   .     S
C957   H975    1.084   .     S
C957   C979    1.397   .     A
C957   C1017   1.370   .     S
C958   H976    1.084   .     S
C958   C980    1.397   .     A
C958   C1080   1.370   1_455 S
C959   C977    1.390   .     A
C959   H963    1.084   .     S
C959   C967    1.387   .     A
C960   C978    1.391   .     A
C960   H964    1.084   .     S
C960   C968    1.387   .     A
C961   C969    1.387   .     A
C961   C978    1.390   .     A
C961   H965    1.084   .     S
C962   H966    1.084   .     S
C962   C977    1.390   .     A
C962   C970    1.387   .     A
C967   C971    1.414   .     A
C967   N981    1.439   .     S
C968   N984    1.439   .     S
C968   C972    1.414   .     A
C969   C972    1.414   .     A
C969   N987    1.439   .     S
C970   N990    1.439   .     S
C970   C971    1.414   .     A
C978   C419    1.432   1_556 S
N981   O982    1.301   .     A
N981   O983    1.301   .     A
N984   O986    1.302   .     A
N984   O985    1.301   .     A
N987   O988    1.301   .     A
N987   O989    1.302   .     A
N990   O992    1.301   .     A
N990   O991    1.301   .     A
O993   Zn1007  2.000   .     S
O993   C999    1.282   .     A
O994   Zn1008  2.000   .     S
O994   C1000   1.282   .     A
O995   Zn1007  2.000   .     S
O995   C1000   1.282   .     A
O996   Zn1008  2.000   .     S
O996   C999    1.282   .     A
N997   C1016   1.366   .     A
N997   Zn1007  2.008   .     S
N997   C1014   1.366   .     A
N998   C1015   1.366   .     A
N998   Zn1008  2.008   .     S
N998   C1013   1.366   .     A
C999   C1042   1.419   .     S
C1000  C1041   1.419   .     S
O1001  Zn1007  1.996   .     S
O1001  C1005   1.285   .     A
O1002  Zn1008  1.996   .     S
O1002  C1006   1.285   .     A
O1003  Zn1007  1.996   .     S
O1003  C1006   1.285   .     A
O1004  Zn1008  1.996   .     S
O1004  C1005   1.285   .     A
C1005  C1033   1.436   .     S
C1006  C1034   1.436   .     S
H1009  C1013   1.082   .     S
H1010  C1014   1.082   .     S
H1011  C1015   1.082   .     S
H1012  C1016   1.082   .     S
C1014  C643    1.416   1_565 S
C1016  C641    1.416   1_565 S
C1017  H1035   1.084   .     S
C1017  C1042   1.397   .     A
C1018  H1036   1.084   .     S
C1018  C1041   1.397   .     A
C1018  C1082   1.370   .     S
C1019  H1037   1.084   .     S
C1019  C1041   1.397   .     A
C1019  C1079   1.370   .     S
C1020  H1038   1.084   .     S
C1020  C1042   1.397   .     A
C1021  C1039   1.390   .     A
C1021  H1025   1.084   .     S
C1021  C1029   1.387   .     A
C1022  C1040   1.391   .     A
C1022  H1026   1.084   .     S
C1022  C1030   1.387   .     A
C1023  C1031   1.387   .     A
C1023  C1040   1.390   .     A
C1023  H1027   1.084   .     S
C1024  H1028   1.084   .     S
C1024  C1039   1.390   .     A
C1024  C1032   1.387   .     A
C1029  C1033   1.414   .     A
C1029  N1043   1.439   .     S
C1030  N1046   1.439   .     S
C1030  C1034   1.414   .     A
C1031  C1034   1.414   .     A
C1031  N1049   1.439   .     S
C1032  N1052   1.439   .     S
C1032  C1033   1.414   .     A
C1040  C481    1.432   1_556 S
N1043  O1044   1.301   .     A
N1043  O1045   1.301   .     A
N1046  O1048   1.302   .     A
N1046  O1047   1.301   .     A
N1049  O1050   1.301   .     A
N1049  O1051   1.302   .     A
N1052  O1054   1.301   .     A
N1052  O1053   1.301   .     A
O1055  Zn1069  2.000   .     S
O1055  C1061   1.282   .     A
O1056  Zn1070  2.000   .     S
O1056  C1062   1.282   .     A
O1057  Zn1069  2.000   .     S
O1057  C1062   1.282   .     A
O1058  Zn1070  2.000   .     S
O1058  C1061   1.282   .     A
N1059  C1078   1.366   .     A
N1059  Zn1069  2.008   .     S
N1059  C1076   1.366   .     A
N1060  C1077   1.366   .     A
N1060  Zn1070  2.008   .     S
N1060  C1075   1.366   .     A
C1061  C1104   1.419   .     S
C1062  C1103   1.419   .     S
O1063  Zn1069  1.996   .     S
O1063  C1067   1.285   .     A
O1064  Zn1070  1.996   .     S
O1064  C1068   1.285   .     A
O1065  Zn1069  1.996   .     S
O1065  C1068   1.285   .     A
O1066  Zn1070  1.996   .     S
O1066  C1067   1.285   .     A
C1067  C1095   1.436   .     S
C1068  C1096   1.436   .     S
H1071  C1075   1.082   .     S
H1072  C1076   1.082   .     S
H1073  C1077   1.082   .     S
H1074  C1078   1.082   .     S
C1076  C705    1.416   1_565 S
C1078  C703    1.416   1_565 S
C1079  H1097   1.084   .     S
C1079  C1104   1.397   .     A
C1080  H1098   1.084   .     S
C1080  C1103   1.397   .     A
C1080  C958    1.370   1_655 S
C1081  H1099   1.084   .     S
C1081  C1103   1.397   .     A
C1081  C955    1.370   1_655 S
C1082  H1100   1.084   .     S
C1082  C1104   1.397   .     A
C1083  C1101   1.390   .     A
C1083  H1087   1.084   .     S
C1083  C1091   1.387   .     A
C1084  C1102   1.391   .     A
C1084  H1088   1.084   .     S
C1084  C1092   1.387   .     A
C1085  C1093   1.387   .     A
C1085  C1102   1.390   .     A
C1085  H1089   1.084   .     S
C1086  H1090   1.084   .     S
C1086  C1101   1.390   .     A
C1086  C1094   1.387   .     A
C1091  C1095   1.414   .     A
C1091  N1105   1.439   .     S
C1092  N1108   1.439   .     S
C1092  C1096   1.414   .     A
C1093  C1096   1.414   .     A
C1093  N1111   1.439   .     S
C1094  N1114   1.439   .     S
C1094  C1095   1.414   .     A
C1102  C543    1.432   1_556 S
N1105  O1106   1.301   .     A
N1105  O1107   1.301   .     A
N1108  O1110   1.302   .     A
N1108  O1109   1.301   .     A
N1111  O1112   1.301   .     A
N1111  O1113   1.302   .     A
N1114  O1116   1.301   .     A
N1114  O1115   1.301   .     A
