data_str_m3_o10_o16_pcu_sym.19
_audit_creation_date              2020-01-03
_audit_creation_method            'Materials Studio'
_symmetry_space_group_name_H-M    'P1'
_symmetry_Int_Tables_number       1
_symmetry_cell_setting            triclinic
loop_
_symmetry_equiv_pos_as_xyz
  x,y,z
_cell_length_a                    23.5511
_cell_length_b                    25.6883
_cell_length_c                    24.4146
_cell_angle_alpha                 92.7842
_cell_angle_beta                  101.3244
_cell_angle_gamma                 93.8202
loop_
_atom_site_label
_atom_site_type_symbol
_atom_site_fract_x
_atom_site_fract_y
_atom_site_fract_z
_atom_site_U_iso_or_equiv
_atom_site_adp_type
_atom_site_occupancy
C1     C     0.01476   0.26485   0.24859   0.00000  Uiso   1.00
C2     C     0.05613   0.17511   0.41526   0.00000  Uiso   1.00
C3     C     0.02270   0.31940   0.24819   0.00000  Uiso   1.00
C4     C     0.03563   0.16846   0.35501   0.00000  Uiso   1.00
C5     C     0.31061   0.01396   0.25055   0.00000  Uiso   1.00
C6     C     0.31853   0.06850   0.25105   0.00000  Uiso   1.00
C7     C     0.29763   0.16351   0.14509   0.00000  Uiso   1.00
C8     C     0.28111   0.11720   0.49539   0.00000  Uiso   1.00
C9     C     0.27871   0.15940   0.08503   0.00000  Uiso   1.00
C10    C     0.03027   0.21109   0.44553   0.00000  Uiso   1.00
C11    C     0.06280   0.23774   0.49335   0.00000  Uiso   1.00
C12    C     0.14407   0.18489   0.48703   0.00000  Uiso   1.00
C13    C     0.12094   0.22842   0.01158   0.00000  Uiso   1.00
C14    C     0.20782   0.25328   0.32128   0.00000  Uiso   1.00
C15    C     0.11059   0.15794   0.43844   0.00000  Uiso   1.00
C16    C     0.19931   0.16746   0.00790   0.00000  Uiso   1.00
C17    C     0.22485   0.13182   0.47542   0.00000  Uiso   1.00
C18    C     0.19147   0.10679   0.42696   0.00000  Uiso   1.00
C19    C     0.13362   0.11659   0.41143   0.00000  Uiso   1.00
C20    C     0.22549   0.17790   0.06344   0.00000  Uiso   1.00
C21    C     0.30868   0.13191   0.05026   0.00000  Uiso   1.00
H22    H     0.01720   0.11770   0.06674   0.00000  Uiso   1.00
H23    H     0.06581   0.00312   0.24652   0.00000  Uiso   1.00
H24    H     0.20245   0.27657   0.28373   0.00000  Uiso   1.00
H25    H     0.25389   0.24756   0.33843   0.00000  Uiso   1.00
H26    H     0.19158   0.27602   0.35401   0.00000  Uiso   1.00
H27    H     0.26750   0.33033   0.25167   0.00000  Uiso   1.00
H28    H     0.15558   0.12931   0.20374   0.00000  Uiso   1.00
H29    H     0.20875   0.07690   0.40344   0.00000  Uiso   1.00
H30    H     0.30188   0.09157   0.47013   0.00000  Uiso   1.00
H31    H     0.20140   0.19539   0.09184   0.00000  Uiso   1.00
H32    H     0.32104   0.22362   0.42851   0.00000  Uiso   1.00
H33    H     0.04450   0.26977   0.01258   0.00000  Uiso   1.00
H34    H     0.10736   0.09247   0.37683   0.00000  Uiso   1.00
I35    I     0.17072   0.29226   0.06254   0.00000  Uiso   1.00
N36    N     0.14493   0.15223   0.23543   0.00000  Uiso   1.00
N37    N     0.18840   0.18110   0.26458   0.00000  Uiso   1.00
O38    O     0.29769   0.24629   0.25358   0.00000  Uiso   1.00
O39    O     0.05742   0.23704   0.24424   0.00000  Uiso   1.00
O40    O     0.31490   0.17358   0.33380   0.00000  Uiso   1.00
O41    O     0.07463   0.16433   0.32446   0.00000  Uiso   1.00
O42    O     0.27592   0.09629   0.25577   0.00000  Uiso   1.00
O43    O     0.03565   0.08704   0.24643   0.00000  Uiso   1.00
O44    O     0.25870   0.16901   0.17554   0.00000  Uiso   1.00
O45    O     0.01843   0.15976   0.16620   0.00000  Uiso   1.00
O46    O     0.17445   0.20547   0.30965   0.00000  Uiso   1.00
Zn47   Zn    0.27119   0.17284   0.25624   0.00000  Uiso   1.00
Zn48   Zn    0.06214   0.16049   0.24377   0.00000  Uiso   1.00
C49    C     0.34809   0.26485   0.24859   0.00000  Uiso   1.00
C50    C     0.38946   0.17511   0.41526   0.00000  Uiso   1.00
C51    C     0.35603   0.31940   0.24819   0.00000  Uiso   1.00
C52    C     0.36896   0.16846   0.35501   0.00000  Uiso   1.00
C53    C     0.64394   0.01396   0.25055   0.00000  Uiso   1.00
C54    C     0.65187   0.06850   0.25105   0.00000  Uiso   1.00
C55    C     0.63097   0.16351   0.14509   0.00000  Uiso   1.00
C56    C     0.61445   0.11720   0.49539   0.00000  Uiso   1.00
C57    C     0.61204   0.15940   0.08503   0.00000  Uiso   1.00
C58    C     0.36360   0.21109   0.44553   0.00000  Uiso   1.00
C59    C     0.39614   0.23774   0.49335   0.00000  Uiso   1.00
C60    C     0.47741   0.18489   0.48703   0.00000  Uiso   1.00
C61    C     0.45428   0.22842   0.01158   0.00000  Uiso   1.00
C62    C     0.54115   0.25328   0.32128   0.00000  Uiso   1.00
C63    C     0.44392   0.15794   0.43844   0.00000  Uiso   1.00
C64    C     0.53264   0.16746   0.00790   0.00000  Uiso   1.00
C65    C     0.55818   0.13182   0.47542   0.00000  Uiso   1.00
C66    C     0.52480   0.10679   0.42696   0.00000  Uiso   1.00
C67    C     0.46696   0.11659   0.41143   0.00000  Uiso   1.00
C68    C     0.55882   0.17790   0.06344   0.00000  Uiso   1.00
C69    C     0.64201   0.13191   0.05026   0.00000  Uiso   1.00
H70    H     0.35054   0.11770   0.06674   0.00000  Uiso   1.00
H71    H     0.39915   0.00312   0.24652   0.00000  Uiso   1.00
H72    H     0.53579   0.27657   0.28373   0.00000  Uiso   1.00
H73    H     0.58722   0.24756   0.33843   0.00000  Uiso   1.00
H74    H     0.52491   0.27602   0.35401   0.00000  Uiso   1.00
H75    H     0.60083   0.33033   0.25167   0.00000  Uiso   1.00
H76    H     0.48891   0.12931   0.20374   0.00000  Uiso   1.00
H77    H     0.54208   0.07690   0.40344   0.00000  Uiso   1.00
H78    H     0.63522   0.09157   0.47013   0.00000  Uiso   1.00
H79    H     0.53474   0.19539   0.09184   0.00000  Uiso   1.00
H80    H     0.65437   0.22362   0.42851   0.00000  Uiso   1.00
H81    H     0.37783   0.26977   0.01258   0.00000  Uiso   1.00
H82    H     0.44069   0.09247   0.37683   0.00000  Uiso   1.00
I83    I     0.50406   0.29226   0.06254   0.00000  Uiso   1.00
N84    N     0.47827   0.15223   0.23543   0.00000  Uiso   1.00
N85    N     0.52173   0.18110   0.26458   0.00000  Uiso   1.00
O86    O     0.63102   0.24629   0.25358   0.00000  Uiso   1.00
O87    O     0.39075   0.23704   0.24424   0.00000  Uiso   1.00
O88    O     0.64823   0.17358   0.33380   0.00000  Uiso   1.00
O89    O     0.40796   0.16433   0.32446   0.00000  Uiso   1.00
O90    O     0.60925   0.09629   0.25577   0.00000  Uiso   1.00
O91    O     0.36898   0.08704   0.24643   0.00000  Uiso   1.00
O92    O     0.59204   0.16901   0.17554   0.00000  Uiso   1.00
O93    O     0.35177   0.15976   0.16620   0.00000  Uiso   1.00
O94    O     0.50778   0.20547   0.30965   0.00000  Uiso   1.00
Zn95   Zn    0.60453   0.17284   0.25624   0.00000  Uiso   1.00
Zn96   Zn    0.39547   0.16049   0.24377   0.00000  Uiso   1.00
C97    C     0.68142   0.26485   0.24859   0.00000  Uiso   1.00
C98    C     0.72279   0.17511   0.41526   0.00000  Uiso   1.00
C99    C     0.68936   0.31940   0.24819   0.00000  Uiso   1.00
C100   C     0.70229   0.16846   0.35501   0.00000  Uiso   1.00
C101   C     0.97727   0.01396   0.25055   0.00000  Uiso   1.00
C102   C     0.98520   0.06850   0.25105   0.00000  Uiso   1.00
C103   C     0.96430   0.16351   0.14509   0.00000  Uiso   1.00
C104   C     0.94778   0.11720   0.49539   0.00000  Uiso   1.00
C105   C     0.94537   0.15940   0.08503   0.00000  Uiso   1.00
C106   C     0.69693   0.21109   0.44553   0.00000  Uiso   1.00
C107   C     0.72947   0.23774   0.49335   0.00000  Uiso   1.00
C108   C     0.81074   0.18489   0.48703   0.00000  Uiso   1.00
C109   C     0.78761   0.22842   0.01158   0.00000  Uiso   1.00
C110   C     0.87449   0.25328   0.32128   0.00000  Uiso   1.00
C111   C     0.77726   0.15794   0.43844   0.00000  Uiso   1.00
C112   C     0.86597   0.16746   0.00790   0.00000  Uiso   1.00
C113   C     0.89151   0.13182   0.47542   0.00000  Uiso   1.00
C114   C     0.85813   0.10679   0.42696   0.00000  Uiso   1.00
C115   C     0.80029   0.11659   0.41143   0.00000  Uiso   1.00
C116   C     0.89216   0.17790   0.06344   0.00000  Uiso   1.00
C117   C     0.97535   0.13191   0.05026   0.00000  Uiso   1.00
H118   H     0.68387   0.11770   0.06674   0.00000  Uiso   1.00
H119   H     0.73248   0.00312   0.24652   0.00000  Uiso   1.00
H120   H     0.86912   0.27657   0.28373   0.00000  Uiso   1.00
H121   H     0.92056   0.24756   0.33843   0.00000  Uiso   1.00
H122   H     0.85824   0.27602   0.35401   0.00000  Uiso   1.00
H123   H     0.93416   0.33033   0.25167   0.00000  Uiso   1.00
H124   H     0.82225   0.12931   0.20374   0.00000  Uiso   1.00
H125   H     0.87542   0.07690   0.40344   0.00000  Uiso   1.00
H126   H     0.96855   0.09157   0.47013   0.00000  Uiso   1.00
H127   H     0.86807   0.19539   0.09184   0.00000  Uiso   1.00
H128   H     0.98771   0.22362   0.42851   0.00000  Uiso   1.00
H129   H     0.71116   0.26977   0.01258   0.00000  Uiso   1.00
H130   H     0.77403   0.09247   0.37683   0.00000  Uiso   1.00
I131   I     0.83739   0.29226   0.06254   0.00000  Uiso   1.00
N132   N     0.81160   0.15223   0.23543   0.00000  Uiso   1.00
N133   N     0.85507   0.18110   0.26458   0.00000  Uiso   1.00
O134   O     0.96435   0.24629   0.25358   0.00000  Uiso   1.00
O135   O     0.72408   0.23704   0.24424   0.00000  Uiso   1.00
O136   O     0.98157   0.17358   0.33380   0.00000  Uiso   1.00
O137   O     0.74130   0.16433   0.32446   0.00000  Uiso   1.00
O138   O     0.94258   0.09629   0.25577   0.00000  Uiso   1.00
O139   O     0.70231   0.08704   0.24643   0.00000  Uiso   1.00
O140   O     0.92537   0.16901   0.17554   0.00000  Uiso   1.00
O141   O     0.68510   0.15976   0.16620   0.00000  Uiso   1.00
O142   O     0.84112   0.20547   0.30965   0.00000  Uiso   1.00
Zn143  Zn    0.93786   0.17284   0.25624   0.00000  Uiso   1.00
Zn144  Zn    0.72881   0.16049   0.24377   0.00000  Uiso   1.00
C145   C     0.01476   0.59818   0.24859   0.00000  Uiso   1.00
C146   C     0.05613   0.50845   0.41526   0.00000  Uiso   1.00
C147   C     0.02270   0.65273   0.24819   0.00000  Uiso   1.00
C148   C     0.03563   0.50179   0.35501   0.00000  Uiso   1.00
C149   C     0.31061   0.34729   0.25055   0.00000  Uiso   1.00
C150   C     0.31853   0.40183   0.25105   0.00000  Uiso   1.00
C151   C     0.29763   0.49684   0.14509   0.00000  Uiso   1.00
C152   C     0.28111   0.45053   0.49539   0.00000  Uiso   1.00
C153   C     0.27871   0.49274   0.08503   0.00000  Uiso   1.00
C154   C     0.03027   0.54442   0.44553   0.00000  Uiso   1.00
C155   C     0.06280   0.57107   0.49335   0.00000  Uiso   1.00
C156   C     0.14407   0.51823   0.48703   0.00000  Uiso   1.00
C157   C     0.12094   0.56175   0.01158   0.00000  Uiso   1.00
C158   C     0.20782   0.58661   0.32128   0.00000  Uiso   1.00
C159   C     0.11059   0.49127   0.43844   0.00000  Uiso   1.00
C160   C     0.19931   0.50080   0.00790   0.00000  Uiso   1.00
C161   C     0.22485   0.46515   0.47542   0.00000  Uiso   1.00
C162   C     0.19147   0.44012   0.42696   0.00000  Uiso   1.00
C163   C     0.13362   0.44992   0.41143   0.00000  Uiso   1.00
C164   C     0.22549   0.51124   0.06344   0.00000  Uiso   1.00
C165   C     0.30868   0.46524   0.05026   0.00000  Uiso   1.00
H166   H     0.01720   0.45104   0.06674   0.00000  Uiso   1.00
H167   H     0.06581   0.33645   0.24652   0.00000  Uiso   1.00
H168   H     0.20245   0.60990   0.28373   0.00000  Uiso   1.00
H169   H     0.25389   0.58089   0.33843   0.00000  Uiso   1.00
H170   H     0.19158   0.60936   0.35401   0.00000  Uiso   1.00
H171   H     0.26750   0.66367   0.25167   0.00000  Uiso   1.00
H172   H     0.15558   0.46265   0.20374   0.00000  Uiso   1.00
H173   H     0.20875   0.41024   0.40344   0.00000  Uiso   1.00
H174   H     0.30188   0.42490   0.47013   0.00000  Uiso   1.00
H175   H     0.20140   0.52872   0.09184   0.00000  Uiso   1.00
H176   H     0.32104   0.55695   0.42851   0.00000  Uiso   1.00
H177   H     0.04450   0.60310   0.01258   0.00000  Uiso   1.00
H178   H     0.10736   0.42580   0.37683   0.00000  Uiso   1.00
I179   I     0.17072   0.62560   0.06254   0.00000  Uiso   1.00
N180   N     0.14493   0.48556   0.23543   0.00000  Uiso   1.00
N181   N     0.18840   0.51444   0.26458   0.00000  Uiso   1.00
O182   O     0.29769   0.57963   0.25358   0.00000  Uiso   1.00
O183   O     0.05742   0.57038   0.24424   0.00000  Uiso   1.00
O184   O     0.31490   0.50691   0.33380   0.00000  Uiso   1.00
O185   O     0.07463   0.49766   0.32446   0.00000  Uiso   1.00
O186   O     0.27592   0.42962   0.25577   0.00000  Uiso   1.00
O187   O     0.03565   0.42037   0.24643   0.00000  Uiso   1.00
O188   O     0.25870   0.50234   0.17554   0.00000  Uiso   1.00
O189   O     0.01843   0.49309   0.16620   0.00000  Uiso   1.00
O190   O     0.17445   0.53881   0.30965   0.00000  Uiso   1.00
Zn191  Zn    0.27119   0.50618   0.25624   0.00000  Uiso   1.00
Zn192  Zn    0.06214   0.49382   0.24377   0.00000  Uiso   1.00
C193   C     0.34809   0.59818   0.24859   0.00000  Uiso   1.00
C194   C     0.38946   0.50845   0.41526   0.00000  Uiso   1.00
C195   C     0.35603   0.65273   0.24819   0.00000  Uiso   1.00
C196   C     0.36896   0.50179   0.35501   0.00000  Uiso   1.00
C197   C     0.64394   0.34729   0.25055   0.00000  Uiso   1.00
C198   C     0.65187   0.40183   0.25105   0.00000  Uiso   1.00
C199   C     0.63097   0.49684   0.14509   0.00000  Uiso   1.00
C200   C     0.61445   0.45053   0.49539   0.00000  Uiso   1.00
C201   C     0.61204   0.49274   0.08503   0.00000  Uiso   1.00
C202   C     0.36360   0.54442   0.44553   0.00000  Uiso   1.00
C203   C     0.39614   0.57107   0.49335   0.00000  Uiso   1.00
C204   C     0.47741   0.51823   0.48703   0.00000  Uiso   1.00
C205   C     0.45428   0.56175   0.01158   0.00000  Uiso   1.00
C206   C     0.54115   0.58661   0.32128   0.00000  Uiso   1.00
C207   C     0.44392   0.49127   0.43844   0.00000  Uiso   1.00
C208   C     0.53264   0.50080   0.00790   0.00000  Uiso   1.00
C209   C     0.55818   0.46515   0.47542   0.00000  Uiso   1.00
C210   C     0.52480   0.44012   0.42696   0.00000  Uiso   1.00
C211   C     0.46696   0.44992   0.41143   0.00000  Uiso   1.00
C212   C     0.55882   0.51124   0.06344   0.00000  Uiso   1.00
C213   C     0.64201   0.46524   0.05026   0.00000  Uiso   1.00
H214   H     0.35054   0.45104   0.06674   0.00000  Uiso   1.00
H215   H     0.39915   0.33645   0.24652   0.00000  Uiso   1.00
H216   H     0.53579   0.60990   0.28373   0.00000  Uiso   1.00
H217   H     0.58722   0.58089   0.33843   0.00000  Uiso   1.00
H218   H     0.52491   0.60936   0.35401   0.00000  Uiso   1.00
H219   H     0.60083   0.66367   0.25167   0.00000  Uiso   1.00
H220   H     0.48891   0.46265   0.20374   0.00000  Uiso   1.00
H221   H     0.54208   0.41024   0.40344   0.00000  Uiso   1.00
H222   H     0.63522   0.42490   0.47013   0.00000  Uiso   1.00
H223   H     0.53474   0.52872   0.09184   0.00000  Uiso   1.00
H224   H     0.65437   0.55695   0.42851   0.00000  Uiso   1.00
H225   H     0.37783   0.60310   0.01258   0.00000  Uiso   1.00
H226   H     0.44069   0.42580   0.37683   0.00000  Uiso   1.00
I227   I     0.50406   0.62560   0.06254   0.00000  Uiso   1.00
N228   N     0.47827   0.48556   0.23543   0.00000  Uiso   1.00
N229   N     0.52173   0.51444   0.26458   0.00000  Uiso   1.00
O230   O     0.63102   0.57963   0.25358   0.00000  Uiso   1.00
O231   O     0.39075   0.57038   0.24424   0.00000  Uiso   1.00
O232   O     0.64823   0.50691   0.33380   0.00000  Uiso   1.00
O233   O     0.40796   0.49766   0.32446   0.00000  Uiso   1.00
O234   O     0.60925   0.42962   0.25577   0.00000  Uiso   1.00
O235   O     0.36898   0.42037   0.24643   0.00000  Uiso   1.00
O236   O     0.59204   0.50234   0.17554   0.00000  Uiso   1.00
O237   O     0.35177   0.49309   0.16620   0.00000  Uiso   1.00
O238   O     0.50778   0.53881   0.30965   0.00000  Uiso   1.00
Zn239  Zn    0.60453   0.50618   0.25624   0.00000  Uiso   1.00
Zn240  Zn    0.39547   0.49382   0.24377   0.00000  Uiso   1.00
C241   C     0.68142   0.59818   0.24859   0.00000  Uiso   1.00
C242   C     0.72279   0.50845   0.41526   0.00000  Uiso   1.00
C243   C     0.68936   0.65273   0.24819   0.00000  Uiso   1.00
C244   C     0.70229   0.50179   0.35501   0.00000  Uiso   1.00
C245   C     0.97727   0.34729   0.25055   0.00000  Uiso   1.00
C246   C     0.98520   0.40183   0.25105   0.00000  Uiso   1.00
C247   C     0.96430   0.49684   0.14509   0.00000  Uiso   1.00
C248   C     0.94778   0.45053   0.49539   0.00000  Uiso   1.00
C249   C     0.94537   0.49274   0.08503   0.00000  Uiso   1.00
C250   C     0.69693   0.54442   0.44553   0.00000  Uiso   1.00
C251   C     0.72947   0.57107   0.49335   0.00000  Uiso   1.00
C252   C     0.81074   0.51823   0.48703   0.00000  Uiso   1.00
C253   C     0.78761   0.56175   0.01158   0.00000  Uiso   1.00
C254   C     0.87449   0.58661   0.32128   0.00000  Uiso   1.00
C255   C     0.77726   0.49127   0.43844   0.00000  Uiso   1.00
C256   C     0.86597   0.50080   0.00790   0.00000  Uiso   1.00
C257   C     0.89151   0.46515   0.47542   0.00000  Uiso   1.00
C258   C     0.85813   0.44012   0.42696   0.00000  Uiso   1.00
C259   C     0.80029   0.44992   0.41143   0.00000  Uiso   1.00
C260   C     0.89216   0.51124   0.06344   0.00000  Uiso   1.00
C261   C     0.97535   0.46524   0.05026   0.00000  Uiso   1.00
H262   H     0.68387   0.45104   0.06674   0.00000  Uiso   1.00
H263   H     0.73248   0.33645   0.24652   0.00000  Uiso   1.00
H264   H     0.86912   0.60990   0.28373   0.00000  Uiso   1.00
H265   H     0.92056   0.58089   0.33843   0.00000  Uiso   1.00
H266   H     0.85824   0.60936   0.35401   0.00000  Uiso   1.00
H267   H     0.93416   0.66367   0.25167   0.00000  Uiso   1.00
H268   H     0.82225   0.46265   0.20374   0.00000  Uiso   1.00
H269   H     0.87542   0.41024   0.40344   0.00000  Uiso   1.00
H270   H     0.96855   0.42490   0.47013   0.00000  Uiso   1.00
H271   H     0.86807   0.52872   0.09184   0.00000  Uiso   1.00
H272   H     0.98771   0.55695   0.42851   0.00000  Uiso   1.00
H273   H     0.71116   0.60310   0.01258   0.00000  Uiso   1.00
H274   H     0.77403   0.42580   0.37683   0.00000  Uiso   1.00
I275   I     0.83739   0.62560   0.06254   0.00000  Uiso   1.00
N276   N     0.81160   0.48556   0.23543   0.00000  Uiso   1.00
N277   N     0.85507   0.51444   0.26458   0.00000  Uiso   1.00
O278   O     0.96435   0.57963   0.25358   0.00000  Uiso   1.00
O279   O     0.72408   0.57038   0.24424   0.00000  Uiso   1.00
O280   O     0.98157   0.50691   0.33380   0.00000  Uiso   1.00
O281   O     0.74130   0.49766   0.32446   0.00000  Uiso   1.00
O282   O     0.94258   0.42962   0.25577   0.00000  Uiso   1.00
O283   O     0.70231   0.42037   0.24643   0.00000  Uiso   1.00
O284   O     0.92537   0.50234   0.17554   0.00000  Uiso   1.00
O285   O     0.68510   0.49309   0.16620   0.00000  Uiso   1.00
O286   O     0.84112   0.53881   0.30965   0.00000  Uiso   1.00
Zn287  Zn    0.93786   0.50618   0.25624   0.00000  Uiso   1.00
Zn288  Zn    0.72881   0.49382   0.24377   0.00000  Uiso   1.00
C289   C     0.01476   0.93151   0.24859   0.00000  Uiso   1.00
C290   C     0.05613   0.84178   0.41526   0.00000  Uiso   1.00
C291   C     0.02270   0.98606   0.24819   0.00000  Uiso   1.00
C292   C     0.03563   0.83512   0.35501   0.00000  Uiso   1.00
C293   C     0.31061   0.68062   0.25055   0.00000  Uiso   1.00
C294   C     0.31853   0.73516   0.25105   0.00000  Uiso   1.00
C295   C     0.29763   0.83017   0.14509   0.00000  Uiso   1.00
C296   C     0.28111   0.78386   0.49539   0.00000  Uiso   1.00
C297   C     0.27871   0.82607   0.08503   0.00000  Uiso   1.00
C298   C     0.03027   0.87775   0.44553   0.00000  Uiso   1.00
C299   C     0.06280   0.90441   0.49335   0.00000  Uiso   1.00
C300   C     0.14407   0.85156   0.48703   0.00000  Uiso   1.00
C301   C     0.12094   0.89508   0.01158   0.00000  Uiso   1.00
C302   C     0.20782   0.91994   0.32128   0.00000  Uiso   1.00
C303   C     0.11059   0.82460   0.43844   0.00000  Uiso   1.00
C304   C     0.19931   0.83413   0.00790   0.00000  Uiso   1.00
C305   C     0.22485   0.79849   0.47542   0.00000  Uiso   1.00
C306   C     0.19147   0.77346   0.42696   0.00000  Uiso   1.00
C307   C     0.13362   0.78325   0.41143   0.00000  Uiso   1.00
C308   C     0.22549   0.84457   0.06344   0.00000  Uiso   1.00
C309   C     0.30868   0.79858   0.05026   0.00000  Uiso   1.00
H310   H     0.01720   0.78437   0.06674   0.00000  Uiso   1.00
H311   H     0.06581   0.66978   0.24652   0.00000  Uiso   1.00
H312   H     0.20245   0.94323   0.28373   0.00000  Uiso   1.00
H313   H     0.25389   0.91423   0.33843   0.00000  Uiso   1.00
H314   H     0.19158   0.94269   0.35401   0.00000  Uiso   1.00
H315   H     0.26750   0.99700   0.25167   0.00000  Uiso   1.00
H316   H     0.15558   0.79598   0.20374   0.00000  Uiso   1.00
H317   H     0.20875   0.74357   0.40344   0.00000  Uiso   1.00
H318   H     0.30188   0.75823   0.47013   0.00000  Uiso   1.00
H319   H     0.20140   0.86205   0.09184   0.00000  Uiso   1.00
H320   H     0.32104   0.89028   0.42851   0.00000  Uiso   1.00
H321   H     0.04450   0.93644   0.01258   0.00000  Uiso   1.00
H322   H     0.10736   0.75913   0.37683   0.00000  Uiso   1.00
I323   I     0.17072   0.95893   0.06254   0.00000  Uiso   1.00
N324   N     0.14493   0.81890   0.23543   0.00000  Uiso   1.00
N325   N     0.18840   0.84777   0.26458   0.00000  Uiso   1.00
O326   O     0.29769   0.91296   0.25358   0.00000  Uiso   1.00
O327   O     0.05742   0.90371   0.24424   0.00000  Uiso   1.00
O328   O     0.31490   0.84024   0.33380   0.00000  Uiso   1.00
O329   O     0.07463   0.83099   0.32446   0.00000  Uiso   1.00
O330   O     0.27592   0.76296   0.25577   0.00000  Uiso   1.00
O331   O     0.03565   0.75371   0.24643   0.00000  Uiso   1.00
O332   O     0.25870   0.83567   0.17554   0.00000  Uiso   1.00
O333   O     0.01843   0.82642   0.16620   0.00000  Uiso   1.00
O334   O     0.17445   0.87214   0.30965   0.00000  Uiso   1.00
Zn335  Zn    0.27119   0.83951   0.25624   0.00000  Uiso   1.00
Zn336  Zn    0.06214   0.82716   0.24377   0.00000  Uiso   1.00
C337   C     0.34809   0.93151   0.24859   0.00000  Uiso   1.00
C338   C     0.38946   0.84178   0.41526   0.00000  Uiso   1.00
C339   C     0.35603   0.98606   0.24819   0.00000  Uiso   1.00
C340   C     0.36896   0.83512   0.35501   0.00000  Uiso   1.00
C341   C     0.64394   0.68062   0.25055   0.00000  Uiso   1.00
C342   C     0.65187   0.73516   0.25105   0.00000  Uiso   1.00
C343   C     0.63097   0.83017   0.14509   0.00000  Uiso   1.00
C344   C     0.61445   0.78386   0.49539   0.00000  Uiso   1.00
C345   C     0.61204   0.82607   0.08503   0.00000  Uiso   1.00
C346   C     0.36360   0.87775   0.44553   0.00000  Uiso   1.00
C347   C     0.39614   0.90441   0.49335   0.00000  Uiso   1.00
C348   C     0.47741   0.85156   0.48703   0.00000  Uiso   1.00
C349   C     0.45428   0.89508   0.01158   0.00000  Uiso   1.00
C350   C     0.54115   0.91994   0.32128   0.00000  Uiso   1.00
C351   C     0.44392   0.82460   0.43844   0.00000  Uiso   1.00
C352   C     0.53264   0.83413   0.00790   0.00000  Uiso   1.00
C353   C     0.55818   0.79849   0.47542   0.00000  Uiso   1.00
C354   C     0.52480   0.77346   0.42696   0.00000  Uiso   1.00
C355   C     0.46696   0.78325   0.41143   0.00000  Uiso   1.00
C356   C     0.55882   0.84457   0.06344   0.00000  Uiso   1.00
C357   C     0.64201   0.79858   0.05026   0.00000  Uiso   1.00
H358   H     0.35054   0.78437   0.06674   0.00000  Uiso   1.00
H359   H     0.39915   0.66978   0.24652   0.00000  Uiso   1.00
H360   H     0.53579   0.94323   0.28373   0.00000  Uiso   1.00
H361   H     0.58722   0.91423   0.33843   0.00000  Uiso   1.00
H362   H     0.52491   0.94269   0.35401   0.00000  Uiso   1.00
H363   H     0.60083   0.99700   0.25167   0.00000  Uiso   1.00
H364   H     0.48891   0.79598   0.20374   0.00000  Uiso   1.00
H365   H     0.54208   0.74357   0.40344   0.00000  Uiso   1.00
H366   H     0.63522   0.75823   0.47013   0.00000  Uiso   1.00
H367   H     0.53474   0.86205   0.09184   0.00000  Uiso   1.00
H368   H     0.65437   0.89028   0.42851   0.00000  Uiso   1.00
H369   H     0.37783   0.93644   0.01258   0.00000  Uiso   1.00
H370   H     0.44069   0.75913   0.37683   0.00000  Uiso   1.00
I371   I     0.50406   0.95893   0.06254   0.00000  Uiso   1.00
N372   N     0.47827   0.81890   0.23543   0.00000  Uiso   1.00
N373   N     0.52173   0.84777   0.26458   0.00000  Uiso   1.00
O374   O     0.63102   0.91296   0.25358   0.00000  Uiso   1.00
O375   O     0.39075   0.90371   0.24424   0.00000  Uiso   1.00
O376   O     0.64823   0.84024   0.33380   0.00000  Uiso   1.00
O377   O     0.40796   0.83099   0.32446   0.00000  Uiso   1.00
O378   O     0.60925   0.76296   0.25577   0.00000  Uiso   1.00
O379   O     0.36898   0.75371   0.24643   0.00000  Uiso   1.00
O380   O     0.59204   0.83567   0.17554   0.00000  Uiso   1.00
O381   O     0.35177   0.82642   0.16620   0.00000  Uiso   1.00
O382   O     0.50778   0.87214   0.30965   0.00000  Uiso   1.00
Zn383  Zn    0.60453   0.83951   0.25624   0.00000  Uiso   1.00
Zn384  Zn    0.39547   0.82716   0.24377   0.00000  Uiso   1.00
C385   C     0.68142   0.93151   0.24859   0.00000  Uiso   1.00
C386   C     0.72279   0.84178   0.41526   0.00000  Uiso   1.00
C387   C     0.68936   0.98606   0.24819   0.00000  Uiso   1.00
C388   C     0.70229   0.83512   0.35501   0.00000  Uiso   1.00
C389   C     0.97727   0.68062   0.25055   0.00000  Uiso   1.00
C390   C     0.98520   0.73516   0.25105   0.00000  Uiso   1.00
C391   C     0.96430   0.83017   0.14509   0.00000  Uiso   1.00
C392   C     0.94778   0.78386   0.49539   0.00000  Uiso   1.00
C393   C     0.94537   0.82607   0.08503   0.00000  Uiso   1.00
C394   C     0.69693   0.87775   0.44553   0.00000  Uiso   1.00
C395   C     0.72947   0.90441   0.49335   0.00000  Uiso   1.00
C396   C     0.81074   0.85156   0.48703   0.00000  Uiso   1.00
C397   C     0.78761   0.89508   0.01158   0.00000  Uiso   1.00
C398   C     0.87449   0.91994   0.32128   0.00000  Uiso   1.00
C399   C     0.77726   0.82460   0.43844   0.00000  Uiso   1.00
C400   C     0.86597   0.83413   0.00790   0.00000  Uiso   1.00
C401   C     0.89151   0.79849   0.47542   0.00000  Uiso   1.00
C402   C     0.85813   0.77346   0.42696   0.00000  Uiso   1.00
C403   C     0.80029   0.78325   0.41143   0.00000  Uiso   1.00
C404   C     0.89216   0.84457   0.06344   0.00000  Uiso   1.00
C405   C     0.97535   0.79858   0.05026   0.00000  Uiso   1.00
H406   H     0.68387   0.78437   0.06674   0.00000  Uiso   1.00
H407   H     0.73248   0.66978   0.24652   0.00000  Uiso   1.00
H408   H     0.86912   0.94323   0.28373   0.00000  Uiso   1.00
H409   H     0.92056   0.91423   0.33843   0.00000  Uiso   1.00
H410   H     0.85824   0.94269   0.35401   0.00000  Uiso   1.00
H411   H     0.93416   0.99700   0.25167   0.00000  Uiso   1.00
H412   H     0.82225   0.79598   0.20374   0.00000  Uiso   1.00
H413   H     0.87542   0.74357   0.40344   0.00000  Uiso   1.00
H414   H     0.96855   0.75823   0.47013   0.00000  Uiso   1.00
H415   H     0.86807   0.86205   0.09184   0.00000  Uiso   1.00
H416   H     0.98771   0.89028   0.42851   0.00000  Uiso   1.00
H417   H     0.71116   0.93644   0.01258   0.00000  Uiso   1.00
H418   H     0.77403   0.75913   0.37683   0.00000  Uiso   1.00
I419   I     0.83739   0.95893   0.06254   0.00000  Uiso   1.00
N420   N     0.81160   0.81890   0.23543   0.00000  Uiso   1.00
N421   N     0.85507   0.84777   0.26458   0.00000  Uiso   1.00
O422   O     0.96435   0.91296   0.25358   0.00000  Uiso   1.00
O423   O     0.72408   0.90371   0.24424   0.00000  Uiso   1.00
O424   O     0.98157   0.84024   0.33380   0.00000  Uiso   1.00
O425   O     0.74130   0.83099   0.32446   0.00000  Uiso   1.00
O426   O     0.94258   0.76296   0.25577   0.00000  Uiso   1.00
O427   O     0.70231   0.75371   0.24643   0.00000  Uiso   1.00
O428   O     0.92537   0.83567   0.17554   0.00000  Uiso   1.00
O429   O     0.68510   0.82642   0.16620   0.00000  Uiso   1.00
O430   O     0.84112   0.87214   0.30965   0.00000  Uiso   1.00
Zn431  Zn    0.93786   0.83951   0.25624   0.00000  Uiso   1.00
Zn432  Zn    0.72881   0.82716   0.24377   0.00000  Uiso   1.00
C433   C     0.01476   0.26485   0.74859   0.00000  Uiso   1.00
C434   C     0.05613   0.17511   0.91526   0.00000  Uiso   1.00
C435   C     0.02270   0.31940   0.74819   0.00000  Uiso   1.00
C436   C     0.03563   0.16846   0.85501   0.00000  Uiso   1.00
C437   C     0.31061   0.01396   0.75055   0.00000  Uiso   1.00
C438   C     0.31853   0.06850   0.75105   0.00000  Uiso   1.00
C439   C     0.29763   0.16351   0.64509   0.00000  Uiso   1.00
C440   C     0.28111   0.11720   0.99539   0.00000  Uiso   1.00
C441   C     0.27871   0.15940   0.58503   0.00000  Uiso   1.00
C442   C     0.03027   0.21109   0.94553   0.00000  Uiso   1.00
C443   C     0.06280   0.23774   0.99335   0.00000  Uiso   1.00
C444   C     0.14407   0.18489   0.98703   0.00000  Uiso   1.00
C445   C     0.12094   0.22842   0.51158   0.00000  Uiso   1.00
C446   C     0.20782   0.25328   0.82128   0.00000  Uiso   1.00
C447   C     0.11059   0.15794   0.93844   0.00000  Uiso   1.00
C448   C     0.19931   0.16746   0.50790   0.00000  Uiso   1.00
C449   C     0.22485   0.13182   0.97542   0.00000  Uiso   1.00
C450   C     0.19147   0.10679   0.92696   0.00000  Uiso   1.00
C451   C     0.13362   0.11659   0.91143   0.00000  Uiso   1.00
C452   C     0.22549   0.17790   0.56344   0.00000  Uiso   1.00
C453   C     0.30868   0.13191   0.55026   0.00000  Uiso   1.00
H454   H     0.01720   0.11770   0.56674   0.00000  Uiso   1.00
H455   H     0.06581   0.00312   0.74652   0.00000  Uiso   1.00
H456   H     0.20245   0.27657   0.78373   0.00000  Uiso   1.00
H457   H     0.25389   0.24756   0.83843   0.00000  Uiso   1.00
H458   H     0.19158   0.27602   0.85401   0.00000  Uiso   1.00
H459   H     0.26750   0.33033   0.75167   0.00000  Uiso   1.00
H460   H     0.15558   0.12931   0.70374   0.00000  Uiso   1.00
H461   H     0.20875   0.07690   0.90344   0.00000  Uiso   1.00
H462   H     0.30188   0.09157   0.97013   0.00000  Uiso   1.00
H463   H     0.20140   0.19539   0.59184   0.00000  Uiso   1.00
H464   H     0.32104   0.22362   0.92851   0.00000  Uiso   1.00
H465   H     0.04450   0.26977   0.51258   0.00000  Uiso   1.00
H466   H     0.10736   0.09247   0.87683   0.00000  Uiso   1.00
I467   I     0.17072   0.29226   0.56254   0.00000  Uiso   1.00
N468   N     0.14493   0.15223   0.73543   0.00000  Uiso   1.00
N469   N     0.18840   0.18110   0.76458   0.00000  Uiso   1.00
O470   O     0.29769   0.24629   0.75358   0.00000  Uiso   1.00
O471   O     0.05742   0.23704   0.74424   0.00000  Uiso   1.00
O472   O     0.31490   0.17358   0.83380   0.00000  Uiso   1.00
O473   O     0.07463   0.16433   0.82446   0.00000  Uiso   1.00
O474   O     0.27592   0.09629   0.75577   0.00000  Uiso   1.00
O475   O     0.03565   0.08704   0.74643   0.00000  Uiso   1.00
O476   O     0.25870   0.16901   0.67554   0.00000  Uiso   1.00
O477   O     0.01843   0.15976   0.66620   0.00000  Uiso   1.00
O478   O     0.17445   0.20547   0.80965   0.00000  Uiso   1.00
Zn479  Zn    0.27119   0.17284   0.75624   0.00000  Uiso   1.00
Zn480  Zn    0.06214   0.16049   0.74377   0.00000  Uiso   1.00
C481   C     0.34809   0.26485   0.74859   0.00000  Uiso   1.00
C482   C     0.38946   0.17511   0.91526   0.00000  Uiso   1.00
C483   C     0.35603   0.31940   0.74819   0.00000  Uiso   1.00
C484   C     0.36896   0.16846   0.85501   0.00000  Uiso   1.00
C485   C     0.64394   0.01396   0.75055   0.00000  Uiso   1.00
C486   C     0.65187   0.06850   0.75105   0.00000  Uiso   1.00
C487   C     0.63097   0.16351   0.64509   0.00000  Uiso   1.00
C488   C     0.61445   0.11720   0.99539   0.00000  Uiso   1.00
C489   C     0.61204   0.15940   0.58503   0.00000  Uiso   1.00
C490   C     0.36360   0.21109   0.94553   0.00000  Uiso   1.00
C491   C     0.39614   0.23774   0.99335   0.00000  Uiso   1.00
C492   C     0.47741   0.18489   0.98703   0.00000  Uiso   1.00
C493   C     0.45428   0.22842   0.51158   0.00000  Uiso   1.00
C494   C     0.54115   0.25328   0.82128   0.00000  Uiso   1.00
C495   C     0.44392   0.15794   0.93844   0.00000  Uiso   1.00
C496   C     0.53264   0.16746   0.50790   0.00000  Uiso   1.00
C497   C     0.55818   0.13182   0.97542   0.00000  Uiso   1.00
C498   C     0.52480   0.10679   0.92696   0.00000  Uiso   1.00
C499   C     0.46696   0.11659   0.91143   0.00000  Uiso   1.00
C500   C     0.55882   0.17790   0.56344   0.00000  Uiso   1.00
C501   C     0.64201   0.13191   0.55026   0.00000  Uiso   1.00
H502   H     0.35054   0.11770   0.56674   0.00000  Uiso   1.00
H503   H     0.39915   0.00312   0.74652   0.00000  Uiso   1.00
H504   H     0.53579   0.27657   0.78373   0.00000  Uiso   1.00
H505   H     0.58722   0.24756   0.83843   0.00000  Uiso   1.00
H506   H     0.52491   0.27602   0.85401   0.00000  Uiso   1.00
H507   H     0.60083   0.33033   0.75167   0.00000  Uiso   1.00
H508   H     0.48891   0.12931   0.70374   0.00000  Uiso   1.00
H509   H     0.54208   0.07690   0.90344   0.00000  Uiso   1.00
H510   H     0.63522   0.09157   0.97013   0.00000  Uiso   1.00
H511   H     0.53474   0.19539   0.59184   0.00000  Uiso   1.00
H512   H     0.65437   0.22362   0.92851   0.00000  Uiso   1.00
H513   H     0.37783   0.26977   0.51258   0.00000  Uiso   1.00
H514   H     0.44069   0.09247   0.87683   0.00000  Uiso   1.00
I515   I     0.50406   0.29226   0.56254   0.00000  Uiso   1.00
N516   N     0.47827   0.15223   0.73543   0.00000  Uiso   1.00
N517   N     0.52173   0.18110   0.76458   0.00000  Uiso   1.00
O518   O     0.63102   0.24629   0.75358   0.00000  Uiso   1.00
O519   O     0.39075   0.23704   0.74424   0.00000  Uiso   1.00
O520   O     0.64823   0.17358   0.83380   0.00000  Uiso   1.00
O521   O     0.40796   0.16433   0.82446   0.00000  Uiso   1.00
O522   O     0.60925   0.09629   0.75577   0.00000  Uiso   1.00
O523   O     0.36898   0.08704   0.74643   0.00000  Uiso   1.00
O524   O     0.59204   0.16901   0.67554   0.00000  Uiso   1.00
O525   O     0.35177   0.15976   0.66620   0.00000  Uiso   1.00
O526   O     0.50778   0.20547   0.80965   0.00000  Uiso   1.00
Zn527  Zn    0.60453   0.17284   0.75624   0.00000  Uiso   1.00
Zn528  Zn    0.39547   0.16049   0.74377   0.00000  Uiso   1.00
C529   C     0.68142   0.26485   0.74859   0.00000  Uiso   1.00
C530   C     0.72279   0.17511   0.91526   0.00000  Uiso   1.00
C531   C     0.68936   0.31940   0.74819   0.00000  Uiso   1.00
C532   C     0.70229   0.16846   0.85501   0.00000  Uiso   1.00
C533   C     0.97727   0.01396   0.75055   0.00000  Uiso   1.00
C534   C     0.98520   0.06850   0.75105   0.00000  Uiso   1.00
C535   C     0.96430   0.16351   0.64509   0.00000  Uiso   1.00
C536   C     0.94778   0.11720   0.99539   0.00000  Uiso   1.00
C537   C     0.94537   0.15940   0.58503   0.00000  Uiso   1.00
C538   C     0.69693   0.21109   0.94553   0.00000  Uiso   1.00
C539   C     0.72947   0.23774   0.99335   0.00000  Uiso   1.00
C540   C     0.81074   0.18489   0.98703   0.00000  Uiso   1.00
C541   C     0.78761   0.22842   0.51158   0.00000  Uiso   1.00
C542   C     0.87449   0.25328   0.82128   0.00000  Uiso   1.00
C543   C     0.77726   0.15794   0.93844   0.00000  Uiso   1.00
C544   C     0.86597   0.16746   0.50790   0.00000  Uiso   1.00
C545   C     0.89151   0.13182   0.97542   0.00000  Uiso   1.00
C546   C     0.85813   0.10679   0.92696   0.00000  Uiso   1.00
C547   C     0.80029   0.11659   0.91143   0.00000  Uiso   1.00
C548   C     0.89216   0.17790   0.56344   0.00000  Uiso   1.00
C549   C     0.97535   0.13191   0.55026   0.00000  Uiso   1.00
H550   H     0.68387   0.11770   0.56674   0.00000  Uiso   1.00
H551   H     0.73248   0.00312   0.74652   0.00000  Uiso   1.00
H552   H     0.86912   0.27657   0.78373   0.00000  Uiso   1.00
H553   H     0.92056   0.24756   0.83843   0.00000  Uiso   1.00
H554   H     0.85824   0.27602   0.85401   0.00000  Uiso   1.00
H555   H     0.93416   0.33033   0.75167   0.00000  Uiso   1.00
H556   H     0.82225   0.12931   0.70374   0.00000  Uiso   1.00
H557   H     0.87542   0.07690   0.90344   0.00000  Uiso   1.00
H558   H     0.96855   0.09157   0.97013   0.00000  Uiso   1.00
H559   H     0.86807   0.19539   0.59184   0.00000  Uiso   1.00
H560   H     0.98771   0.22362   0.92851   0.00000  Uiso   1.00
H561   H     0.71116   0.26977   0.51258   0.00000  Uiso   1.00
H562   H     0.77403   0.09247   0.87683   0.00000  Uiso   1.00
I563   I     0.83739   0.29226   0.56254   0.00000  Uiso   1.00
N564   N     0.81160   0.15223   0.73543   0.00000  Uiso   1.00
N565   N     0.85507   0.18110   0.76458   0.00000  Uiso   1.00
O566   O     0.96435   0.24629   0.75358   0.00000  Uiso   1.00
O567   O     0.72408   0.23704   0.74424   0.00000  Uiso   1.00
O568   O     0.98157   0.17358   0.83380   0.00000  Uiso   1.00
O569   O     0.74130   0.16433   0.82446   0.00000  Uiso   1.00
O570   O     0.94258   0.09629   0.75577   0.00000  Uiso   1.00
O571   O     0.70231   0.08704   0.74643   0.00000  Uiso   1.00
O572   O     0.92537   0.16901   0.67554   0.00000  Uiso   1.00
O573   O     0.68510   0.15976   0.66620   0.00000  Uiso   1.00
O574   O     0.84112   0.20547   0.80965   0.00000  Uiso   1.00
Zn575  Zn    0.93786   0.17284   0.75624   0.00000  Uiso   1.00
Zn576  Zn    0.72881   0.16049   0.74377   0.00000  Uiso   1.00
C577   C     0.01476   0.59818   0.74859   0.00000  Uiso   1.00
C578   C     0.05613   0.50845   0.91526   0.00000  Uiso   1.00
C579   C     0.02270   0.65273   0.74819   0.00000  Uiso   1.00
C580   C     0.03563   0.50179   0.85501   0.00000  Uiso   1.00
C581   C     0.31061   0.34729   0.75055   0.00000  Uiso   1.00
C582   C     0.31853   0.40183   0.75105   0.00000  Uiso   1.00
C583   C     0.29763   0.49684   0.64509   0.00000  Uiso   1.00
C584   C     0.28111   0.45053   0.99539   0.00000  Uiso   1.00
C585   C     0.27871   0.49274   0.58503   0.00000  Uiso   1.00
C586   C     0.03027   0.54442   0.94553   0.00000  Uiso   1.00
C587   C     0.06280   0.57107   0.99335   0.00000  Uiso   1.00
C588   C     0.14407   0.51823   0.98703   0.00000  Uiso   1.00
C589   C     0.12094   0.56175   0.51158   0.00000  Uiso   1.00
C590   C     0.20782   0.58661   0.82128   0.00000  Uiso   1.00
C591   C     0.11059   0.49127   0.93844   0.00000  Uiso   1.00
C592   C     0.19931   0.50080   0.50790   0.00000  Uiso   1.00
C593   C     0.22485   0.46515   0.97542   0.00000  Uiso   1.00
C594   C     0.19147   0.44012   0.92696   0.00000  Uiso   1.00
C595   C     0.13362   0.44992   0.91143   0.00000  Uiso   1.00
C596   C     0.22549   0.51124   0.56344   0.00000  Uiso   1.00
C597   C     0.30868   0.46524   0.55026   0.00000  Uiso   1.00
H598   H     0.01720   0.45104   0.56674   0.00000  Uiso   1.00
H599   H     0.06581   0.33645   0.74652   0.00000  Uiso   1.00
H600   H     0.20245   0.60990   0.78373   0.00000  Uiso   1.00
H601   H     0.25389   0.58089   0.83843   0.00000  Uiso   1.00
H602   H     0.19158   0.60936   0.85401   0.00000  Uiso   1.00
H603   H     0.26750   0.66367   0.75167   0.00000  Uiso   1.00
H604   H     0.15558   0.46265   0.70374   0.00000  Uiso   1.00
H605   H     0.20875   0.41024   0.90344   0.00000  Uiso   1.00
H606   H     0.30188   0.42490   0.97013   0.00000  Uiso   1.00
H607   H     0.20140   0.52872   0.59184   0.00000  Uiso   1.00
H608   H     0.32104   0.55695   0.92851   0.00000  Uiso   1.00
H609   H     0.04450   0.60310   0.51258   0.00000  Uiso   1.00
H610   H     0.10736   0.42580   0.87683   0.00000  Uiso   1.00
I611   I     0.17072   0.62560   0.56254   0.00000  Uiso   1.00
N612   N     0.14493   0.48556   0.73543   0.00000  Uiso   1.00
N613   N     0.18840   0.51444   0.76458   0.00000  Uiso   1.00
O614   O     0.29769   0.57963   0.75358   0.00000  Uiso   1.00
O615   O     0.05742   0.57038   0.74424   0.00000  Uiso   1.00
O616   O     0.31490   0.50691   0.83380   0.00000  Uiso   1.00
O617   O     0.07463   0.49766   0.82446   0.00000  Uiso   1.00
O618   O     0.27592   0.42962   0.75577   0.00000  Uiso   1.00
O619   O     0.03565   0.42037   0.74643   0.00000  Uiso   1.00
O620   O     0.25870   0.50234   0.67554   0.00000  Uiso   1.00
O621   O     0.01843   0.49309   0.66620   0.00000  Uiso   1.00
O622   O     0.17445   0.53881   0.80965   0.00000  Uiso   1.00
Zn623  Zn    0.27119   0.50618   0.75624   0.00000  Uiso   1.00
Zn624  Zn    0.06214   0.49382   0.74377   0.00000  Uiso   1.00
C625   C     0.34809   0.59818   0.74859   0.00000  Uiso   1.00
C626   C     0.38946   0.50845   0.91526   0.00000  Uiso   1.00
C627   C     0.35603   0.65273   0.74819   0.00000  Uiso   1.00
C628   C     0.36896   0.50179   0.85501   0.00000  Uiso   1.00
C629   C     0.64394   0.34729   0.75055   0.00000  Uiso   1.00
C630   C     0.65187   0.40183   0.75105   0.00000  Uiso   1.00
C631   C     0.63097   0.49684   0.64509   0.00000  Uiso   1.00
C632   C     0.61445   0.45053   0.99539   0.00000  Uiso   1.00
C633   C     0.61204   0.49274   0.58503   0.00000  Uiso   1.00
C634   C     0.36360   0.54442   0.94553   0.00000  Uiso   1.00
C635   C     0.39614   0.57107   0.99335   0.00000  Uiso   1.00
C636   C     0.47741   0.51823   0.98703   0.00000  Uiso   1.00
C637   C     0.45428   0.56175   0.51158   0.00000  Uiso   1.00
C638   C     0.54115   0.58661   0.82128   0.00000  Uiso   1.00
C639   C     0.44392   0.49127   0.93844   0.00000  Uiso   1.00
C640   C     0.53264   0.50080   0.50790   0.00000  Uiso   1.00
C641   C     0.55818   0.46515   0.97542   0.00000  Uiso   1.00
C642   C     0.52480   0.44012   0.92696   0.00000  Uiso   1.00
C643   C     0.46696   0.44992   0.91143   0.00000  Uiso   1.00
C644   C     0.55882   0.51124   0.56344   0.00000  Uiso   1.00
C645   C     0.64201   0.46524   0.55026   0.00000  Uiso   1.00
H646   H     0.35054   0.45104   0.56674   0.00000  Uiso   1.00
H647   H     0.39915   0.33645   0.74652   0.00000  Uiso   1.00
H648   H     0.53579   0.60990   0.78373   0.00000  Uiso   1.00
H649   H     0.58722   0.58089   0.83843   0.00000  Uiso   1.00
H650   H     0.52491   0.60936   0.85401   0.00000  Uiso   1.00
H651   H     0.60083   0.66367   0.75167   0.00000  Uiso   1.00
H652   H     0.48891   0.46265   0.70374   0.00000  Uiso   1.00
H653   H     0.54208   0.41024   0.90344   0.00000  Uiso   1.00
H654   H     0.63522   0.42490   0.97013   0.00000  Uiso   1.00
H655   H     0.53474   0.52872   0.59184   0.00000  Uiso   1.00
H656   H     0.65437   0.55695   0.92851   0.00000  Uiso   1.00
H657   H     0.37783   0.60310   0.51258   0.00000  Uiso   1.00
H658   H     0.44069   0.42580   0.87683   0.00000  Uiso   1.00
I659   I     0.50406   0.62560   0.56254   0.00000  Uiso   1.00
N660   N     0.47827   0.48556   0.73543   0.00000  Uiso   1.00
N661   N     0.52173   0.51444   0.76458   0.00000  Uiso   1.00
O662   O     0.63102   0.57963   0.75358   0.00000  Uiso   1.00
O663   O     0.39075   0.57038   0.74424   0.00000  Uiso   1.00
O664   O     0.64823   0.50691   0.83380   0.00000  Uiso   1.00
O665   O     0.40796   0.49766   0.82446   0.00000  Uiso   1.00
O666   O     0.60925   0.42962   0.75577   0.00000  Uiso   1.00
O667   O     0.36898   0.42037   0.74643   0.00000  Uiso   1.00
O668   O     0.59204   0.50234   0.67554   0.00000  Uiso   1.00
O669   O     0.35177   0.49309   0.66620   0.00000  Uiso   1.00
O670   O     0.50778   0.53881   0.80965   0.00000  Uiso   1.00
Zn671  Zn    0.60453   0.50618   0.75624   0.00000  Uiso   1.00
Zn672  Zn    0.39547   0.49382   0.74377   0.00000  Uiso   1.00
C673   C     0.68142   0.59818   0.74859   0.00000  Uiso   1.00
C674   C     0.72279   0.50845   0.91526   0.00000  Uiso   1.00
C675   C     0.68936   0.65273   0.74819   0.00000  Uiso   1.00
C676   C     0.70229   0.50179   0.85501   0.00000  Uiso   1.00
C677   C     0.97727   0.34729   0.75055   0.00000  Uiso   1.00
C678   C     0.98520   0.40183   0.75105   0.00000  Uiso   1.00
C679   C     0.96430   0.49684   0.64509   0.00000  Uiso   1.00
C680   C     0.94778   0.45053   0.99539   0.00000  Uiso   1.00
C681   C     0.94537   0.49274   0.58503   0.00000  Uiso   1.00
C682   C     0.69693   0.54442   0.94553   0.00000  Uiso   1.00
C683   C     0.72947   0.57107   0.99335   0.00000  Uiso   1.00
C684   C     0.81074   0.51823   0.98703   0.00000  Uiso   1.00
C685   C     0.78761   0.56175   0.51158   0.00000  Uiso   1.00
C686   C     0.87449   0.58661   0.82128   0.00000  Uiso   1.00
C687   C     0.77726   0.49127   0.93844   0.00000  Uiso   1.00
C688   C     0.86597   0.50080   0.50790   0.00000  Uiso   1.00
C689   C     0.89151   0.46515   0.97542   0.00000  Uiso   1.00
C690   C     0.85813   0.44012   0.92696   0.00000  Uiso   1.00
C691   C     0.80029   0.44992   0.91143   0.00000  Uiso   1.00
C692   C     0.89216   0.51124   0.56344   0.00000  Uiso   1.00
C693   C     0.97535   0.46524   0.55026   0.00000  Uiso   1.00
H694   H     0.68387   0.45104   0.56674   0.00000  Uiso   1.00
H695   H     0.73248   0.33645   0.74652   0.00000  Uiso   1.00
H696   H     0.86912   0.60990   0.78373   0.00000  Uiso   1.00
H697   H     0.92056   0.58089   0.83843   0.00000  Uiso   1.00
H698   H     0.85824   0.60936   0.85401   0.00000  Uiso   1.00
H699   H     0.93416   0.66367   0.75167   0.00000  Uiso   1.00
H700   H     0.82225   0.46265   0.70374   0.00000  Uiso   1.00
H701   H     0.87542   0.41024   0.90344   0.00000  Uiso   1.00
H702   H     0.96855   0.42490   0.97013   0.00000  Uiso   1.00
H703   H     0.86807   0.52872   0.59184   0.00000  Uiso   1.00
H704   H     0.98771   0.55695   0.92851   0.00000  Uiso   1.00
H705   H     0.71116   0.60310   0.51258   0.00000  Uiso   1.00
H706   H     0.77403   0.42580   0.87683   0.00000  Uiso   1.00
I707   I     0.83739   0.62560   0.56254   0.00000  Uiso   1.00
N708   N     0.81160   0.48556   0.73543   0.00000  Uiso   1.00
N709   N     0.85507   0.51444   0.76458   0.00000  Uiso   1.00
O710   O     0.96435   0.57963   0.75358   0.00000  Uiso   1.00
O711   O     0.72408   0.57038   0.74424   0.00000  Uiso   1.00
O712   O     0.98157   0.50691   0.83380   0.00000  Uiso   1.00
O713   O     0.74130   0.49766   0.82446   0.00000  Uiso   1.00
O714   O     0.94258   0.42962   0.75577   0.00000  Uiso   1.00
O715   O     0.70231   0.42037   0.74643   0.00000  Uiso   1.00
O716   O     0.92537   0.50234   0.67554   0.00000  Uiso   1.00
O717   O     0.68510   0.49309   0.66620   0.00000  Uiso   1.00
O718   O     0.84112   0.53881   0.80965   0.00000  Uiso   1.00
Zn719  Zn    0.93786   0.50618   0.75624   0.00000  Uiso   1.00
Zn720  Zn    0.72881   0.49382   0.74377   0.00000  Uiso   1.00
C721   C     0.01476   0.93151   0.74859   0.00000  Uiso   1.00
C722   C     0.05613   0.84178   0.91526   0.00000  Uiso   1.00
C723   C     0.02270   0.98606   0.74819   0.00000  Uiso   1.00
C724   C     0.03563   0.83512   0.85501   0.00000  Uiso   1.00
C725   C     0.31061   0.68062   0.75055   0.00000  Uiso   1.00
C726   C     0.31853   0.73516   0.75105   0.00000  Uiso   1.00
C727   C     0.29763   0.83017   0.64509   0.00000  Uiso   1.00
C728   C     0.28111   0.78386   0.99539   0.00000  Uiso   1.00
C729   C     0.27871   0.82607   0.58503   0.00000  Uiso   1.00
C730   C     0.03027   0.87775   0.94553   0.00000  Uiso   1.00
C731   C     0.06280   0.90441   0.99335   0.00000  Uiso   1.00
C732   C     0.14407   0.85156   0.98703   0.00000  Uiso   1.00
C733   C     0.12094   0.89508   0.51158   0.00000  Uiso   1.00
C734   C     0.20782   0.91994   0.82128   0.00000  Uiso   1.00
C735   C     0.11059   0.82460   0.93844   0.00000  Uiso   1.00
C736   C     0.19931   0.83413   0.50790   0.00000  Uiso   1.00
C737   C     0.22485   0.79849   0.97542   0.00000  Uiso   1.00
C738   C     0.19147   0.77346   0.92696   0.00000  Uiso   1.00
C739   C     0.13362   0.78325   0.91143   0.00000  Uiso   1.00
C740   C     0.22549   0.84457   0.56344   0.00000  Uiso   1.00
C741   C     0.30868   0.79858   0.55026   0.00000  Uiso   1.00
H742   H     0.01720   0.78437   0.56674   0.00000  Uiso   1.00
H743   H     0.06581   0.66978   0.74652   0.00000  Uiso   1.00
H744   H     0.20245   0.94323   0.78373   0.00000  Uiso   1.00
H745   H     0.25389   0.91423   0.83843   0.00000  Uiso   1.00
H746   H     0.19158   0.94269   0.85401   0.00000  Uiso   1.00
H747   H     0.26750   0.99700   0.75167   0.00000  Uiso   1.00
H748   H     0.15558   0.79598   0.70374   0.00000  Uiso   1.00
H749   H     0.20875   0.74357   0.90344   0.00000  Uiso   1.00
H750   H     0.30188   0.75823   0.97013   0.00000  Uiso   1.00
H751   H     0.20140   0.86205   0.59184   0.00000  Uiso   1.00
H752   H     0.32104   0.89028   0.92851   0.00000  Uiso   1.00
H753   H     0.04450   0.93644   0.51258   0.00000  Uiso   1.00
H754   H     0.10736   0.75913   0.87683   0.00000  Uiso   1.00
I755   I     0.17072   0.95893   0.56254   0.00000  Uiso   1.00
N756   N     0.14493   0.81890   0.73543   0.00000  Uiso   1.00
N757   N     0.18840   0.84777   0.76458   0.00000  Uiso   1.00
O758   O     0.29769   0.91296   0.75358   0.00000  Uiso   1.00
O759   O     0.05742   0.90371   0.74424   0.00000  Uiso   1.00
O760   O     0.31490   0.84024   0.83380   0.00000  Uiso   1.00
O761   O     0.07463   0.83099   0.82446   0.00000  Uiso   1.00
O762   O     0.27592   0.76296   0.75577   0.00000  Uiso   1.00
O763   O     0.03565   0.75371   0.74643   0.00000  Uiso   1.00
O764   O     0.25870   0.83567   0.67554   0.00000  Uiso   1.00
O765   O     0.01843   0.82642   0.66620   0.00000  Uiso   1.00
O766   O     0.17445   0.87214   0.80965   0.00000  Uiso   1.00
Zn767  Zn    0.27119   0.83951   0.75624   0.00000  Uiso   1.00
Zn768  Zn    0.06214   0.82716   0.74377   0.00000  Uiso   1.00
C769   C     0.34809   0.93151   0.74859   0.00000  Uiso   1.00
C770   C     0.38946   0.84178   0.91526   0.00000  Uiso   1.00
C771   C     0.35603   0.98606   0.74819   0.00000  Uiso   1.00
C772   C     0.36896   0.83512   0.85501   0.00000  Uiso   1.00
C773   C     0.64394   0.68062   0.75055   0.00000  Uiso   1.00
C774   C     0.65187   0.73516   0.75105   0.00000  Uiso   1.00
C775   C     0.63097   0.83017   0.64509   0.00000  Uiso   1.00
C776   C     0.61445   0.78386   0.99539   0.00000  Uiso   1.00
C777   C     0.61204   0.82607   0.58503   0.00000  Uiso   1.00
C778   C     0.36360   0.87775   0.94553   0.00000  Uiso   1.00
C779   C     0.39614   0.90441   0.99335   0.00000  Uiso   1.00
C780   C     0.47741   0.85156   0.98703   0.00000  Uiso   1.00
C781   C     0.45428   0.89508   0.51158   0.00000  Uiso   1.00
C782   C     0.54115   0.91994   0.82128   0.00000  Uiso   1.00
C783   C     0.44392   0.82460   0.93844   0.00000  Uiso   1.00
C784   C     0.53264   0.83413   0.50790   0.00000  Uiso   1.00
C785   C     0.55818   0.79849   0.97542   0.00000  Uiso   1.00
C786   C     0.52480   0.77346   0.92696   0.00000  Uiso   1.00
C787   C     0.46696   0.78325   0.91143   0.00000  Uiso   1.00
C788   C     0.55882   0.84457   0.56344   0.00000  Uiso   1.00
C789   C     0.64201   0.79858   0.55026   0.00000  Uiso   1.00
H790   H     0.35054   0.78437   0.56674   0.00000  Uiso   1.00
H791   H     0.39915   0.66978   0.74652   0.00000  Uiso   1.00
H792   H     0.53579   0.94323   0.78373   0.00000  Uiso   1.00
H793   H     0.58722   0.91423   0.83843   0.00000  Uiso   1.00
H794   H     0.52491   0.94269   0.85401   0.00000  Uiso   1.00
H795   H     0.60083   0.99700   0.75167   0.00000  Uiso   1.00
H796   H     0.48891   0.79598   0.70374   0.00000  Uiso   1.00
H797   H     0.54208   0.74357   0.90344   0.00000  Uiso   1.00
H798   H     0.63522   0.75823   0.97013   0.00000  Uiso   1.00
H799   H     0.53474   0.86205   0.59184   0.00000  Uiso   1.00
H800   H     0.65437   0.89028   0.92851   0.00000  Uiso   1.00
H801   H     0.37783   0.93644   0.51258   0.00000  Uiso   1.00
H802   H     0.44069   0.75913   0.87683   0.00000  Uiso   1.00
I803   I     0.50406   0.95893   0.56254   0.00000  Uiso   1.00
N804   N     0.47827   0.81890   0.73543   0.00000  Uiso   1.00
N805   N     0.52173   0.84777   0.76458   0.00000  Uiso   1.00
O806   O     0.63102   0.91296   0.75358   0.00000  Uiso   1.00
O807   O     0.39075   0.90371   0.74424   0.00000  Uiso   1.00
O808   O     0.64823   0.84024   0.83380   0.00000  Uiso   1.00
O809   O     0.40796   0.83099   0.82446   0.00000  Uiso   1.00
O810   O     0.60925   0.76296   0.75577   0.00000  Uiso   1.00
O811   O     0.36898   0.75371   0.74643   0.00000  Uiso   1.00
O812   O     0.59204   0.83567   0.67554   0.00000  Uiso   1.00
O813   O     0.35177   0.82642   0.66620   0.00000  Uiso   1.00
O814   O     0.50778   0.87214   0.80965   0.00000  Uiso   1.00
Zn815  Zn    0.60453   0.83951   0.75624   0.00000  Uiso   1.00
Zn816  Zn    0.39547   0.82716   0.74377   0.00000  Uiso   1.00
C817   C     0.68142   0.93151   0.74859   0.00000  Uiso   1.00
C818   C     0.72279   0.84178   0.91526   0.00000  Uiso   1.00
C819   C     0.68936   0.98606   0.74819   0.00000  Uiso   1.00
C820   C     0.70229   0.83512   0.85501   0.00000  Uiso   1.00
C821   C     0.97727   0.68062   0.75055   0.00000  Uiso   1.00
C822   C     0.98520   0.73516   0.75105   0.00000  Uiso   1.00
C823   C     0.96430   0.83017   0.64509   0.00000  Uiso   1.00
C824   C     0.94778   0.78386   0.99539   0.00000  Uiso   1.00
C825   C     0.94537   0.82607   0.58503   0.00000  Uiso   1.00
C826   C     0.69693   0.87775   0.94553   0.00000  Uiso   1.00
C827   C     0.72947   0.90441   0.99335   0.00000  Uiso   1.00
C828   C     0.81074   0.85156   0.98703   0.00000  Uiso   1.00
C829   C     0.78761   0.89508   0.51158   0.00000  Uiso   1.00
C830   C     0.87449   0.91994   0.82128   0.00000  Uiso   1.00
C831   C     0.77726   0.82460   0.93844   0.00000  Uiso   1.00
C832   C     0.86597   0.83413   0.50790   0.00000  Uiso   1.00
C833   C     0.89151   0.79849   0.97542   0.00000  Uiso   1.00
C834   C     0.85813   0.77346   0.92696   0.00000  Uiso   1.00
C835   C     0.80029   0.78325   0.91143   0.00000  Uiso   1.00
C836   C     0.89216   0.84457   0.56344   0.00000  Uiso   1.00
C837   C     0.97535   0.79858   0.55026   0.00000  Uiso   1.00
H838   H     0.68387   0.78437   0.56674   0.00000  Uiso   1.00
H839   H     0.73248   0.66978   0.74652   0.00000  Uiso   1.00
H840   H     0.86912   0.94323   0.78373   0.00000  Uiso   1.00
H841   H     0.92056   0.91423   0.83843   0.00000  Uiso   1.00
H842   H     0.85824   0.94269   0.85401   0.00000  Uiso   1.00
H843   H     0.93416   0.99700   0.75167   0.00000  Uiso   1.00
H844   H     0.82225   0.79598   0.70374   0.00000  Uiso   1.00
H845   H     0.87542   0.74357   0.90344   0.00000  Uiso   1.00
H846   H     0.96855   0.75823   0.97013   0.00000  Uiso   1.00
H847   H     0.86807   0.86205   0.59184   0.00000  Uiso   1.00
H848   H     0.98771   0.89028   0.92851   0.00000  Uiso   1.00
H849   H     0.71116   0.93644   0.51258   0.00000  Uiso   1.00
H850   H     0.77403   0.75913   0.87683   0.00000  Uiso   1.00
I851   I     0.83739   0.95893   0.56254   0.00000  Uiso   1.00
N852   N     0.81160   0.81890   0.73543   0.00000  Uiso   1.00
N853   N     0.85507   0.84777   0.76458   0.00000  Uiso   1.00
O854   O     0.96435   0.91296   0.75358   0.00000  Uiso   1.00
O855   O     0.72408   0.90371   0.74424   0.00000  Uiso   1.00
O856   O     0.98157   0.84024   0.83380   0.00000  Uiso   1.00
O857   O     0.74130   0.83099   0.82446   0.00000  Uiso   1.00
O858   O     0.94258   0.76296   0.75577   0.00000  Uiso   1.00
O859   O     0.70231   0.75371   0.74643   0.00000  Uiso   1.00
O860   O     0.92537   0.83567   0.67554   0.00000  Uiso   1.00
O861   O     0.68510   0.82642   0.66620   0.00000  Uiso   1.00
O862   O     0.84112   0.87214   0.80965   0.00000  Uiso   1.00
Zn863  Zn    0.93786   0.83951   0.75624   0.00000  Uiso   1.00
Zn864  Zn    0.72881   0.82716   0.74377   0.00000  Uiso   1.00
loop_
_geom_bond_atom_site_label_1
_geom_bond_atom_site_label_2
_geom_bond_distance
_geom_bond_site_symmetry_2
_ccdc_geom_bond_type
C1     O39     1.289   .     A
C1     C3      1.402   .     S
C1     O134    1.280   1_455 S
C2     C4      1.453   .     S
C2     C15     1.405   .     A
C2     C10     1.399   .     A
C3     C245    1.335   1_455 S
C3     H167    1.088   .     S
C4     O41     1.298   .     A
C4     O136    1.295   1_455 S
C5     C6      1.400   .     S
C5     C339    1.335   1_545 S
C5     H315    1.084   1_545 S
C6     O42     1.290   .     A
C6     O91     1.278   .     S
C7     O44     1.299   .     A
C7     C9      1.443   .     S
C7     O93     1.290   .     S
C8     C17     1.402   .     A
C8     H30     1.084   .     S
C8     C453    1.391   .     S
C9     C20     1.385   .     A
C9     C21     1.401   .     A
C10    C11     1.386   .     A
C10    H128    1.083   1_455 S
C11    C445    1.395   .     S
C11    H465    1.083   .     S
C12    C15     1.410   .     A
C12    C445    1.432   .     S
C12    C448    1.411   .     S
C13    I35     2.141   .     S
C13    C443    1.395   1_554 S
C13    C444    1.432   1_554 S
C14    O46     1.399   .     S
C14    H26     1.109   .     S
C14    H25     1.106   .     S
C14    H24     1.110   .     S
C15    C19     1.417   .     A
C16    C20     1.380   .     A
C16    C444    1.411   1_554 S
C16    C449    1.421   1_554 S
C17    C18     1.387   .     A
C17    C448    1.421   .     S
C18    H29     1.084   .     S
C18    C19     1.384   .     A
C19    H34     1.083   .     S
C20    H31     1.078   .     S
C21    C440    1.391   1_554 S
C21    H70     1.083   .     S
H22    C117    1.083   1_455 S
H23    C291    1.088   1_545 S
H27    C149    1.084   .     S
H28    N36     1.029   .     S
H32    C58     1.083   .     S
H33    C443    1.083   1_554 S
N36    Zn48    2.024   .     S
N36    N37     1.291   .     D
N37    Zn47    2.024   .     S
N37    O46     1.347   .     S
O38    Zn47    1.956   .     S
O38    C49     1.280   .     S
O39    Zn48    1.977   .     S
O40    Zn47    1.968   .     S
O40    C52     1.295   .     S
O41    Zn48    1.931   .     S
O42    Zn47    1.977   .     S
O43    Zn48    1.956   .     S
O43    C102    1.278   1_455 S
O44    Zn47    1.931   .     S
O45    Zn48    1.968   .     S
O45    C103    1.290   1_455 S
C49    O87     1.289   .     A
C49    C51     1.402   .     S
C50    C52     1.453   .     S
C50    C63     1.405   .     A
C50    C58     1.399   .     A
C51    C149    1.335   .     S
C51    H215    1.088   .     S
C52    O89     1.298   .     A
C53    C54     1.400   .     S
C53    C387    1.335   1_545 S
C53    H363    1.084   1_545 S
C54    O90     1.290   .     A
C54    O139    1.278   .     S
C55    O92     1.299   .     A
C55    C57     1.443   .     S
C55    O141    1.290   .     S
C56    C65     1.402   .     A
C56    H78     1.084   .     S
C56    C501    1.391   .     S
C57    C68     1.385   .     A
C57    C69     1.401   .     A
C58    C59     1.386   .     A
C59    C493    1.395   .     S
C59    H513    1.083   .     S
C60    C63     1.410   .     A
C60    C493    1.432   .     S
C60    C496    1.411   .     S
C61    I83     2.141   .     S
C61    C491    1.395   1_554 S
C61    C492    1.432   1_554 S
C62    O94     1.399   .     S
C62    H74     1.109   .     S
C62    H73     1.106   .     S
C62    H72     1.110   .     S
C63    C67     1.417   .     A
C64    C68     1.380   .     A
C64    C492    1.411   1_554 S
C64    C497    1.421   1_554 S
C65    C66     1.387   .     A
C65    C496    1.421   .     S
C66    H77     1.084   .     S
C66    C67     1.384   .     A
C67    H82     1.083   .     S
C68    H79     1.078   .     S
C69    C488    1.391   1_554 S
C69    H118    1.083   .     S
H71    C339    1.088   1_545 S
H75    C197    1.084   .     S
H76    N84     1.029   .     S
H80    C106    1.083   .     S
H81    C491    1.083   1_554 S
N84    Zn96    2.024   .     S
N84    N85     1.291   .     D
N85    Zn95    2.024   .     S
N85    O94     1.347   .     S
O86    Zn95    1.956   .     S
O86    C97     1.280   .     S
O87    Zn96    1.977   .     S
O88    Zn95    1.968   .     S
O88    C100    1.295   .     S
O89    Zn96    1.931   .     S
O90    Zn95    1.977   .     S
O91    Zn96    1.956   .     S
O92    Zn95    1.931   .     S
O93    Zn96    1.968   .     S
C97    O135    1.289   .     A
C97    C99     1.402   .     S
C98    C100    1.453   .     S
C98    C111    1.405   .     A
C98    C106    1.399   .     A
C99    C197    1.335   .     S
C99    H263    1.088   .     S
C100   O137    1.298   .     A
C101   C102    1.400   .     S
C101   C291    1.335   1_645 S
C101   H411    1.084   1_545 S
C102   O138    1.290   .     A
C102   O43     1.278   1_655 S
C103   O140    1.299   .     A
C103   C105    1.443   .     S
C103   O45     1.290   1_655 S
C104   C113    1.402   .     A
C104   H126    1.084   .     S
C104   C549    1.391   .     S
C105   C116    1.385   .     A
C105   C117    1.401   .     A
C106   C107    1.386   .     A
C107   C541    1.395   .     S
C107   H561    1.083   .     S
C108   C111    1.410   .     A
C108   C541    1.432   .     S
C108   C544    1.411   .     S
C109   I131    2.141   .     S
C109   C539    1.395   1_554 S
C109   C540    1.432   1_554 S
C110   O142    1.399   .     S
C110   H122    1.109   .     S
C110   H121    1.106   .     S
C110   H120    1.110   .     S
C111   C115    1.417   .     A
C112   C116    1.380   .     A
C112   C540    1.411   1_554 S
C112   C545    1.421   1_554 S
C113   C114    1.387   .     A
C113   C544    1.421   .     S
C114   H125    1.084   .     S
C114   C115    1.384   .     A
C115   H130    1.083   .     S
C116   H127    1.078   .     S
C117   C536    1.391   1_554 S
C117   H22     1.083   1_655 S
H119   C387    1.088   1_545 S
H123   C245    1.084   .     S
H124   N132    1.029   .     S
H128   C10     1.083   1_655 S
H129   C539    1.083   1_554 S
N132   Zn144   2.024   .     S
N132   N133    1.291   .     D
N133   Zn143   2.024   .     S
N133   O142    1.347   .     S
O134   Zn143   1.956   .     S
O134   C1      1.280   1_655 S
O135   Zn144   1.977   .     S
O136   Zn143   1.968   .     S
O136   C4      1.295   1_655 S
O137   Zn144   1.931   .     S
O138   Zn143   1.977   .     S
O139   Zn144   1.956   .     S
O140   Zn143   1.931   .     S
O141   Zn144   1.968   .     S
C145   O183    1.289   .     A
C145   C147    1.402   .     S
C145   O278    1.280   1_455 S
C146   C148    1.453   .     S
C146   C159    1.405   .     A
C146   C154    1.399   .     A
C147   C389    1.335   1_455 S
C147   H311    1.088   .     S
C148   O185    1.298   .     A
C148   O280    1.295   1_455 S
C149   C150    1.400   .     S
C150   O186    1.290   .     A
C150   O235    1.278   .     S
C151   O188    1.299   .     A
C151   C153    1.443   .     S
C151   O237    1.290   .     S
C152   C161    1.402   .     A
C152   H174    1.084   .     S
C152   C597    1.391   .     S
C153   C164    1.385   .     A
C153   C165    1.401   .     A
C154   C155    1.386   .     A
C154   H272    1.083   1_455 S
C155   C589    1.395   .     S
C155   H609    1.083   .     S
C156   C159    1.410   .     A
C156   C589    1.432   .     S
C156   C592    1.411   .     S
C157   I179    2.141   .     S
C157   C587    1.395   1_554 S
C157   C588    1.432   1_554 S
C158   O190    1.399   .     S
C158   H170    1.109   .     S
C158   H169    1.106   .     S
C158   H168    1.110   .     S
C159   C163    1.417   .     A
C160   C164    1.380   .     A
C160   C588    1.411   1_554 S
C160   C593    1.421   1_554 S
C161   C162    1.387   .     A
C161   C592    1.421   .     S
C162   H173    1.084   .     S
C162   C163    1.384   .     A
C163   H178    1.083   .     S
C164   H175    1.078   .     S
C165   C584    1.391   1_554 S
C165   H214    1.083   .     S
H166   C261    1.083   1_455 S
H171   C293    1.084   .     S
H172   N180    1.029   .     S
H176   C202    1.083   .     S
H177   C587    1.083   1_554 S
N180   Zn192   2.024   .     S
N180   N181    1.291   .     D
N181   Zn191   2.024   .     S
N181   O190    1.347   .     S
O182   Zn191   1.956   .     S
O182   C193    1.280   .     S
O183   Zn192   1.977   .     S
O184   Zn191   1.968   .     S
O184   C196    1.295   .     S
O185   Zn192   1.931   .     S
O186   Zn191   1.977   .     S
O187   Zn192   1.956   .     S
O187   C246    1.278   1_455 S
O188   Zn191   1.931   .     S
O189   Zn192   1.968   .     S
O189   C247    1.290   1_455 S
C193   O231    1.289   .     A
C193   C195    1.402   .     S
C194   C196    1.453   .     S
C194   C207    1.405   .     A
C194   C202    1.399   .     A
C195   C293    1.335   .     S
C195   H359    1.088   .     S
C196   O233    1.298   .     A
C197   C198    1.400   .     S
C198   O234    1.290   .     A
C198   O283    1.278   .     S
C199   O236    1.299   .     A
C199   C201    1.443   .     S
C199   O285    1.290   .     S
C200   C209    1.402   .     A
C200   H222    1.084   .     S
C200   C645    1.391   .     S
C201   C212    1.385   .     A
C201   C213    1.401   .     A
C202   C203    1.386   .     A
C203   C637    1.395   .     S
C203   H657    1.083   .     S
C204   C207    1.410   .     A
C204   C637    1.432   .     S
C204   C640    1.411   .     S
C205   I227    2.141   .     S
C205   C635    1.395   1_554 S
C205   C636    1.432   1_554 S
C206   O238    1.399   .     S
C206   H218    1.109   .     S
C206   H217    1.106   .     S
C206   H216    1.110   .     S
C207   C211    1.417   .     A
C208   C212    1.380   .     A
C208   C636    1.411   1_554 S
C208   C641    1.421   1_554 S
C209   C210    1.387   .     A
C209   C640    1.421   .     S
C210   H221    1.084   .     S
C210   C211    1.384   .     A
C211   H226    1.083   .     S
C212   H223    1.078   .     S
C213   C632    1.391   1_554 S
C213   H262    1.083   .     S
H219   C341    1.084   .     S
H220   N228    1.029   .     S
H224   C250    1.083   .     S
H225   C635    1.083   1_554 S
N228   Zn240   2.024   .     S
N228   N229    1.291   .     D
N229   Zn239   2.024   .     S
N229   O238    1.347   .     S
O230   Zn239   1.956   .     S
O230   C241    1.280   .     S
O231   Zn240   1.977   .     S
O232   Zn239   1.968   .     S
O232   C244    1.295   .     S
O233   Zn240   1.931   .     S
O234   Zn239   1.977   .     S
O235   Zn240   1.956   .     S
O236   Zn239   1.931   .     S
O237   Zn240   1.968   .     S
C241   O279    1.289   .     A
C241   C243    1.402   .     S
C242   C244    1.453   .     S
C242   C255    1.405   .     A
C242   C250    1.399   .     A
C243   C341    1.335   .     S
C243   H407    1.088   .     S
C244   O281    1.298   .     A
C245   C246    1.400   .     S
C245   C3      1.335   1_655 S
C246   O282    1.290   .     A
C246   O187    1.278   1_655 S
C247   O284    1.299   .     A
C247   C249    1.443   .     S
C247   O189    1.290   1_655 S
C248   C257    1.402   .     A
C248   H270    1.084   .     S
C248   C693    1.391   .     S
C249   C260    1.385   .     A
C249   C261    1.401   .     A
C250   C251    1.386   .     A
C251   C685    1.395   .     S
C251   H705    1.083   .     S
C252   C255    1.410   .     A
C252   C685    1.432   .     S
C252   C688    1.411   .     S
C253   I275    2.141   .     S
C253   C683    1.395   1_554 S
C253   C684    1.432   1_554 S
C254   O286    1.399   .     S
C254   H266    1.109   .     S
C254   H265    1.106   .     S
C254   H264    1.110   .     S
C255   C259    1.417   .     A
C256   C260    1.380   .     A
C256   C684    1.411   1_554 S
C256   C689    1.421   1_554 S
C257   C258    1.387   .     A
C257   C688    1.421   .     S
C258   H269    1.084   .     S
C258   C259    1.384   .     A
C259   H274    1.083   .     S
C260   H271    1.078   .     S
C261   C680    1.391   1_554 S
C261   H166    1.083   1_655 S
H267   C389    1.084   .     S
H268   N276    1.029   .     S
H272   C154    1.083   1_655 S
H273   C683    1.083   1_554 S
N276   Zn288   2.024   .     S
N276   N277    1.291   .     D
N277   Zn287   2.024   .     S
N277   O286    1.347   .     S
O278   Zn287   1.956   .     S
O278   C145    1.280   1_655 S
O279   Zn288   1.977   .     S
O280   Zn287   1.968   .     S
O280   C148    1.295   1_655 S
O281   Zn288   1.931   .     S
O282   Zn287   1.977   .     S
O283   Zn288   1.956   .     S
O284   Zn287   1.931   .     S
O285   Zn288   1.968   .     S
C289   O327    1.289   .     A
C289   C291    1.402   .     S
C289   O422    1.280   1_455 S
C290   C292    1.453   .     S
C290   C303    1.405   .     A
C290   C298    1.399   .     A
C291   C101    1.335   1_465 S
C291   H23     1.088   1_565 S
C292   O329    1.298   .     A
C292   O424    1.295   1_455 S
C293   C294    1.400   .     S
C294   O330    1.290   .     A
C294   O379    1.278   .     S
C295   O332    1.299   .     A
C295   C297    1.443   .     S
C295   O381    1.290   .     S
C296   C305    1.402   .     A
C296   H318    1.084   .     S
C296   C741    1.391   .     S
C297   C308    1.385   .     A
C297   C309    1.401   .     A
C298   C299    1.386   .     A
C298   H416    1.083   1_455 S
C299   C733    1.395   .     S
C299   H753    1.083   .     S
C300   C303    1.410   .     A
C300   C733    1.432   .     S
C300   C736    1.411   .     S
C301   I323    2.141   .     S
C301   C731    1.395   1_554 S
C301   C732    1.432   1_554 S
C302   O334    1.399   .     S
C302   H314    1.109   .     S
C302   H313    1.106   .     S
C302   H312    1.110   .     S
C303   C307    1.417   .     A
C304   C308    1.380   .     A
C304   C732    1.411   1_554 S
C304   C737    1.421   1_554 S
C305   C306    1.387   .     A
C305   C736    1.421   .     S
C306   H317    1.084   .     S
C306   C307    1.384   .     A
C307   H322    1.083   .     S
C308   H319    1.078   .     S
C309   C728    1.391   1_554 S
C309   H358    1.083   .     S
H310   C405    1.083   1_455 S
H315   C5      1.084   1_565 S
H316   N324    1.029   .     S
H320   C346    1.083   .     S
H321   C731    1.083   1_554 S
N324   Zn336   2.024   .     S
N324   N325    1.291   .     D
N325   Zn335   2.024   .     S
N325   O334    1.347   .     S
O326   Zn335   1.956   .     S
O326   C337    1.280   .     S
O327   Zn336   1.977   .     S
O328   Zn335   1.968   .     S
O328   C340    1.295   .     S
O329   Zn336   1.931   .     S
O330   Zn335   1.977   .     S
O331   Zn336   1.956   .     S
O331   C390    1.278   1_455 S
O332   Zn335   1.931   .     S
O333   Zn336   1.968   .     S
O333   C391    1.290   1_455 S
C337   O375    1.289   .     A
C337   C339    1.402   .     S
C338   C340    1.453   .     S
C338   C351    1.405   .     A
C338   C346    1.399   .     A
C339   C5      1.335   1_565 S
C339   H71     1.088   1_565 S
C340   O377    1.298   .     A
C341   C342    1.400   .     S
C342   O378    1.290   .     A
C342   O427    1.278   .     S
C343   O380    1.299   .     A
C343   C345    1.443   .     S
C343   O429    1.290   .     S
C344   C353    1.402   .     A
C344   H366    1.084   .     S
C344   C789    1.391   .     S
C345   C356    1.385   .     A
C345   C357    1.401   .     A
C346   C347    1.386   .     A
C347   C781    1.395   .     S
C347   H801    1.083   .     S
C348   C351    1.410   .     A
C348   C781    1.432   .     S
C348   C784    1.411   .     S
C349   I371    2.141   .     S
C349   C779    1.395   1_554 S
C349   C780    1.432   1_554 S
C350   O382    1.399   .     S
C350   H362    1.109   .     S
C350   H361    1.106   .     S
C350   H360    1.110   .     S
C351   C355    1.417   .     A
C352   C356    1.380   .     A
C352   C780    1.411   1_554 S
C352   C785    1.421   1_554 S
C353   C354    1.387   .     A
C353   C784    1.421   .     S
C354   H365    1.084   .     S
C354   C355    1.384   .     A
C355   H370    1.083   .     S
C356   H367    1.078   .     S
C357   C776    1.391   1_554 S
C357   H406    1.083   .     S
H363   C53     1.084   1_565 S
H364   N372    1.029   .     S
H368   C394    1.083   .     S
H369   C779    1.083   1_554 S
N372   Zn384   2.024   .     S
N372   N373    1.291   .     D
N373   Zn383   2.024   .     S
N373   O382    1.347   .     S
O374   Zn383   1.956   .     S
O374   C385    1.280   .     S
O375   Zn384   1.977   .     S
O376   Zn383   1.968   .     S
O376   C388    1.295   .     S
O377   Zn384   1.931   .     S
O378   Zn383   1.977   .     S
O379   Zn384   1.956   .     S
O380   Zn383   1.931   .     S
O381   Zn384   1.968   .     S
C385   O423    1.289   .     A
C385   C387    1.402   .     S
C386   C388    1.453   .     S
C386   C399    1.405   .     A
C386   C394    1.399   .     A
C387   C53     1.335   1_565 S
C387   H119    1.088   1_565 S
C388   O425    1.298   .     A
C389   C390    1.400   .     S
C389   C147    1.335   1_655 S
C390   O426    1.290   .     A
C390   O331    1.278   1_655 S
C391   O428    1.299   .     A
C391   C393    1.443   .     S
C391   O333    1.290   1_655 S
C392   C401    1.402   .     A
C392   H414    1.084   .     S
C392   C837    1.391   .     S
C393   C404    1.385   .     A
C393   C405    1.401   .     A
C394   C395    1.386   .     A
C395   C829    1.395   .     S
C395   H849    1.083   .     S
C396   C399    1.410   .     A
C396   C829    1.432   .     S
C396   C832    1.411   .     S
C397   I419    2.141   .     S
C397   C827    1.395   1_554 S
C397   C828    1.432   1_554 S
C398   O430    1.399   .     S
C398   H410    1.109   .     S
C398   H409    1.106   .     S
C398   H408    1.110   .     S
C399   C403    1.417   .     A
C400   C404    1.380   .     A
C400   C828    1.411   1_554 S
C400   C833    1.421   1_554 S
C401   C402    1.387   .     A
C401   C832    1.421   .     S
C402   H413    1.084   .     S
C402   C403    1.384   .     A
C403   H418    1.083   .     S
C404   H415    1.078   .     S
C405   C824    1.391   1_554 S
C405   H310    1.083   1_655 S
H411   C101    1.084   1_565 S
H412   N420    1.029   .     S
H416   C298    1.083   1_655 S
H417   C827    1.083   1_554 S
N420   Zn432   2.024   .     S
N420   N421    1.291   .     D
N421   Zn431   2.024   .     S
N421   O430    1.347   .     S
O422   Zn431   1.956   .     S
O422   C289    1.280   1_655 S
O423   Zn432   1.977   .     S
O424   Zn431   1.968   .     S
O424   C292    1.295   1_655 S
O425   Zn432   1.931   .     S
O426   Zn431   1.977   .     S
O427   Zn432   1.956   .     S
O428   Zn431   1.931   .     S
O429   Zn432   1.968   .     S
C433   O471    1.289   .     A
C433   C435    1.402   .     S
C433   O566    1.280   1_455 S
C434   C436    1.453   .     S
C434   C447    1.405   .     A
C434   C442    1.399   .     A
C435   C677    1.335   1_455 S
C435   H599    1.088   .     S
C436   O473    1.298   .     A
C436   O568    1.295   1_455 S
C437   C438    1.400   .     S
C437   C771    1.335   1_545 S
C437   H747    1.084   1_545 S
C438   O474    1.290   .     A
C438   O523    1.278   .     S
C439   O476    1.299   .     A
C439   C441    1.443   .     S
C439   O525    1.290   .     S
C440   C449    1.402   .     A
C440   H462    1.084   .     S
C440   C21     1.391   1_556 S
C441   C452    1.385   .     A
C441   C453    1.401   .     A
C442   C443    1.386   .     A
C442   H560    1.083   1_455 S
C443   C13     1.395   1_556 S
C443   H33     1.083   1_556 S
C444   C447    1.410   .     A
C444   C13     1.432   1_556 S
C444   C16     1.411   1_556 S
C445   I467    2.141   .     S
C446   O478    1.399   .     S
C446   H458    1.109   .     S
C446   H457    1.106   .     S
C446   H456    1.110   .     S
C447   C451    1.417   .     A
C448   C452    1.380   .     A
C449   C450    1.387   .     A
C449   C16     1.421   1_556 S
C450   H461    1.084   .     S
C450   C451    1.384   .     A
C451   H466    1.083   .     S
C452   H463    1.078   .     S
C453   H502    1.083   .     S
H454   C549    1.083   1_455 S
H455   C723    1.088   1_545 S
H459   C581    1.084   .     S
H460   N468    1.029   .     S
H464   C490    1.083   .     S
N468   Zn480   2.024   .     S
N468   N469    1.291   .     D
N469   Zn479   2.024   .     S
N469   O478    1.347   .     S
O470   Zn479   1.956   .     S
O470   C481    1.280   .     S
O471   Zn480   1.977   .     S
O472   Zn479   1.968   .     S
O472   C484    1.295   .     S
O473   Zn480   1.931   .     S
O474   Zn479   1.977   .     S
O475   Zn480   1.956   .     S
O475   C534    1.278   1_455 S
O476   Zn479   1.931   .     S
O477   Zn480   1.968   .     S
O477   C535    1.290   1_455 S
C481   O519    1.289   .     A
C481   C483    1.402   .     S
C482   C484    1.453   .     S
C482   C495    1.405   .     A
C482   C490    1.399   .     A
C483   C581    1.335   .     S
C483   H647    1.088   .     S
C484   O521    1.298   .     A
C485   C486    1.400   .     S
C485   C819    1.335   1_545 S
C485   H795    1.084   1_545 S
C486   O522    1.290   .     A
C486   O571    1.278   .     S
C487   O524    1.299   .     A
C487   C489    1.443   .     S
C487   O573    1.290   .     S
C488   C497    1.402   .     A
C488   H510    1.084   .     S
C488   C69     1.391   1_556 S
C489   C500    1.385   .     A
C489   C501    1.401   .     A
C490   C491    1.386   .     A
C491   C61     1.395   1_556 S
C491   H81     1.083   1_556 S
C492   C495    1.410   .     A
C492   C61     1.432   1_556 S
C492   C64     1.411   1_556 S
C493   I515    2.141   .     S
C494   O526    1.399   .     S
C494   H506    1.109   .     S
C494   H505    1.106   .     S
C494   H504    1.110   .     S
C495   C499    1.417   .     A
C496   C500    1.380   .     A
C497   C498    1.387   .     A
C497   C64     1.421   1_556 S
C498   H509    1.084   .     S
C498   C499    1.384   .     A
C499   H514    1.083   .     S
C500   H511    1.078   .     S
C501   H550    1.083   .     S
H503   C771    1.088   1_545 S
H507   C629    1.084   .     S
H508   N516    1.029   .     S
H512   C538    1.083   .     S
N516   Zn528   2.024   .     S
N516   N517    1.291   .     D
N517   Zn527   2.024   .     S
N517   O526    1.347   .     S
O518   Zn527   1.956   .     S
O518   C529    1.280   .     S
O519   Zn528   1.977   .     S
O520   Zn527   1.968   .     S
O520   C532    1.295   .     S
O521   Zn528   1.931   .     S
O522   Zn527   1.977   .     S
O523   Zn528   1.956   .     S
O524   Zn527   1.931   .     S
O525   Zn528   1.968   .     S
C529   O567    1.289   .     A
C529   C531    1.402   .     S
C530   C532    1.453   .     S
C530   C543    1.405   .     A
C530   C538    1.399   .     A
C531   C629    1.335   .     S
C531   H695    1.088   .     S
C532   O569    1.298   .     A
C533   C534    1.400   .     S
C533   C723    1.335   1_645 S
C533   H843    1.084   1_545 S
C534   O570    1.290   .     A
C534   O475    1.278   1_655 S
C535   O572    1.299   .     A
C535   C537    1.443   .     S
C535   O477    1.290   1_655 S
C536   C545    1.402   .     A
C536   H558    1.084   .     S
C536   C117    1.391   1_556 S
C537   C548    1.385   .     A
C537   C549    1.401   .     A
C538   C539    1.386   .     A
C539   C109    1.395   1_556 S
C539   H129    1.083   1_556 S
C540   C543    1.410   .     A
C540   C109    1.432   1_556 S
C540   C112    1.411   1_556 S
C541   I563    2.141   .     S
C542   O574    1.399   .     S
C542   H554    1.109   .     S
C542   H553    1.106   .     S
C542   H552    1.110   .     S
C543   C547    1.417   .     A
C544   C548    1.380   .     A
C545   C546    1.387   .     A
C545   C112    1.421   1_556 S
C546   H557    1.084   .     S
C546   C547    1.384   .     A
C547   H562    1.083   .     S
C548   H559    1.078   .     S
C549   H454    1.083   1_655 S
H551   C819    1.088   1_545 S
H555   C677    1.084   .     S
H556   N564    1.029   .     S
H560   C442    1.083   1_655 S
N564   Zn576   2.024   .     S
N564   N565    1.291   .     D
N565   Zn575   2.024   .     S
N565   O574    1.347   .     S
O566   Zn575   1.956   .     S
O566   C433    1.280   1_655 S
O567   Zn576   1.977   .     S
O568   Zn575   1.968   .     S
O568   C436    1.295   1_655 S
O569   Zn576   1.931   .     S
O570   Zn575   1.977   .     S
O571   Zn576   1.956   .     S
O572   Zn575   1.931   .     S
O573   Zn576   1.968   .     S
C577   O615    1.289   .     A
C577   C579    1.402   .     S
C577   O710    1.280   1_455 S
C578   C580    1.453   .     S
C578   C591    1.405   .     A
C578   C586    1.399   .     A
C579   C821    1.335   1_455 S
C579   H743    1.088   .     S
C580   O617    1.298   .     A
C580   O712    1.295   1_455 S
C581   C582    1.400   .     S
C582   O618    1.290   .     A
C582   O667    1.278   .     S
C583   O620    1.299   .     A
C583   C585    1.443   .     S
C583   O669    1.290   .     S
C584   C593    1.402   .     A
C584   H606    1.084   .     S
C584   C165    1.391   1_556 S
C585   C596    1.385   .     A
C585   C597    1.401   .     A
C586   C587    1.386   .     A
C586   H704    1.083   1_455 S
C587   C157    1.395   1_556 S
C587   H177    1.083   1_556 S
C588   C591    1.410   .     A
C588   C157    1.432   1_556 S
C588   C160    1.411   1_556 S
C589   I611    2.141   .     S
C590   O622    1.399   .     S
C590   H602    1.109   .     S
C590   H601    1.106   .     S
C590   H600    1.110   .     S
C591   C595    1.417   .     A
C592   C596    1.380   .     A
C593   C594    1.387   .     A
C593   C160    1.421   1_556 S
C594   H605    1.084   .     S
C594   C595    1.384   .     A
C595   H610    1.083   .     S
C596   H607    1.078   .     S
C597   H646    1.083   .     S
H598   C693    1.083   1_455 S
H603   C725    1.084   .     S
H604   N612    1.029   .     S
H608   C634    1.083   .     S
N612   Zn624   2.024   .     S
N612   N613    1.291   .     D
N613   Zn623   2.024   .     S
N613   O622    1.347   .     S
O614   Zn623   1.956   .     S
O614   C625    1.280   .     S
O615   Zn624   1.977   .     S
O616   Zn623   1.968   .     S
O616   C628    1.295   .     S
O617   Zn624   1.931   .     S
O618   Zn623   1.977   .     S
O619   Zn624   1.956   .     S
O619   C678    1.278   1_455 S
O620   Zn623   1.931   .     S
O621   Zn624   1.968   .     S
O621   C679    1.290   1_455 S
C625   O663    1.289   .     A
C625   C627    1.402   .     S
C626   C628    1.453   .     S
C626   C639    1.405   .     A
C626   C634    1.399   .     A
C627   C725    1.335   .     S
C627   H791    1.088   .     S
C628   O665    1.298   .     A
C629   C630    1.400   .     S
C630   O666    1.290   .     A
C630   O715    1.278   .     S
C631   O668    1.299   .     A
C631   C633    1.443   .     S
C631   O717    1.290   .     S
C632   C641    1.402   .     A
C632   H654    1.084   .     S
C632   C213    1.391   1_556 S
C633   C644    1.385   .     A
C633   C645    1.401   .     A
C634   C635    1.386   .     A
C635   C205    1.395   1_556 S
C635   H225    1.083   1_556 S
C636   C639    1.410   .     A
C636   C205    1.432   1_556 S
C636   C208    1.411   1_556 S
C637   I659    2.141   .     S
C638   O670    1.399   .     S
C638   H650    1.109   .     S
C638   H649    1.106   .     S
C638   H648    1.110   .     S
C639   C643    1.417   .     A
C640   C644    1.380   .     A
C641   C642    1.387   .     A
C641   C208    1.421   1_556 S
C642   H653    1.084   .     S
C642   C643    1.384   .     A
C643   H658    1.083   .     S
C644   H655    1.078   .     S
C645   H694    1.083   .     S
H651   C773    1.084   .     S
H652   N660    1.029   .     S
H656   C682    1.083   .     S
N660   Zn672   2.024   .     S
N660   N661    1.291   .     D
N661   Zn671   2.024   .     S
N661   O670    1.347   .     S
O662   Zn671   1.956   .     S
O662   C673    1.280   .     S
O663   Zn672   1.977   .     S
O664   Zn671   1.968   .     S
O664   C676    1.295   .     S
O665   Zn672   1.931   .     S
O666   Zn671   1.977   .     S
O667   Zn672   1.956   .     S
O668   Zn671   1.931   .     S
O669   Zn672   1.968   .     S
C673   O711    1.289   .     A
C673   C675    1.402   .     S
C674   C676    1.453   .     S
C674   C687    1.405   .     A
C674   C682    1.399   .     A
C675   C773    1.335   .     S
C675   H839    1.088   .     S
C676   O713    1.298   .     A
C677   C678    1.400   .     S
C677   C435    1.335   1_655 S
C678   O714    1.290   .     A
C678   O619    1.278   1_655 S
C679   O716    1.299   .     A
C679   C681    1.443   .     S
C679   O621    1.290   1_655 S
C680   C689    1.402   .     A
C680   H702    1.084   .     S
C680   C261    1.391   1_556 S
C681   C692    1.385   .     A
C681   C693    1.401   .     A
C682   C683    1.386   .     A
C683   C253    1.395   1_556 S
C683   H273    1.083   1_556 S
C684   C687    1.410   .     A
C684   C253    1.432   1_556 S
C684   C256    1.411   1_556 S
C685   I707    2.141   .     S
C686   O718    1.399   .     S
C686   H698    1.109   .     S
C686   H697    1.106   .     S
C686   H696    1.110   .     S
C687   C691    1.417   .     A
C688   C692    1.380   .     A
C689   C690    1.387   .     A
C689   C256    1.421   1_556 S
C690   H701    1.084   .     S
C690   C691    1.384   .     A
C691   H706    1.083   .     S
C692   H703    1.078   .     S
C693   H598    1.083   1_655 S
H699   C821    1.084   .     S
H700   N708    1.029   .     S
H704   C586    1.083   1_655 S
N708   Zn720   2.024   .     S
N708   N709    1.291   .     D
N709   Zn719   2.024   .     S
N709   O718    1.347   .     S
O710   Zn719   1.956   .     S
O710   C577    1.280   1_655 S
O711   Zn720   1.977   .     S
O712   Zn719   1.968   .     S
O712   C580    1.295   1_655 S
O713   Zn720   1.931   .     S
O714   Zn719   1.977   .     S
O715   Zn720   1.956   .     S
O716   Zn719   1.931   .     S
O717   Zn720   1.968   .     S
C721   O759    1.289   .     A
C721   C723    1.402   .     S
C721   O854    1.280   1_455 S
C722   C724    1.453   .     S
C722   C735    1.405   .     A
C722   C730    1.399   .     A
C723   C533    1.335   1_465 S
C723   H455    1.088   1_565 S
C724   O761    1.298   .     A
C724   O856    1.295   1_455 S
C725   C726    1.400   .     S
C726   O762    1.290   .     A
C726   O811    1.278   .     S
C727   O764    1.299   .     A
C727   C729    1.443   .     S
C727   O813    1.290   .     S
C728   C737    1.402   .     A
C728   H750    1.084   .     S
C728   C309    1.391   1_556 S
C729   C740    1.385   .     A
C729   C741    1.401   .     A
C730   C731    1.386   .     A
C730   H848    1.083   1_455 S
C731   C301    1.395   1_556 S
C731   H321    1.083   1_556 S
C732   C735    1.410   .     A
C732   C301    1.432   1_556 S
C732   C304    1.411   1_556 S
C733   I755    2.141   .     S
C734   O766    1.399   .     S
C734   H746    1.109   .     S
C734   H745    1.106   .     S
C734   H744    1.110   .     S
C735   C739    1.417   .     A
C736   C740    1.380   .     A
C737   C738    1.387   .     A
C737   C304    1.421   1_556 S
C738   H749    1.084   .     S
C738   C739    1.384   .     A
C739   H754    1.083   .     S
C740   H751    1.078   .     S
C741   H790    1.083   .     S
H742   C837    1.083   1_455 S
H747   C437    1.084   1_565 S
H748   N756    1.029   .     S
H752   C778    1.083   .     S
N756   Zn768   2.024   .     S
N756   N757    1.291   .     D
N757   Zn767   2.024   .     S
N757   O766    1.347   .     S
O758   Zn767   1.956   .     S
O758   C769    1.280   .     S
O759   Zn768   1.977   .     S
O760   Zn767   1.968   .     S
O760   C772    1.295   .     S
O761   Zn768   1.931   .     S
O762   Zn767   1.977   .     S
O763   Zn768   1.956   .     S
O763   C822    1.278   1_455 S
O764   Zn767   1.931   .     S
O765   Zn768   1.968   .     S
O765   C823    1.290   1_455 S
C769   O807    1.289   .     A
C769   C771    1.402   .     S
C770   C772    1.453   .     S
C770   C783    1.405   .     A
C770   C778    1.399   .     A
C771   C437    1.335   1_565 S
C771   H503    1.088   1_565 S
C772   O809    1.298   .     A
C773   C774    1.400   .     S
C774   O810    1.290   .     A
C774   O859    1.278   .     S
C775   O812    1.299   .     A
C775   C777    1.443   .     S
C775   O861    1.290   .     S
C776   C785    1.402   .     A
C776   H798    1.084   .     S
C776   C357    1.391   1_556 S
C777   C788    1.385   .     A
C777   C789    1.401   .     A
C778   C779    1.386   .     A
C779   C349    1.395   1_556 S
C779   H369    1.083   1_556 S
C780   C783    1.410   .     A
C780   C349    1.432   1_556 S
C780   C352    1.411   1_556 S
C781   I803    2.141   .     S
C782   O814    1.399   .     S
C782   H794    1.109   .     S
C782   H793    1.106   .     S
C782   H792    1.110   .     S
C783   C787    1.417   .     A
C784   C788    1.380   .     A
C785   C786    1.387   .     A
C785   C352    1.421   1_556 S
C786   H797    1.084   .     S
C786   C787    1.384   .     A
C787   H802    1.083   .     S
C788   H799    1.078   .     S
C789   H838    1.083   .     S
H795   C485    1.084   1_565 S
H796   N804    1.029   .     S
H800   C826    1.083   .     S
N804   Zn816   2.024   .     S
N804   N805    1.291   .     D
N805   Zn815   2.024   .     S
N805   O814    1.347   .     S
O806   Zn815   1.956   .     S
O806   C817    1.280   .     S
O807   Zn816   1.977   .     S
O808   Zn815   1.968   .     S
O808   C820    1.295   .     S
O809   Zn816   1.931   .     S
O810   Zn815   1.977   .     S
O811   Zn816   1.956   .     S
O812   Zn815   1.931   .     S
O813   Zn816   1.968   .     S
C817   O855    1.289   .     A
C817   C819    1.402   .     S
C818   C820    1.453   .     S
C818   C831    1.405   .     A
C818   C826    1.399   .     A
C819   C485    1.335   1_565 S
C819   H551    1.088   1_565 S
C820   O857    1.298   .     A
C821   C822    1.400   .     S
C821   C579    1.335   1_655 S
C822   O858    1.290   .     A
C822   O763    1.278   1_655 S
C823   O860    1.299   .     A
C823   C825    1.443   .     S
C823   O765    1.290   1_655 S
C824   C833    1.402   .     A
C824   H846    1.084   .     S
C824   C405    1.391   1_556 S
C825   C836    1.385   .     A
C825   C837    1.401   .     A
C826   C827    1.386   .     A
C827   C397    1.395   1_556 S
C827   H417    1.083   1_556 S
C828   C831    1.410   .     A
C828   C397    1.432   1_556 S
C828   C400    1.411   1_556 S
C829   I851    2.141   .     S
C830   O862    1.399   .     S
C830   H842    1.109   .     S
C830   H841    1.106   .     S
C830   H840    1.110   .     S
C831   C835    1.417   .     A
C832   C836    1.380   .     A
C833   C834    1.387   .     A
C833   C400    1.421   1_556 S
C834   H845    1.084   .     S
C834   C835    1.384   .     A
C835   H850    1.083   .     S
C836   H847    1.078   .     S
C837   H742    1.083   1_655 S
H843   C533    1.084   1_565 S
H844   N852    1.029   .     S
H848   C730    1.083   1_655 S
N852   Zn864   2.024   .     S
N852   N853    1.291   .     D
N853   Zn863   2.024   .     S
N853   O862    1.347   .     S
O854   Zn863   1.956   .     S
O854   C721    1.280   1_655 S
O855   Zn864   1.977   .     S
O856   Zn863   1.968   .     S
O856   C724    1.295   1_655 S
O857   Zn864   1.931   .     S
O858   Zn863   1.977   .     S
O859   Zn864   1.956   .     S
O860   Zn863   1.931   .     S
O861   Zn864   1.968   .     S
