data_str_m1_o10_o18_pcu_sym.37
_audit_creation_date              2020-01-03
_audit_creation_method            'Materials Studio'
_symmetry_space_group_name_H-M    'P1'
_symmetry_Int_Tables_number       1
_symmetry_cell_setting            triclinic
loop_
_symmetry_equiv_pos_as_xyz
  x,y,z
_cell_length_a                    32.5548
_cell_length_b                    32.6798
_cell_length_c                    35.6628
_cell_angle_alpha                 98.3829
_cell_angle_beta                  72.6864
_cell_angle_gamma                 98.5061
loop_
_atom_site_label
_atom_site_type_symbol
_atom_site_fract_x
_atom_site_fract_y
_atom_site_fract_z
_atom_site_U_iso_or_equiv
_atom_site_adp_type
_atom_site_occupancy
Br1    Br    0.03436   0.20620   0.19585   0.00000  Uiso   1.00
Br2    Br    0.09661   0.32833   0.30049   0.00000  Uiso   1.00
Br3    Br    0.25641   0.16232   0.40436   0.00000  Uiso   1.00
C4     C     0.05241   0.15980   0.25908   0.00000  Uiso   1.00
C5     C     0.22107   0.15485   0.45749   0.00000  Uiso   1.00
C6     C     0.23865   0.13237   0.47799   0.00000  Uiso   1.00
C7     C     0.28112   0.17364   0.24110   0.00000  Uiso   1.00
C8     C     0.22326   0.13319   0.01889   0.00000  Uiso   1.00
C9     C     0.19083   0.15903   0.04059   0.00000  Uiso   1.00
C10    C     0.24188   0.11003   0.03848   0.00000  Uiso   1.00
C11    C     0.22926   0.11273   0.07953   0.00000  Uiso   1.00
C12    C     0.17786   0.16034   0.08217   0.00000  Uiso   1.00
C13    C     0.32733   0.17643   0.23707   0.00000  Uiso   1.00
C14    C     0.00719   0.15815   0.26203   0.00000  Uiso   1.00
C15    C     0.11467   0.23203   0.41913   0.00000  Uiso   1.00
C16    C     0.18014   0.32216   0.23953   0.00000  Uiso   1.00
C17    C     0.15021   0.01285   0.26274   0.00000  Uiso   1.00
C18    C     0.15650   0.05627   0.25835   0.00000  Uiso   1.00
C19    C     0.17658   0.27768   0.24156   0.00000  Uiso   1.00
C20    C     0.18824   0.14542   0.14399   0.00000  Uiso   1.00
C21    C     0.14553   0.18799   0.35621   0.00000  Uiso   1.00
C22    C     0.13941   0.19979   0.39880   0.00000  Uiso   1.00
C23    C     0.19746   0.13802   0.10126   0.00000  Uiso   1.00
C24    C     0.11038   0.24354   0.45917   0.00000  Uiso   1.00
C25    C     0.16035   0.17993   0.41891   0.00000  Uiso   1.00
C26    C     0.16032   0.19404   0.45804   0.00000  Uiso   1.00
C27    C     0.13233   0.22423   0.47892   0.00000  Uiso   1.00
C28    C     0.18461   0.17665   0.47783   0.00000  Uiso   1.00
C29    C     0.17271   0.18245   0.01997   0.00000  Uiso   1.00
C30    C     0.14408   0.21239   0.03992   0.00000  Uiso   1.00
C31    C     0.12557   0.23392   0.01945   0.00000  Uiso   1.00
H32    H     0.10431   0.25704   0.03577   0.00000  Uiso   1.00
H33    H     0.17521   0.15235   0.40415   0.00000  Uiso   1.00
H34    H     0.13630   0.22097   0.07135   0.00000  Uiso   1.00
H35    H     0.31777   0.14165   0.28541   0.00000  Uiso   1.00
H36    H     0.24494   0.09586   0.09437   0.00000  Uiso   1.00
H37    H     0.08973   0.26739   0.47476   0.00000  Uiso   1.00
H38    H     0.26700   0.09060   0.02205   0.00000  Uiso   1.00
H39    H     0.20839   0.00273   0.21840   0.00000  Uiso   1.00
H40    H     0.15296   0.17865   0.10073   0.00000  Uiso   1.00
H41    H     0.26594   0.11540   0.46189   0.00000  Uiso   1.00
H42    H     0.09810   0.24789   0.40428   0.00000  Uiso   1.00
O43    O     0.16667   0.16667   0.25000   0.00000  Uiso   1.00
O44    O     0.15693   0.12393   0.16625   0.00000  Uiso   1.00
O45    O     0.12687   0.20646   0.33749   0.00000  Uiso   1.00
O46    O     0.21088   0.17493   0.15877   0.00000  Uiso   1.00
O47    O     0.17198   0.16135   0.33749   0.00000  Uiso   1.00
O48    O     0.17849   0.08101   0.27820   0.00000  Uiso   1.00
O49    O     0.14581   0.26136   0.26767   0.00000  Uiso   1.00
O50    O     0.07452   0.13251   0.23607   0.00000  Uiso   1.00
O51    O     0.26785   0.19179   0.21805   0.00000  Uiso   1.00
O52    O     0.06990   0.18960   0.27820   0.00000  Uiso   1.00
O53    O     0.25440   0.15277   0.26767   0.00000  Uiso   1.00
O54    O     0.13800   0.06903   0.23607   0.00000  Uiso   1.00
O55    O     0.20437   0.25527   0.21805   0.00000  Uiso   1.00
Zn56   Zn    0.19244   0.14090   0.28277   0.00000  Uiso   1.00
Zn57   Zn    0.13459   0.12378   0.22257   0.00000  Uiso   1.00
Zn58   Zn    0.21166   0.19664   0.21188   0.00000  Uiso   1.00
Zn59   Zn    0.12798   0.20535   0.28277   0.00000  Uiso   1.00
Br60   Br    0.36769   0.20620   0.19585   0.00000  Uiso   1.00
Br61   Br    0.42994   0.32833   0.30049   0.00000  Uiso   1.00
Br62   Br    0.58974   0.16232   0.40436   0.00000  Uiso   1.00
C63    C     0.38575   0.15980   0.25908   0.00000  Uiso   1.00
C64    C     0.55440   0.15485   0.45749   0.00000  Uiso   1.00
C65    C     0.57198   0.13237   0.47799   0.00000  Uiso   1.00
C66    C     0.61445   0.17364   0.24110   0.00000  Uiso   1.00
C67    C     0.55660   0.13319   0.01889   0.00000  Uiso   1.00
C68    C     0.52416   0.15903   0.04059   0.00000  Uiso   1.00
C69    C     0.57521   0.11003   0.03848   0.00000  Uiso   1.00
C70    C     0.56259   0.11273   0.07953   0.00000  Uiso   1.00
C71    C     0.51119   0.16034   0.08217   0.00000  Uiso   1.00
C72    C     0.66066   0.17643   0.23707   0.00000  Uiso   1.00
C73    C     0.34052   0.15815   0.26203   0.00000  Uiso   1.00
C74    C     0.44800   0.23203   0.41913   0.00000  Uiso   1.00
C75    C     0.51347   0.32216   0.23953   0.00000  Uiso   1.00
C76    C     0.48354   0.01285   0.26274   0.00000  Uiso   1.00
C77    C     0.48983   0.05627   0.25835   0.00000  Uiso   1.00
C78    C     0.50991   0.27768   0.24156   0.00000  Uiso   1.00
C79    C     0.52158   0.14542   0.14399   0.00000  Uiso   1.00
C80    C     0.47887   0.18799   0.35621   0.00000  Uiso   1.00
C81    C     0.47275   0.19979   0.39880   0.00000  Uiso   1.00
C82    C     0.53079   0.13802   0.10126   0.00000  Uiso   1.00
C83    C     0.44371   0.24354   0.45917   0.00000  Uiso   1.00
C84    C     0.49369   0.17993   0.41891   0.00000  Uiso   1.00
C85    C     0.49365   0.19404   0.45804   0.00000  Uiso   1.00
C86    C     0.46567   0.22423   0.47892   0.00000  Uiso   1.00
C87    C     0.51795   0.17665   0.47783   0.00000  Uiso   1.00
C88    C     0.50604   0.18245   0.01997   0.00000  Uiso   1.00
C89    C     0.47741   0.21239   0.03992   0.00000  Uiso   1.00
C90    C     0.45890   0.23392   0.01945   0.00000  Uiso   1.00
H91    H     0.43764   0.25704   0.03577   0.00000  Uiso   1.00
H92    H     0.50854   0.15235   0.40415   0.00000  Uiso   1.00
H93    H     0.46964   0.22097   0.07135   0.00000  Uiso   1.00
H94    H     0.65110   0.14165   0.28541   0.00000  Uiso   1.00
H95    H     0.57827   0.09586   0.09437   0.00000  Uiso   1.00
H96    H     0.42306   0.26739   0.47476   0.00000  Uiso   1.00
H97    H     0.60033   0.09060   0.02205   0.00000  Uiso   1.00
H98    H     0.54172   0.00273   0.21840   0.00000  Uiso   1.00
H99    H     0.48630   0.17865   0.10073   0.00000  Uiso   1.00
H100   H     0.59928   0.11540   0.46189   0.00000  Uiso   1.00
H101   H     0.43143   0.24789   0.40428   0.00000  Uiso   1.00
O102   O     0.50000   0.16667   0.25000   0.00000  Uiso   1.00
O103   O     0.49027   0.12393   0.16625   0.00000  Uiso   1.00
O104   O     0.46020   0.20646   0.33749   0.00000  Uiso   1.00
O105   O     0.54421   0.17493   0.15877   0.00000  Uiso   1.00
O106   O     0.50532   0.16135   0.33749   0.00000  Uiso   1.00
O107   O     0.51182   0.08101   0.27820   0.00000  Uiso   1.00
O108   O     0.47914   0.26136   0.26767   0.00000  Uiso   1.00
O109   O     0.40785   0.13251   0.23607   0.00000  Uiso   1.00
O110   O     0.60119   0.19179   0.21805   0.00000  Uiso   1.00
O111   O     0.40323   0.18960   0.27820   0.00000  Uiso   1.00
O112   O     0.58773   0.15277   0.26767   0.00000  Uiso   1.00
O113   O     0.47133   0.06903   0.23607   0.00000  Uiso   1.00
O114   O     0.53771   0.25527   0.21805   0.00000  Uiso   1.00
Zn115  Zn    0.52577   0.14090   0.28277   0.00000  Uiso   1.00
Zn116  Zn    0.46792   0.12378   0.22257   0.00000  Uiso   1.00
Zn117  Zn    0.54500   0.19664   0.21188   0.00000  Uiso   1.00
Zn118  Zn    0.46131   0.20535   0.28277   0.00000  Uiso   1.00
Br119  Br    0.70102   0.20620   0.19585   0.00000  Uiso   1.00
Br120  Br    0.76327   0.32833   0.30049   0.00000  Uiso   1.00
Br121  Br    0.92308   0.16232   0.40436   0.00000  Uiso   1.00
C122   C     0.71908   0.15980   0.25908   0.00000  Uiso   1.00
C123   C     0.88774   0.15485   0.45749   0.00000  Uiso   1.00
C124   C     0.90532   0.13237   0.47799   0.00000  Uiso   1.00
C125   C     0.94779   0.17364   0.24110   0.00000  Uiso   1.00
C126   C     0.88993   0.13319   0.01889   0.00000  Uiso   1.00
C127   C     0.85750   0.15903   0.04059   0.00000  Uiso   1.00
C128   C     0.90855   0.11003   0.03848   0.00000  Uiso   1.00
C129   C     0.89592   0.11273   0.07953   0.00000  Uiso   1.00
C130   C     0.84452   0.16034   0.08217   0.00000  Uiso   1.00
C131   C     0.99399   0.17643   0.23707   0.00000  Uiso   1.00
C132   C     0.67385   0.15815   0.26203   0.00000  Uiso   1.00
C133   C     0.78133   0.23203   0.41913   0.00000  Uiso   1.00
C134   C     0.84680   0.32216   0.23953   0.00000  Uiso   1.00
C135   C     0.81687   0.01285   0.26274   0.00000  Uiso   1.00
C136   C     0.82316   0.05627   0.25835   0.00000  Uiso   1.00
C137   C     0.84324   0.27768   0.24156   0.00000  Uiso   1.00
C138   C     0.85491   0.14542   0.14399   0.00000  Uiso   1.00
C139   C     0.81220   0.18799   0.35621   0.00000  Uiso   1.00
C140   C     0.80608   0.19979   0.39880   0.00000  Uiso   1.00
C141   C     0.86412   0.13802   0.10126   0.00000  Uiso   1.00
C142   C     0.77704   0.24354   0.45917   0.00000  Uiso   1.00
C143   C     0.82702   0.17993   0.41891   0.00000  Uiso   1.00
C144   C     0.82699   0.19404   0.45804   0.00000  Uiso   1.00
C145   C     0.79900   0.22423   0.47892   0.00000  Uiso   1.00
C146   C     0.85128   0.17665   0.47783   0.00000  Uiso   1.00
C147   C     0.83938   0.18245   0.01997   0.00000  Uiso   1.00
C148   C     0.81075   0.21239   0.03992   0.00000  Uiso   1.00
C149   C     0.79223   0.23392   0.01945   0.00000  Uiso   1.00
H150   H     0.77097   0.25704   0.03577   0.00000  Uiso   1.00
H151   H     0.84188   0.15235   0.40415   0.00000  Uiso   1.00
H152   H     0.80297   0.22097   0.07135   0.00000  Uiso   1.00
H153   H     0.98444   0.14165   0.28541   0.00000  Uiso   1.00
H154   H     0.91160   0.09586   0.09437   0.00000  Uiso   1.00
H155   H     0.75639   0.26739   0.47476   0.00000  Uiso   1.00
H156   H     0.93366   0.09060   0.02205   0.00000  Uiso   1.00
H157   H     0.87506   0.00273   0.21840   0.00000  Uiso   1.00
H158   H     0.81963   0.17865   0.10073   0.00000  Uiso   1.00
H159   H     0.93261   0.11540   0.46189   0.00000  Uiso   1.00
H160   H     0.76476   0.24789   0.40428   0.00000  Uiso   1.00
O161   O     0.83333   0.16667   0.25000   0.00000  Uiso   1.00
O162   O     0.82360   0.12393   0.16625   0.00000  Uiso   1.00
O163   O     0.79354   0.20646   0.33749   0.00000  Uiso   1.00
O164   O     0.87755   0.17493   0.15877   0.00000  Uiso   1.00
O165   O     0.83865   0.16135   0.33749   0.00000  Uiso   1.00
O166   O     0.84515   0.08101   0.27820   0.00000  Uiso   1.00
O167   O     0.81247   0.26136   0.26767   0.00000  Uiso   1.00
O168   O     0.74119   0.13251   0.23607   0.00000  Uiso   1.00
O169   O     0.93452   0.19179   0.21805   0.00000  Uiso   1.00
O170   O     0.73656   0.18960   0.27820   0.00000  Uiso   1.00
O171   O     0.92106   0.15277   0.26767   0.00000  Uiso   1.00
O172   O     0.80467   0.06903   0.23607   0.00000  Uiso   1.00
O173   O     0.87104   0.25527   0.21805   0.00000  Uiso   1.00
Zn174  Zn    0.85910   0.14090   0.28277   0.00000  Uiso   1.00
Zn175  Zn    0.80125   0.12378   0.22257   0.00000  Uiso   1.00
Zn176  Zn    0.87833   0.19664   0.21188   0.00000  Uiso   1.00
Zn177  Zn    0.79465   0.20535   0.28277   0.00000  Uiso   1.00
Br178  Br    0.03436   0.53953   0.19585   0.00000  Uiso   1.00
Br179  Br    0.09661   0.66166   0.30049   0.00000  Uiso   1.00
Br180  Br    0.25641   0.49565   0.40436   0.00000  Uiso   1.00
C181   C     0.05241   0.49314   0.25908   0.00000  Uiso   1.00
C182   C     0.22107   0.48818   0.45749   0.00000  Uiso   1.00
C183   C     0.23865   0.46570   0.47799   0.00000  Uiso   1.00
C184   C     0.28112   0.50698   0.24110   0.00000  Uiso   1.00
C185   C     0.22326   0.46652   0.01889   0.00000  Uiso   1.00
C186   C     0.19083   0.49236   0.04059   0.00000  Uiso   1.00
C187   C     0.24188   0.44336   0.03848   0.00000  Uiso   1.00
C188   C     0.22926   0.44606   0.07953   0.00000  Uiso   1.00
C189   C     0.17786   0.49367   0.08217   0.00000  Uiso   1.00
C190   C     0.32733   0.50976   0.23707   0.00000  Uiso   1.00
C191   C     0.00719   0.49149   0.26203   0.00000  Uiso   1.00
C192   C     0.11467   0.56536   0.41913   0.00000  Uiso   1.00
C193   C     0.18014   0.65549   0.23953   0.00000  Uiso   1.00
C194   C     0.15021   0.34618   0.26274   0.00000  Uiso   1.00
C195   C     0.15650   0.38960   0.25835   0.00000  Uiso   1.00
C196   C     0.17658   0.61101   0.24156   0.00000  Uiso   1.00
C197   C     0.18824   0.47875   0.14399   0.00000  Uiso   1.00
C198   C     0.14553   0.52132   0.35621   0.00000  Uiso   1.00
C199   C     0.13941   0.53312   0.39880   0.00000  Uiso   1.00
C200   C     0.19746   0.47136   0.10126   0.00000  Uiso   1.00
C201   C     0.11038   0.57687   0.45917   0.00000  Uiso   1.00
C202   C     0.16035   0.51326   0.41891   0.00000  Uiso   1.00
C203   C     0.16032   0.52737   0.45804   0.00000  Uiso   1.00
C204   C     0.13233   0.55757   0.47892   0.00000  Uiso   1.00
C205   C     0.18461   0.50998   0.47783   0.00000  Uiso   1.00
C206   C     0.17271   0.51578   0.01997   0.00000  Uiso   1.00
C207   C     0.14408   0.54572   0.03992   0.00000  Uiso   1.00
C208   C     0.12557   0.56725   0.01945   0.00000  Uiso   1.00
H209   H     0.10431   0.59038   0.03577   0.00000  Uiso   1.00
H210   H     0.17521   0.48568   0.40415   0.00000  Uiso   1.00
H211   H     0.13630   0.55430   0.07135   0.00000  Uiso   1.00
H212   H     0.31777   0.47498   0.28541   0.00000  Uiso   1.00
H213   H     0.24494   0.42919   0.09437   0.00000  Uiso   1.00
H214   H     0.08973   0.60072   0.47476   0.00000  Uiso   1.00
H215   H     0.26700   0.42394   0.02205   0.00000  Uiso   1.00
H216   H     0.20839   0.33606   0.21840   0.00000  Uiso   1.00
H217   H     0.15296   0.51198   0.10073   0.00000  Uiso   1.00
H218   H     0.26594   0.44873   0.46189   0.00000  Uiso   1.00
H219   H     0.09810   0.58122   0.40428   0.00000  Uiso   1.00
O220   O     0.16667   0.50000   0.25000   0.00000  Uiso   1.00
O221   O     0.15693   0.45726   0.16625   0.00000  Uiso   1.00
O222   O     0.12687   0.53979   0.33749   0.00000  Uiso   1.00
O223   O     0.21088   0.50826   0.15877   0.00000  Uiso   1.00
O224   O     0.17198   0.49468   0.33749   0.00000  Uiso   1.00
O225   O     0.17849   0.41434   0.27820   0.00000  Uiso   1.00
O226   O     0.14581   0.59469   0.26767   0.00000  Uiso   1.00
O227   O     0.07452   0.46584   0.23607   0.00000  Uiso   1.00
O228   O     0.26785   0.52512   0.21805   0.00000  Uiso   1.00
O229   O     0.06990   0.52293   0.27820   0.00000  Uiso   1.00
O230   O     0.25440   0.48610   0.26767   0.00000  Uiso   1.00
O231   O     0.13800   0.40236   0.23607   0.00000  Uiso   1.00
O232   O     0.20437   0.58860   0.21805   0.00000  Uiso   1.00
Zn233  Zn    0.19244   0.47423   0.28277   0.00000  Uiso   1.00
Zn234  Zn    0.13459   0.45711   0.22257   0.00000  Uiso   1.00
Zn235  Zn    0.21166   0.52997   0.21188   0.00000  Uiso   1.00
Zn236  Zn    0.12798   0.53868   0.28277   0.00000  Uiso   1.00
Br237  Br    0.36769   0.53953   0.19585   0.00000  Uiso   1.00
Br238  Br    0.42994   0.66166   0.30049   0.00000  Uiso   1.00
Br239  Br    0.58974   0.49565   0.40436   0.00000  Uiso   1.00
C240   C     0.38575   0.49314   0.25908   0.00000  Uiso   1.00
C241   C     0.55440   0.48818   0.45749   0.00000  Uiso   1.00
C242   C     0.57198   0.46570   0.47799   0.00000  Uiso   1.00
C243   C     0.61445   0.50698   0.24110   0.00000  Uiso   1.00
C244   C     0.55660   0.46652   0.01889   0.00000  Uiso   1.00
C245   C     0.52416   0.49236   0.04059   0.00000  Uiso   1.00
C246   C     0.57521   0.44336   0.03848   0.00000  Uiso   1.00
C247   C     0.56259   0.44606   0.07953   0.00000  Uiso   1.00
C248   C     0.51119   0.49367   0.08217   0.00000  Uiso   1.00
C249   C     0.66066   0.50976   0.23707   0.00000  Uiso   1.00
C250   C     0.34052   0.49149   0.26203   0.00000  Uiso   1.00
C251   C     0.44800   0.56536   0.41913   0.00000  Uiso   1.00
C252   C     0.51347   0.65549   0.23953   0.00000  Uiso   1.00
C253   C     0.48354   0.34618   0.26274   0.00000  Uiso   1.00
C254   C     0.48983   0.38960   0.25835   0.00000  Uiso   1.00
C255   C     0.50991   0.61101   0.24156   0.00000  Uiso   1.00
C256   C     0.52158   0.47875   0.14399   0.00000  Uiso   1.00
C257   C     0.47887   0.52132   0.35621   0.00000  Uiso   1.00
C258   C     0.47275   0.53312   0.39880   0.00000  Uiso   1.00
C259   C     0.53079   0.47136   0.10126   0.00000  Uiso   1.00
C260   C     0.44371   0.57687   0.45917   0.00000  Uiso   1.00
C261   C     0.49369   0.51326   0.41891   0.00000  Uiso   1.00
C262   C     0.49365   0.52737   0.45804   0.00000  Uiso   1.00
C263   C     0.46567   0.55757   0.47892   0.00000  Uiso   1.00
C264   C     0.51795   0.50998   0.47783   0.00000  Uiso   1.00
C265   C     0.50604   0.51578   0.01997   0.00000  Uiso   1.00
C266   C     0.47741   0.54572   0.03992   0.00000  Uiso   1.00
C267   C     0.45890   0.56725   0.01945   0.00000  Uiso   1.00
H268   H     0.43764   0.59038   0.03577   0.00000  Uiso   1.00
H269   H     0.50854   0.48568   0.40415   0.00000  Uiso   1.00
H270   H     0.46964   0.55430   0.07135   0.00000  Uiso   1.00
H271   H     0.65110   0.47498   0.28541   0.00000  Uiso   1.00
H272   H     0.57827   0.42919   0.09437   0.00000  Uiso   1.00
H273   H     0.42306   0.60072   0.47476   0.00000  Uiso   1.00
H274   H     0.60033   0.42394   0.02205   0.00000  Uiso   1.00
H275   H     0.54172   0.33606   0.21840   0.00000  Uiso   1.00
H276   H     0.48630   0.51198   0.10073   0.00000  Uiso   1.00
H277   H     0.59928   0.44873   0.46189   0.00000  Uiso   1.00
H278   H     0.43143   0.58122   0.40428   0.00000  Uiso   1.00
O279   O     0.50000   0.50000   0.25000   0.00000  Uiso   1.00
O280   O     0.49027   0.45726   0.16625   0.00000  Uiso   1.00
O281   O     0.46020   0.53979   0.33749   0.00000  Uiso   1.00
O282   O     0.54421   0.50826   0.15877   0.00000  Uiso   1.00
O283   O     0.50532   0.49468   0.33749   0.00000  Uiso   1.00
O284   O     0.51182   0.41434   0.27820   0.00000  Uiso   1.00
O285   O     0.47914   0.59469   0.26767   0.00000  Uiso   1.00
O286   O     0.40785   0.46584   0.23607   0.00000  Uiso   1.00
O287   O     0.60119   0.52512   0.21805   0.00000  Uiso   1.00
O288   O     0.40323   0.52293   0.27820   0.00000  Uiso   1.00
O289   O     0.58773   0.48610   0.26767   0.00000  Uiso   1.00
O290   O     0.47133   0.40236   0.23607   0.00000  Uiso   1.00
O291   O     0.53771   0.58860   0.21805   0.00000  Uiso   1.00
Zn292  Zn    0.52577   0.47423   0.28277   0.00000  Uiso   1.00
Zn293  Zn    0.46792   0.45711   0.22257   0.00000  Uiso   1.00
Zn294  Zn    0.54500   0.52997   0.21188   0.00000  Uiso   1.00
Zn295  Zn    0.46131   0.53868   0.28277   0.00000  Uiso   1.00
Br296  Br    0.70102   0.53953   0.19585   0.00000  Uiso   1.00
Br297  Br    0.76327   0.66166   0.30049   0.00000  Uiso   1.00
Br298  Br    0.92308   0.49565   0.40436   0.00000  Uiso   1.00
C299   C     0.71908   0.49314   0.25908   0.00000  Uiso   1.00
C300   C     0.88774   0.48818   0.45749   0.00000  Uiso   1.00
C301   C     0.90532   0.46570   0.47799   0.00000  Uiso   1.00
C302   C     0.94779   0.50698   0.24110   0.00000  Uiso   1.00
C303   C     0.88993   0.46652   0.01889   0.00000  Uiso   1.00
C304   C     0.85750   0.49236   0.04059   0.00000  Uiso   1.00
C305   C     0.90855   0.44336   0.03848   0.00000  Uiso   1.00
C306   C     0.89592   0.44606   0.07953   0.00000  Uiso   1.00
C307   C     0.84452   0.49367   0.08217   0.00000  Uiso   1.00
C308   C     0.99399   0.50976   0.23707   0.00000  Uiso   1.00
C309   C     0.67385   0.49149   0.26203   0.00000  Uiso   1.00
C310   C     0.78133   0.56536   0.41913   0.00000  Uiso   1.00
C311   C     0.84680   0.65549   0.23953   0.00000  Uiso   1.00
C312   C     0.81687   0.34618   0.26274   0.00000  Uiso   1.00
C313   C     0.82316   0.38960   0.25835   0.00000  Uiso   1.00
C314   C     0.84324   0.61101   0.24156   0.00000  Uiso   1.00
C315   C     0.85491   0.47875   0.14399   0.00000  Uiso   1.00
C316   C     0.81220   0.52132   0.35621   0.00000  Uiso   1.00
C317   C     0.80608   0.53312   0.39880   0.00000  Uiso   1.00
C318   C     0.86412   0.47136   0.10126   0.00000  Uiso   1.00
C319   C     0.77704   0.57687   0.45917   0.00000  Uiso   1.00
C320   C     0.82702   0.51326   0.41891   0.00000  Uiso   1.00
C321   C     0.82699   0.52737   0.45804   0.00000  Uiso   1.00
C322   C     0.79900   0.55757   0.47892   0.00000  Uiso   1.00
C323   C     0.85128   0.50998   0.47783   0.00000  Uiso   1.00
C324   C     0.83938   0.51578   0.01997   0.00000  Uiso   1.00
C325   C     0.81075   0.54572   0.03992   0.00000  Uiso   1.00
C326   C     0.79223   0.56725   0.01945   0.00000  Uiso   1.00
H327   H     0.77097   0.59038   0.03577   0.00000  Uiso   1.00
H328   H     0.84188   0.48568   0.40415   0.00000  Uiso   1.00
H329   H     0.80297   0.55430   0.07135   0.00000  Uiso   1.00
H330   H     0.98444   0.47498   0.28541   0.00000  Uiso   1.00
H331   H     0.91160   0.42919   0.09437   0.00000  Uiso   1.00
H332   H     0.75639   0.60072   0.47476   0.00000  Uiso   1.00
H333   H     0.93366   0.42394   0.02205   0.00000  Uiso   1.00
H334   H     0.87506   0.33606   0.21840   0.00000  Uiso   1.00
H335   H     0.81963   0.51198   0.10073   0.00000  Uiso   1.00
H336   H     0.93261   0.44873   0.46189   0.00000  Uiso   1.00
H337   H     0.76476   0.58122   0.40428   0.00000  Uiso   1.00
O338   O     0.83333   0.50000   0.25000   0.00000  Uiso   1.00
O339   O     0.82360   0.45726   0.16625   0.00000  Uiso   1.00
O340   O     0.79354   0.53979   0.33749   0.00000  Uiso   1.00
O341   O     0.87755   0.50826   0.15877   0.00000  Uiso   1.00
O342   O     0.83865   0.49468   0.33749   0.00000  Uiso   1.00
O343   O     0.84515   0.41434   0.27820   0.00000  Uiso   1.00
O344   O     0.81247   0.59469   0.26767   0.00000  Uiso   1.00
O345   O     0.74119   0.46584   0.23607   0.00000  Uiso   1.00
O346   O     0.93452   0.52512   0.21805   0.00000  Uiso   1.00
O347   O     0.73656   0.52293   0.27820   0.00000  Uiso   1.00
O348   O     0.92106   0.48610   0.26767   0.00000  Uiso   1.00
O349   O     0.80467   0.40236   0.23607   0.00000  Uiso   1.00
O350   O     0.87104   0.58860   0.21805   0.00000  Uiso   1.00
Zn351  Zn    0.85910   0.47423   0.28277   0.00000  Uiso   1.00
Zn352  Zn    0.80125   0.45711   0.22257   0.00000  Uiso   1.00
Zn353  Zn    0.87833   0.52997   0.21188   0.00000  Uiso   1.00
Zn354  Zn    0.79465   0.53868   0.28277   0.00000  Uiso   1.00
Br355  Br    0.03436   0.87286   0.19585   0.00000  Uiso   1.00
Br356  Br    0.09661   0.99499   0.30049   0.00000  Uiso   1.00
Br357  Br    0.25641   0.82899   0.40436   0.00000  Uiso   1.00
C358   C     0.05241   0.82647   0.25908   0.00000  Uiso   1.00
C359   C     0.22107   0.82152   0.45749   0.00000  Uiso   1.00
C360   C     0.23865   0.79903   0.47799   0.00000  Uiso   1.00
C361   C     0.28112   0.84031   0.24110   0.00000  Uiso   1.00
C362   C     0.22326   0.79985   0.01889   0.00000  Uiso   1.00
C363   C     0.19083   0.82570   0.04059   0.00000  Uiso   1.00
C364   C     0.24188   0.77669   0.03848   0.00000  Uiso   1.00
C365   C     0.22926   0.77939   0.07953   0.00000  Uiso   1.00
C366   C     0.17786   0.82701   0.08217   0.00000  Uiso   1.00
C367   C     0.32733   0.84310   0.23707   0.00000  Uiso   1.00
C368   C     0.00719   0.82482   0.26203   0.00000  Uiso   1.00
C369   C     0.11467   0.89869   0.41913   0.00000  Uiso   1.00
C370   C     0.18014   0.98883   0.23953   0.00000  Uiso   1.00
C371   C     0.15021   0.67952   0.26274   0.00000  Uiso   1.00
C372   C     0.15650   0.72293   0.25835   0.00000  Uiso   1.00
C373   C     0.17658   0.94434   0.24156   0.00000  Uiso   1.00
C374   C     0.18824   0.81209   0.14399   0.00000  Uiso   1.00
C375   C     0.14553   0.85466   0.35621   0.00000  Uiso   1.00
C376   C     0.13941   0.86646   0.39880   0.00000  Uiso   1.00
C377   C     0.19746   0.80469   0.10126   0.00000  Uiso   1.00
C378   C     0.11038   0.91020   0.45917   0.00000  Uiso   1.00
C379   C     0.16035   0.84660   0.41891   0.00000  Uiso   1.00
C380   C     0.16032   0.86071   0.45804   0.00000  Uiso   1.00
C381   C     0.13233   0.89090   0.47892   0.00000  Uiso   1.00
C382   C     0.18461   0.84332   0.47783   0.00000  Uiso   1.00
C383   C     0.17271   0.84912   0.01997   0.00000  Uiso   1.00
C384   C     0.14408   0.87906   0.03992   0.00000  Uiso   1.00
C385   C     0.12557   0.90058   0.01945   0.00000  Uiso   1.00
H386   H     0.10431   0.92371   0.03577   0.00000  Uiso   1.00
H387   H     0.17521   0.81902   0.40415   0.00000  Uiso   1.00
H388   H     0.13630   0.88764   0.07135   0.00000  Uiso   1.00
H389   H     0.31777   0.80832   0.28541   0.00000  Uiso   1.00
H390   H     0.24494   0.76253   0.09437   0.00000  Uiso   1.00
H391   H     0.08973   0.93405   0.47476   0.00000  Uiso   1.00
H392   H     0.26700   0.75727   0.02205   0.00000  Uiso   1.00
H393   H     0.20839   0.66939   0.21840   0.00000  Uiso   1.00
H394   H     0.15296   0.84532   0.10073   0.00000  Uiso   1.00
H395   H     0.26594   0.78206   0.46189   0.00000  Uiso   1.00
H396   H     0.09810   0.91456   0.40428   0.00000  Uiso   1.00
O397   O     0.16667   0.83333   0.25000   0.00000  Uiso   1.00
O398   O     0.15693   0.79060   0.16625   0.00000  Uiso   1.00
O399   O     0.12687   0.87313   0.33749   0.00000  Uiso   1.00
O400   O     0.21088   0.84159   0.15877   0.00000  Uiso   1.00
O401   O     0.17198   0.82802   0.33749   0.00000  Uiso   1.00
O402   O     0.17849   0.74768   0.27820   0.00000  Uiso   1.00
O403   O     0.14581   0.92803   0.26767   0.00000  Uiso   1.00
O404   O     0.07452   0.79917   0.23607   0.00000  Uiso   1.00
O405   O     0.26785   0.85845   0.21805   0.00000  Uiso   1.00
O406   O     0.06990   0.85627   0.27820   0.00000  Uiso   1.00
O407   O     0.25440   0.81944   0.26767   0.00000  Uiso   1.00
O408   O     0.13800   0.73570   0.23607   0.00000  Uiso   1.00
O409   O     0.20437   0.92193   0.21805   0.00000  Uiso   1.00
Zn410  Zn    0.19244   0.80756   0.28277   0.00000  Uiso   1.00
Zn411  Zn    0.13459   0.79044   0.22257   0.00000  Uiso   1.00
Zn412  Zn    0.21166   0.86331   0.21188   0.00000  Uiso   1.00
Zn413  Zn    0.12798   0.87202   0.28277   0.00000  Uiso   1.00
Br414  Br    0.36769   0.87286   0.19585   0.00000  Uiso   1.00
Br415  Br    0.42994   0.99499   0.30049   0.00000  Uiso   1.00
Br416  Br    0.58974   0.82899   0.40436   0.00000  Uiso   1.00
C417   C     0.38575   0.82647   0.25908   0.00000  Uiso   1.00
C418   C     0.55440   0.82152   0.45749   0.00000  Uiso   1.00
C419   C     0.57198   0.79903   0.47799   0.00000  Uiso   1.00
C420   C     0.61445   0.84031   0.24110   0.00000  Uiso   1.00
C421   C     0.55660   0.79985   0.01889   0.00000  Uiso   1.00
C422   C     0.52416   0.82570   0.04059   0.00000  Uiso   1.00
C423   C     0.57521   0.77669   0.03848   0.00000  Uiso   1.00
C424   C     0.56259   0.77939   0.07953   0.00000  Uiso   1.00
C425   C     0.51119   0.82701   0.08217   0.00000  Uiso   1.00
C426   C     0.66066   0.84310   0.23707   0.00000  Uiso   1.00
C427   C     0.34052   0.82482   0.26203   0.00000  Uiso   1.00
C428   C     0.44800   0.89869   0.41913   0.00000  Uiso   1.00
C429   C     0.51347   0.98883   0.23953   0.00000  Uiso   1.00
C430   C     0.48354   0.67952   0.26274   0.00000  Uiso   1.00
C431   C     0.48983   0.72293   0.25835   0.00000  Uiso   1.00
C432   C     0.50991   0.94434   0.24156   0.00000  Uiso   1.00
C433   C     0.52158   0.81209   0.14399   0.00000  Uiso   1.00
C434   C     0.47887   0.85466   0.35621   0.00000  Uiso   1.00
C435   C     0.47275   0.86646   0.39880   0.00000  Uiso   1.00
C436   C     0.53079   0.80469   0.10126   0.00000  Uiso   1.00
C437   C     0.44371   0.91020   0.45917   0.00000  Uiso   1.00
C438   C     0.49369   0.84660   0.41891   0.00000  Uiso   1.00
C439   C     0.49365   0.86071   0.45804   0.00000  Uiso   1.00
C440   C     0.46567   0.89090   0.47892   0.00000  Uiso   1.00
C441   C     0.51795   0.84332   0.47783   0.00000  Uiso   1.00
C442   C     0.50604   0.84912   0.01997   0.00000  Uiso   1.00
C443   C     0.47741   0.87906   0.03992   0.00000  Uiso   1.00
C444   C     0.45890   0.90058   0.01945   0.00000  Uiso   1.00
H445   H     0.43764   0.92371   0.03577   0.00000  Uiso   1.00
H446   H     0.50854   0.81902   0.40415   0.00000  Uiso   1.00
H447   H     0.46964   0.88764   0.07135   0.00000  Uiso   1.00
H448   H     0.65110   0.80832   0.28541   0.00000  Uiso   1.00
H449   H     0.57827   0.76253   0.09437   0.00000  Uiso   1.00
H450   H     0.42306   0.93405   0.47476   0.00000  Uiso   1.00
H451   H     0.60033   0.75727   0.02205   0.00000  Uiso   1.00
H452   H     0.54172   0.66939   0.21840   0.00000  Uiso   1.00
H453   H     0.48630   0.84532   0.10073   0.00000  Uiso   1.00
H454   H     0.59928   0.78206   0.46189   0.00000  Uiso   1.00
H455   H     0.43143   0.91456   0.40428   0.00000  Uiso   1.00
O456   O     0.50000   0.83333   0.25000   0.00000  Uiso   1.00
O457   O     0.49027   0.79060   0.16625   0.00000  Uiso   1.00
O458   O     0.46020   0.87313   0.33749   0.00000  Uiso   1.00
O459   O     0.54421   0.84159   0.15877   0.00000  Uiso   1.00
O460   O     0.50532   0.82802   0.33749   0.00000  Uiso   1.00
O461   O     0.51182   0.74768   0.27820   0.00000  Uiso   1.00
O462   O     0.47914   0.92803   0.26767   0.00000  Uiso   1.00
O463   O     0.40785   0.79917   0.23607   0.00000  Uiso   1.00
O464   O     0.60119   0.85845   0.21805   0.00000  Uiso   1.00
O465   O     0.40323   0.85627   0.27820   0.00000  Uiso   1.00
O466   O     0.58773   0.81944   0.26767   0.00000  Uiso   1.00
O467   O     0.47133   0.73570   0.23607   0.00000  Uiso   1.00
O468   O     0.53771   0.92193   0.21805   0.00000  Uiso   1.00
Zn469  Zn    0.52577   0.80756   0.28277   0.00000  Uiso   1.00
Zn470  Zn    0.46792   0.79044   0.22257   0.00000  Uiso   1.00
Zn471  Zn    0.54500   0.86331   0.21188   0.00000  Uiso   1.00
Zn472  Zn    0.46131   0.87202   0.28277   0.00000  Uiso   1.00
Br473  Br    0.70102   0.87286   0.19585   0.00000  Uiso   1.00
Br474  Br    0.76327   0.99499   0.30049   0.00000  Uiso   1.00
Br475  Br    0.92308   0.82899   0.40436   0.00000  Uiso   1.00
C476   C     0.71908   0.82647   0.25908   0.00000  Uiso   1.00
C477   C     0.88774   0.82152   0.45749   0.00000  Uiso   1.00
C478   C     0.90532   0.79903   0.47799   0.00000  Uiso   1.00
C479   C     0.94779   0.84031   0.24110   0.00000  Uiso   1.00
C480   C     0.88993   0.79985   0.01889   0.00000  Uiso   1.00
C481   C     0.85750   0.82570   0.04059   0.00000  Uiso   1.00
C482   C     0.90855   0.77669   0.03848   0.00000  Uiso   1.00
C483   C     0.89592   0.77939   0.07953   0.00000  Uiso   1.00
C484   C     0.84452   0.82701   0.08217   0.00000  Uiso   1.00
C485   C     0.99399   0.84310   0.23707   0.00000  Uiso   1.00
C486   C     0.67385   0.82482   0.26203   0.00000  Uiso   1.00
C487   C     0.78133   0.89869   0.41913   0.00000  Uiso   1.00
C488   C     0.84680   0.98883   0.23953   0.00000  Uiso   1.00
C489   C     0.81687   0.67952   0.26274   0.00000  Uiso   1.00
C490   C     0.82316   0.72293   0.25835   0.00000  Uiso   1.00
C491   C     0.84324   0.94434   0.24156   0.00000  Uiso   1.00
C492   C     0.85491   0.81209   0.14399   0.00000  Uiso   1.00
C493   C     0.81220   0.85466   0.35621   0.00000  Uiso   1.00
C494   C     0.80608   0.86646   0.39880   0.00000  Uiso   1.00
C495   C     0.86412   0.80469   0.10126   0.00000  Uiso   1.00
C496   C     0.77704   0.91020   0.45917   0.00000  Uiso   1.00
C497   C     0.82702   0.84660   0.41891   0.00000  Uiso   1.00
C498   C     0.82699   0.86071   0.45804   0.00000  Uiso   1.00
C499   C     0.79900   0.89090   0.47892   0.00000  Uiso   1.00
C500   C     0.85128   0.84332   0.47783   0.00000  Uiso   1.00
C501   C     0.83938   0.84912   0.01997   0.00000  Uiso   1.00
C502   C     0.81075   0.87906   0.03992   0.00000  Uiso   1.00
C503   C     0.79223   0.90058   0.01945   0.00000  Uiso   1.00
H504   H     0.77097   0.92371   0.03577   0.00000  Uiso   1.00
H505   H     0.84188   0.81902   0.40415   0.00000  Uiso   1.00
H506   H     0.80297   0.88764   0.07135   0.00000  Uiso   1.00
H507   H     0.98444   0.80832   0.28541   0.00000  Uiso   1.00
H508   H     0.91160   0.76253   0.09437   0.00000  Uiso   1.00
H509   H     0.75639   0.93405   0.47476   0.00000  Uiso   1.00
H510   H     0.93366   0.75727   0.02205   0.00000  Uiso   1.00
H511   H     0.87506   0.66939   0.21840   0.00000  Uiso   1.00
H512   H     0.81963   0.84532   0.10073   0.00000  Uiso   1.00
H513   H     0.93261   0.78206   0.46189   0.00000  Uiso   1.00
H514   H     0.76476   0.91456   0.40428   0.00000  Uiso   1.00
O515   O     0.83333   0.83333   0.25000   0.00000  Uiso   1.00
O516   O     0.82360   0.79060   0.16625   0.00000  Uiso   1.00
O517   O     0.79354   0.87313   0.33749   0.00000  Uiso   1.00
O518   O     0.87755   0.84159   0.15877   0.00000  Uiso   1.00
O519   O     0.83865   0.82802   0.33749   0.00000  Uiso   1.00
O520   O     0.84515   0.74768   0.27820   0.00000  Uiso   1.00
O521   O     0.81247   0.92803   0.26767   0.00000  Uiso   1.00
O522   O     0.74119   0.79917   0.23607   0.00000  Uiso   1.00
O523   O     0.93452   0.85845   0.21805   0.00000  Uiso   1.00
O524   O     0.73656   0.85627   0.27820   0.00000  Uiso   1.00
O525   O     0.92106   0.81944   0.26767   0.00000  Uiso   1.00
O526   O     0.80467   0.73570   0.23607   0.00000  Uiso   1.00
O527   O     0.87104   0.92193   0.21805   0.00000  Uiso   1.00
Zn528  Zn    0.85910   0.80756   0.28277   0.00000  Uiso   1.00
Zn529  Zn    0.80125   0.79044   0.22257   0.00000  Uiso   1.00
Zn530  Zn    0.87833   0.86331   0.21188   0.00000  Uiso   1.00
Zn531  Zn    0.79465   0.87202   0.28277   0.00000  Uiso   1.00
Br532  Br    0.03436   0.20620   0.69585   0.00000  Uiso   1.00
Br533  Br    0.09661   0.32833   0.80049   0.00000  Uiso   1.00
Br534  Br    0.25641   0.16232   0.90436   0.00000  Uiso   1.00
C535   C     0.05241   0.15980   0.75908   0.00000  Uiso   1.00
C536   C     0.22107   0.15485   0.95749   0.00000  Uiso   1.00
C537   C     0.23865   0.13237   0.97799   0.00000  Uiso   1.00
C538   C     0.28112   0.17364   0.74110   0.00000  Uiso   1.00
C539   C     0.22326   0.13319   0.51889   0.00000  Uiso   1.00
C540   C     0.19083   0.15903   0.54059   0.00000  Uiso   1.00
C541   C     0.24188   0.11003   0.53848   0.00000  Uiso   1.00
C542   C     0.22926   0.11273   0.57953   0.00000  Uiso   1.00
C543   C     0.17786   0.16034   0.58217   0.00000  Uiso   1.00
C544   C     0.32733   0.17643   0.73707   0.00000  Uiso   1.00
C545   C     0.00719   0.15815   0.76203   0.00000  Uiso   1.00
C546   C     0.11467   0.23203   0.91913   0.00000  Uiso   1.00
C547   C     0.18014   0.32216   0.73953   0.00000  Uiso   1.00
C548   C     0.15021   0.01285   0.76274   0.00000  Uiso   1.00
C549   C     0.15650   0.05627   0.75835   0.00000  Uiso   1.00
C550   C     0.17658   0.27768   0.74156   0.00000  Uiso   1.00
C551   C     0.18824   0.14542   0.64399   0.00000  Uiso   1.00
C552   C     0.14553   0.18799   0.85621   0.00000  Uiso   1.00
C553   C     0.13941   0.19979   0.89880   0.00000  Uiso   1.00
C554   C     0.19746   0.13802   0.60126   0.00000  Uiso   1.00
C555   C     0.11038   0.24354   0.95917   0.00000  Uiso   1.00
C556   C     0.16035   0.17993   0.91891   0.00000  Uiso   1.00
C557   C     0.16032   0.19404   0.95804   0.00000  Uiso   1.00
C558   C     0.13233   0.22423   0.97892   0.00000  Uiso   1.00
C559   C     0.18461   0.17665   0.97783   0.00000  Uiso   1.00
C560   C     0.17271   0.18245   0.51997   0.00000  Uiso   1.00
C561   C     0.14408   0.21239   0.53992   0.00000  Uiso   1.00
C562   C     0.12557   0.23392   0.51945   0.00000  Uiso   1.00
H563   H     0.10431   0.25704   0.53577   0.00000  Uiso   1.00
H564   H     0.17521   0.15235   0.90415   0.00000  Uiso   1.00
H565   H     0.13630   0.22097   0.57135   0.00000  Uiso   1.00
H566   H     0.31777   0.14165   0.78541   0.00000  Uiso   1.00
H567   H     0.24494   0.09586   0.59437   0.00000  Uiso   1.00
H568   H     0.08973   0.26739   0.97476   0.00000  Uiso   1.00
H569   H     0.26700   0.09060   0.52205   0.00000  Uiso   1.00
H570   H     0.20839   0.00273   0.71840   0.00000  Uiso   1.00
H571   H     0.15296   0.17865   0.60073   0.00000  Uiso   1.00
H572   H     0.26594   0.11540   0.96189   0.00000  Uiso   1.00
H573   H     0.09810   0.24789   0.90428   0.00000  Uiso   1.00
O574   O     0.16667   0.16667   0.75000   0.00000  Uiso   1.00
O575   O     0.15693   0.12393   0.66625   0.00000  Uiso   1.00
O576   O     0.12687   0.20646   0.83749   0.00000  Uiso   1.00
O577   O     0.21088   0.17493   0.65877   0.00000  Uiso   1.00
O578   O     0.17198   0.16135   0.83749   0.00000  Uiso   1.00
O579   O     0.17849   0.08101   0.77820   0.00000  Uiso   1.00
O580   O     0.14581   0.26136   0.76767   0.00000  Uiso   1.00
O581   O     0.07452   0.13251   0.73607   0.00000  Uiso   1.00
O582   O     0.26785   0.19179   0.71805   0.00000  Uiso   1.00
O583   O     0.06990   0.18960   0.77820   0.00000  Uiso   1.00
O584   O     0.25440   0.15277   0.76767   0.00000  Uiso   1.00
O585   O     0.13800   0.06903   0.73607   0.00000  Uiso   1.00
O586   O     0.20437   0.25527   0.71805   0.00000  Uiso   1.00
Zn587  Zn    0.19244   0.14090   0.78277   0.00000  Uiso   1.00
Zn588  Zn    0.13459   0.12378   0.72257   0.00000  Uiso   1.00
Zn589  Zn    0.21166   0.19664   0.71188   0.00000  Uiso   1.00
Zn590  Zn    0.12798   0.20535   0.78277   0.00000  Uiso   1.00
Br591  Br    0.36769   0.20620   0.69585   0.00000  Uiso   1.00
Br592  Br    0.42994   0.32833   0.80049   0.00000  Uiso   1.00
Br593  Br    0.58974   0.16232   0.90436   0.00000  Uiso   1.00
C594   C     0.38575   0.15980   0.75908   0.00000  Uiso   1.00
C595   C     0.55440   0.15485   0.95749   0.00000  Uiso   1.00
C596   C     0.57198   0.13237   0.97799   0.00000  Uiso   1.00
C597   C     0.61445   0.17364   0.74110   0.00000  Uiso   1.00
C598   C     0.55660   0.13319   0.51889   0.00000  Uiso   1.00
C599   C     0.52416   0.15903   0.54059   0.00000  Uiso   1.00
C600   C     0.57521   0.11003   0.53848   0.00000  Uiso   1.00
C601   C     0.56259   0.11273   0.57953   0.00000  Uiso   1.00
C602   C     0.51119   0.16034   0.58217   0.00000  Uiso   1.00
C603   C     0.66066   0.17643   0.73707   0.00000  Uiso   1.00
C604   C     0.34052   0.15815   0.76203   0.00000  Uiso   1.00
C605   C     0.44800   0.23203   0.91913   0.00000  Uiso   1.00
C606   C     0.51347   0.32216   0.73953   0.00000  Uiso   1.00
C607   C     0.48354   0.01285   0.76274   0.00000  Uiso   1.00
C608   C     0.48983   0.05627   0.75835   0.00000  Uiso   1.00
C609   C     0.50991   0.27768   0.74156   0.00000  Uiso   1.00
C610   C     0.52158   0.14542   0.64399   0.00000  Uiso   1.00
C611   C     0.47887   0.18799   0.85621   0.00000  Uiso   1.00
C612   C     0.47275   0.19979   0.89880   0.00000  Uiso   1.00
C613   C     0.53079   0.13802   0.60126   0.00000  Uiso   1.00
C614   C     0.44371   0.24354   0.95917   0.00000  Uiso   1.00
C615   C     0.49369   0.17993   0.91891   0.00000  Uiso   1.00
C616   C     0.49365   0.19404   0.95804   0.00000  Uiso   1.00
C617   C     0.46567   0.22423   0.97892   0.00000  Uiso   1.00
C618   C     0.51795   0.17665   0.97783   0.00000  Uiso   1.00
C619   C     0.50604   0.18245   0.51997   0.00000  Uiso   1.00
C620   C     0.47741   0.21239   0.53992   0.00000  Uiso   1.00
C621   C     0.45890   0.23392   0.51945   0.00000  Uiso   1.00
H622   H     0.43764   0.25704   0.53577   0.00000  Uiso   1.00
H623   H     0.50854   0.15235   0.90415   0.00000  Uiso   1.00
H624   H     0.46964   0.22097   0.57135   0.00000  Uiso   1.00
H625   H     0.65110   0.14165   0.78541   0.00000  Uiso   1.00
H626   H     0.57827   0.09586   0.59437   0.00000  Uiso   1.00
H627   H     0.42306   0.26739   0.97476   0.00000  Uiso   1.00
H628   H     0.60033   0.09060   0.52205   0.00000  Uiso   1.00
H629   H     0.54172   0.00273   0.71840   0.00000  Uiso   1.00
H630   H     0.48630   0.17865   0.60073   0.00000  Uiso   1.00
H631   H     0.59928   0.11540   0.96189   0.00000  Uiso   1.00
H632   H     0.43143   0.24789   0.90428   0.00000  Uiso   1.00
O633   O     0.50000   0.16667   0.75000   0.00000  Uiso   1.00
O634   O     0.49027   0.12393   0.66625   0.00000  Uiso   1.00
O635   O     0.46020   0.20646   0.83749   0.00000  Uiso   1.00
O636   O     0.54421   0.17493   0.65877   0.00000  Uiso   1.00
O637   O     0.50532   0.16135   0.83749   0.00000  Uiso   1.00
O638   O     0.51182   0.08101   0.77820   0.00000  Uiso   1.00
O639   O     0.47914   0.26136   0.76767   0.00000  Uiso   1.00
O640   O     0.40785   0.13251   0.73607   0.00000  Uiso   1.00
O641   O     0.60119   0.19179   0.71805   0.00000  Uiso   1.00
O642   O     0.40323   0.18960   0.77820   0.00000  Uiso   1.00
O643   O     0.58773   0.15277   0.76767   0.00000  Uiso   1.00
O644   O     0.47133   0.06903   0.73607   0.00000  Uiso   1.00
O645   O     0.53771   0.25527   0.71805   0.00000  Uiso   1.00
Zn646  Zn    0.52577   0.14090   0.78277   0.00000  Uiso   1.00
Zn647  Zn    0.46792   0.12378   0.72257   0.00000  Uiso   1.00
Zn648  Zn    0.54500   0.19664   0.71188   0.00000  Uiso   1.00
Zn649  Zn    0.46131   0.20535   0.78277   0.00000  Uiso   1.00
Br650  Br    0.70102   0.20620   0.69585   0.00000  Uiso   1.00
Br651  Br    0.76327   0.32833   0.80049   0.00000  Uiso   1.00
Br652  Br    0.92308   0.16232   0.90436   0.00000  Uiso   1.00
C653   C     0.71908   0.15980   0.75908   0.00000  Uiso   1.00
C654   C     0.88774   0.15485   0.95749   0.00000  Uiso   1.00
C655   C     0.90532   0.13237   0.97799   0.00000  Uiso   1.00
C656   C     0.94779   0.17364   0.74110   0.00000  Uiso   1.00
C657   C     0.88993   0.13319   0.51889   0.00000  Uiso   1.00
C658   C     0.85750   0.15903   0.54059   0.00000  Uiso   1.00
C659   C     0.90855   0.11003   0.53848   0.00000  Uiso   1.00
C660   C     0.89592   0.11273   0.57953   0.00000  Uiso   1.00
C661   C     0.84452   0.16034   0.58217   0.00000  Uiso   1.00
C662   C     0.99399   0.17643   0.73707   0.00000  Uiso   1.00
C663   C     0.67385   0.15815   0.76203   0.00000  Uiso   1.00
C664   C     0.78133   0.23203   0.91913   0.00000  Uiso   1.00
C665   C     0.84680   0.32216   0.73953   0.00000  Uiso   1.00
C666   C     0.81687   0.01285   0.76274   0.00000  Uiso   1.00
C667   C     0.82316   0.05627   0.75835   0.00000  Uiso   1.00
C668   C     0.84324   0.27768   0.74156   0.00000  Uiso   1.00
C669   C     0.85491   0.14542   0.64399   0.00000  Uiso   1.00
C670   C     0.81220   0.18799   0.85621   0.00000  Uiso   1.00
C671   C     0.80608   0.19979   0.89880   0.00000  Uiso   1.00
C672   C     0.86412   0.13802   0.60126   0.00000  Uiso   1.00
C673   C     0.77704   0.24354   0.95917   0.00000  Uiso   1.00
C674   C     0.82702   0.17993   0.91891   0.00000  Uiso   1.00
C675   C     0.82699   0.19404   0.95804   0.00000  Uiso   1.00
C676   C     0.79900   0.22423   0.97892   0.00000  Uiso   1.00
C677   C     0.85128   0.17665   0.97783   0.00000  Uiso   1.00
C678   C     0.83938   0.18245   0.51997   0.00000  Uiso   1.00
C679   C     0.81075   0.21239   0.53992   0.00000  Uiso   1.00
C680   C     0.79223   0.23392   0.51945   0.00000  Uiso   1.00
H681   H     0.77097   0.25704   0.53577   0.00000  Uiso   1.00
H682   H     0.84188   0.15235   0.90415   0.00000  Uiso   1.00
H683   H     0.80297   0.22097   0.57135   0.00000  Uiso   1.00
H684   H     0.98444   0.14165   0.78541   0.00000  Uiso   1.00
H685   H     0.91160   0.09586   0.59437   0.00000  Uiso   1.00
H686   H     0.75639   0.26739   0.97476   0.00000  Uiso   1.00
H687   H     0.93366   0.09060   0.52205   0.00000  Uiso   1.00
H688   H     0.87506   0.00273   0.71840   0.00000  Uiso   1.00
H689   H     0.81963   0.17865   0.60073   0.00000  Uiso   1.00
H690   H     0.93261   0.11540   0.96189   0.00000  Uiso   1.00
H691   H     0.76476   0.24789   0.90428   0.00000  Uiso   1.00
O692   O     0.83333   0.16667   0.75000   0.00000  Uiso   1.00
O693   O     0.82360   0.12393   0.66625   0.00000  Uiso   1.00
O694   O     0.79354   0.20646   0.83749   0.00000  Uiso   1.00
O695   O     0.87755   0.17493   0.65877   0.00000  Uiso   1.00
O696   O     0.83865   0.16135   0.83749   0.00000  Uiso   1.00
O697   O     0.84515   0.08101   0.77820   0.00000  Uiso   1.00
O698   O     0.81247   0.26136   0.76767   0.00000  Uiso   1.00
O699   O     0.74119   0.13251   0.73607   0.00000  Uiso   1.00
O700   O     0.93452   0.19179   0.71805   0.00000  Uiso   1.00
O701   O     0.73656   0.18960   0.77820   0.00000  Uiso   1.00
O702   O     0.92106   0.15277   0.76767   0.00000  Uiso   1.00
O703   O     0.80467   0.06903   0.73607   0.00000  Uiso   1.00
O704   O     0.87104   0.25527   0.71805   0.00000  Uiso   1.00
Zn705  Zn    0.85910   0.14090   0.78277   0.00000  Uiso   1.00
Zn706  Zn    0.80125   0.12378   0.72257   0.00000  Uiso   1.00
Zn707  Zn    0.87833   0.19664   0.71188   0.00000  Uiso   1.00
Zn708  Zn    0.79465   0.20535   0.78277   0.00000  Uiso   1.00
Br709  Br    0.03436   0.53953   0.69585   0.00000  Uiso   1.00
Br710  Br    0.09661   0.66166   0.80049   0.00000  Uiso   1.00
Br711  Br    0.25641   0.49565   0.90436   0.00000  Uiso   1.00
C712   C     0.05241   0.49314   0.75908   0.00000  Uiso   1.00
C713   C     0.22107   0.48818   0.95749   0.00000  Uiso   1.00
C714   C     0.23865   0.46570   0.97799   0.00000  Uiso   1.00
C715   C     0.28112   0.50698   0.74110   0.00000  Uiso   1.00
C716   C     0.22326   0.46652   0.51889   0.00000  Uiso   1.00
C717   C     0.19083   0.49236   0.54059   0.00000  Uiso   1.00
C718   C     0.24188   0.44336   0.53848   0.00000  Uiso   1.00
C719   C     0.22926   0.44606   0.57953   0.00000  Uiso   1.00
C720   C     0.17786   0.49367   0.58217   0.00000  Uiso   1.00
C721   C     0.32733   0.50976   0.73707   0.00000  Uiso   1.00
C722   C     0.00719   0.49149   0.76203   0.00000  Uiso   1.00
C723   C     0.11467   0.56536   0.91913   0.00000  Uiso   1.00
C724   C     0.18014   0.65549   0.73953   0.00000  Uiso   1.00
C725   C     0.15021   0.34618   0.76274   0.00000  Uiso   1.00
C726   C     0.15650   0.38960   0.75835   0.00000  Uiso   1.00
C727   C     0.17658   0.61101   0.74156   0.00000  Uiso   1.00
C728   C     0.18824   0.47875   0.64399   0.00000  Uiso   1.00
C729   C     0.14553   0.52132   0.85621   0.00000  Uiso   1.00
C730   C     0.13941   0.53312   0.89880   0.00000  Uiso   1.00
C731   C     0.19746   0.47136   0.60126   0.00000  Uiso   1.00
C732   C     0.11038   0.57687   0.95917   0.00000  Uiso   1.00
C733   C     0.16035   0.51326   0.91891   0.00000  Uiso   1.00
C734   C     0.16032   0.52737   0.95804   0.00000  Uiso   1.00
C735   C     0.13233   0.55757   0.97892   0.00000  Uiso   1.00
C736   C     0.18461   0.50998   0.97783   0.00000  Uiso   1.00
C737   C     0.17271   0.51578   0.51997   0.00000  Uiso   1.00
C738   C     0.14408   0.54572   0.53992   0.00000  Uiso   1.00
C739   C     0.12557   0.56725   0.51945   0.00000  Uiso   1.00
H740   H     0.10431   0.59038   0.53577   0.00000  Uiso   1.00
H741   H     0.17521   0.48568   0.90415   0.00000  Uiso   1.00
H742   H     0.13630   0.55430   0.57135   0.00000  Uiso   1.00
H743   H     0.31777   0.47498   0.78541   0.00000  Uiso   1.00
H744   H     0.24494   0.42919   0.59437   0.00000  Uiso   1.00
H745   H     0.08973   0.60072   0.97476   0.00000  Uiso   1.00
H746   H     0.26700   0.42394   0.52205   0.00000  Uiso   1.00
H747   H     0.20839   0.33606   0.71840   0.00000  Uiso   1.00
H748   H     0.15296   0.51198   0.60073   0.00000  Uiso   1.00
H749   H     0.26594   0.44873   0.96189   0.00000  Uiso   1.00
H750   H     0.09810   0.58122   0.90428   0.00000  Uiso   1.00
O751   O     0.16667   0.50000   0.75000   0.00000  Uiso   1.00
O752   O     0.15693   0.45726   0.66625   0.00000  Uiso   1.00
O753   O     0.12687   0.53979   0.83749   0.00000  Uiso   1.00
O754   O     0.21088   0.50826   0.65877   0.00000  Uiso   1.00
O755   O     0.17198   0.49468   0.83749   0.00000  Uiso   1.00
O756   O     0.17849   0.41434   0.77820   0.00000  Uiso   1.00
O757   O     0.14581   0.59469   0.76767   0.00000  Uiso   1.00
O758   O     0.07452   0.46584   0.73607   0.00000  Uiso   1.00
O759   O     0.26785   0.52512   0.71805   0.00000  Uiso   1.00
O760   O     0.06990   0.52293   0.77820   0.00000  Uiso   1.00
O761   O     0.25440   0.48610   0.76767   0.00000  Uiso   1.00
O762   O     0.13800   0.40236   0.73607   0.00000  Uiso   1.00
O763   O     0.20437   0.58860   0.71805   0.00000  Uiso   1.00
Zn764  Zn    0.19244   0.47423   0.78277   0.00000  Uiso   1.00
Zn765  Zn    0.13459   0.45711   0.72257   0.00000  Uiso   1.00
Zn766  Zn    0.21166   0.52997   0.71188   0.00000  Uiso   1.00
Zn767  Zn    0.12798   0.53868   0.78277   0.00000  Uiso   1.00
Br768  Br    0.36769   0.53953   0.69585   0.00000  Uiso   1.00
Br769  Br    0.42994   0.66166   0.80049   0.00000  Uiso   1.00
Br770  Br    0.58974   0.49565   0.90436   0.00000  Uiso   1.00
C771   C     0.38575   0.49314   0.75908   0.00000  Uiso   1.00
C772   C     0.55440   0.48818   0.95749   0.00000  Uiso   1.00
C773   C     0.57198   0.46570   0.97799   0.00000  Uiso   1.00
C774   C     0.61445   0.50698   0.74110   0.00000  Uiso   1.00
C775   C     0.55660   0.46652   0.51889   0.00000  Uiso   1.00
C776   C     0.52416   0.49236   0.54059   0.00000  Uiso   1.00
C777   C     0.57521   0.44336   0.53848   0.00000  Uiso   1.00
C778   C     0.56259   0.44606   0.57953   0.00000  Uiso   1.00
C779   C     0.51119   0.49367   0.58217   0.00000  Uiso   1.00
C780   C     0.66066   0.50976   0.73707   0.00000  Uiso   1.00
C781   C     0.34052   0.49149   0.76203   0.00000  Uiso   1.00
C782   C     0.44800   0.56536   0.91913   0.00000  Uiso   1.00
C783   C     0.51347   0.65549   0.73953   0.00000  Uiso   1.00
C784   C     0.48354   0.34618   0.76274   0.00000  Uiso   1.00
C785   C     0.48983   0.38960   0.75835   0.00000  Uiso   1.00
C786   C     0.50991   0.61101   0.74156   0.00000  Uiso   1.00
C787   C     0.52158   0.47875   0.64399   0.00000  Uiso   1.00
C788   C     0.47887   0.52132   0.85621   0.00000  Uiso   1.00
C789   C     0.47275   0.53312   0.89880   0.00000  Uiso   1.00
C790   C     0.53079   0.47136   0.60126   0.00000  Uiso   1.00
C791   C     0.44371   0.57687   0.95917   0.00000  Uiso   1.00
C792   C     0.49369   0.51326   0.91891   0.00000  Uiso   1.00
C793   C     0.49365   0.52737   0.95804   0.00000  Uiso   1.00
C794   C     0.46567   0.55757   0.97892   0.00000  Uiso   1.00
C795   C     0.51795   0.50998   0.97783   0.00000  Uiso   1.00
C796   C     0.50604   0.51578   0.51997   0.00000  Uiso   1.00
C797   C     0.47741   0.54572   0.53992   0.00000  Uiso   1.00
C798   C     0.45890   0.56725   0.51945   0.00000  Uiso   1.00
H799   H     0.43764   0.59038   0.53577   0.00000  Uiso   1.00
H800   H     0.50854   0.48568   0.90415   0.00000  Uiso   1.00
H801   H     0.46964   0.55430   0.57135   0.00000  Uiso   1.00
H802   H     0.65110   0.47498   0.78541   0.00000  Uiso   1.00
H803   H     0.57827   0.42919   0.59437   0.00000  Uiso   1.00
H804   H     0.42306   0.60072   0.97476   0.00000  Uiso   1.00
H805   H     0.60033   0.42394   0.52205   0.00000  Uiso   1.00
H806   H     0.54172   0.33606   0.71840   0.00000  Uiso   1.00
H807   H     0.48630   0.51198   0.60073   0.00000  Uiso   1.00
H808   H     0.59928   0.44873   0.96189   0.00000  Uiso   1.00
H809   H     0.43143   0.58122   0.90428   0.00000  Uiso   1.00
O810   O     0.50000   0.50000   0.75000   0.00000  Uiso   1.00
O811   O     0.49027   0.45726   0.66625   0.00000  Uiso   1.00
O812   O     0.46020   0.53979   0.83749   0.00000  Uiso   1.00
O813   O     0.54421   0.50826   0.65877   0.00000  Uiso   1.00
O814   O     0.50532   0.49468   0.83749   0.00000  Uiso   1.00
O815   O     0.51182   0.41434   0.77820   0.00000  Uiso   1.00
O816   O     0.47914   0.59469   0.76767   0.00000  Uiso   1.00
O817   O     0.40785   0.46584   0.73607   0.00000  Uiso   1.00
O818   O     0.60119   0.52512   0.71805   0.00000  Uiso   1.00
O819   O     0.40323   0.52293   0.77820   0.00000  Uiso   1.00
O820   O     0.58773   0.48610   0.76767   0.00000  Uiso   1.00
O821   O     0.47133   0.40236   0.73607   0.00000  Uiso   1.00
O822   O     0.53771   0.58860   0.71805   0.00000  Uiso   1.00
Zn823  Zn    0.52577   0.47423   0.78277   0.00000  Uiso   1.00
Zn824  Zn    0.46792   0.45711   0.72257   0.00000  Uiso   1.00
Zn825  Zn    0.54500   0.52997   0.71188   0.00000  Uiso   1.00
Zn826  Zn    0.46131   0.53868   0.78277   0.00000  Uiso   1.00
Br827  Br    0.70102   0.53953   0.69585   0.00000  Uiso   1.00
Br828  Br    0.76327   0.66166   0.80049   0.00000  Uiso   1.00
Br829  Br    0.92308   0.49565   0.90436   0.00000  Uiso   1.00
C830   C     0.71908   0.49314   0.75908   0.00000  Uiso   1.00
C831   C     0.88774   0.48818   0.95749   0.00000  Uiso   1.00
C832   C     0.90532   0.46570   0.97799   0.00000  Uiso   1.00
C833   C     0.94779   0.50698   0.74110   0.00000  Uiso   1.00
C834   C     0.88993   0.46652   0.51889   0.00000  Uiso   1.00
C835   C     0.85750   0.49236   0.54059   0.00000  Uiso   1.00
C836   C     0.90855   0.44336   0.53848   0.00000  Uiso   1.00
C837   C     0.89592   0.44606   0.57953   0.00000  Uiso   1.00
C838   C     0.84452   0.49367   0.58217   0.00000  Uiso   1.00
C839   C     0.99399   0.50976   0.73707   0.00000  Uiso   1.00
C840   C     0.67385   0.49149   0.76203   0.00000  Uiso   1.00
C841   C     0.78133   0.56536   0.91913   0.00000  Uiso   1.00
C842   C     0.84680   0.65549   0.73953   0.00000  Uiso   1.00
C843   C     0.81687   0.34618   0.76274   0.00000  Uiso   1.00
C844   C     0.82316   0.38960   0.75835   0.00000  Uiso   1.00
C845   C     0.84324   0.61101   0.74156   0.00000  Uiso   1.00
C846   C     0.85491   0.47875   0.64399   0.00000  Uiso   1.00
C847   C     0.81220   0.52132   0.85621   0.00000  Uiso   1.00
C848   C     0.80608   0.53312   0.89880   0.00000  Uiso   1.00
C849   C     0.86412   0.47136   0.60126   0.00000  Uiso   1.00
C850   C     0.77704   0.57687   0.95917   0.00000  Uiso   1.00
C851   C     0.82702   0.51326   0.91891   0.00000  Uiso   1.00
C852   C     0.82699   0.52737   0.95804   0.00000  Uiso   1.00
C853   C     0.79900   0.55757   0.97892   0.00000  Uiso   1.00
C854   C     0.85128   0.50998   0.97783   0.00000  Uiso   1.00
C855   C     0.83938   0.51578   0.51997   0.00000  Uiso   1.00
C856   C     0.81075   0.54572   0.53992   0.00000  Uiso   1.00
C857   C     0.79223   0.56725   0.51945   0.00000  Uiso   1.00
H858   H     0.77097   0.59038   0.53577   0.00000  Uiso   1.00
H859   H     0.84188   0.48568   0.90415   0.00000  Uiso   1.00
H860   H     0.80297   0.55430   0.57135   0.00000  Uiso   1.00
H861   H     0.98444   0.47498   0.78541   0.00000  Uiso   1.00
H862   H     0.91160   0.42919   0.59437   0.00000  Uiso   1.00
H863   H     0.75639   0.60072   0.97476   0.00000  Uiso   1.00
H864   H     0.93366   0.42394   0.52205   0.00000  Uiso   1.00
H865   H     0.87506   0.33606   0.71840   0.00000  Uiso   1.00
H866   H     0.81963   0.51198   0.60073   0.00000  Uiso   1.00
H867   H     0.93261   0.44873   0.96189   0.00000  Uiso   1.00
H868   H     0.76476   0.58122   0.90428   0.00000  Uiso   1.00
O869   O     0.83333   0.50000   0.75000   0.00000  Uiso   1.00
O870   O     0.82360   0.45726   0.66625   0.00000  Uiso   1.00
O871   O     0.79354   0.53979   0.83749   0.00000  Uiso   1.00
O872   O     0.87755   0.50826   0.65877   0.00000  Uiso   1.00
O873   O     0.83865   0.49468   0.83749   0.00000  Uiso   1.00
O874   O     0.84515   0.41434   0.77820   0.00000  Uiso   1.00
O875   O     0.81247   0.59469   0.76767   0.00000  Uiso   1.00
O876   O     0.74119   0.46584   0.73607   0.00000  Uiso   1.00
O877   O     0.93452   0.52512   0.71805   0.00000  Uiso   1.00
O878   O     0.73656   0.52293   0.77820   0.00000  Uiso   1.00
O879   O     0.92106   0.48610   0.76767   0.00000  Uiso   1.00
O880   O     0.80467   0.40236   0.73607   0.00000  Uiso   1.00
O881   O     0.87104   0.58860   0.71805   0.00000  Uiso   1.00
Zn882  Zn    0.85910   0.47423   0.78277   0.00000  Uiso   1.00
Zn883  Zn    0.80125   0.45711   0.72257   0.00000  Uiso   1.00
Zn884  Zn    0.87833   0.52997   0.71188   0.00000  Uiso   1.00
Zn885  Zn    0.79465   0.53868   0.78277   0.00000  Uiso   1.00
Br886  Br    0.03436   0.87286   0.69585   0.00000  Uiso   1.00
Br887  Br    0.09661   0.99499   0.80049   0.00000  Uiso   1.00
Br888  Br    0.25641   0.82899   0.90436   0.00000  Uiso   1.00
C889   C     0.05241   0.82647   0.75908   0.00000  Uiso   1.00
C890   C     0.22107   0.82152   0.95749   0.00000  Uiso   1.00
C891   C     0.23865   0.79903   0.97799   0.00000  Uiso   1.00
C892   C     0.28112   0.84031   0.74110   0.00000  Uiso   1.00
C893   C     0.22326   0.79985   0.51889   0.00000  Uiso   1.00
C894   C     0.19083   0.82570   0.54059   0.00000  Uiso   1.00
C895   C     0.24188   0.77669   0.53848   0.00000  Uiso   1.00
C896   C     0.22926   0.77939   0.57953   0.00000  Uiso   1.00
C897   C     0.17786   0.82701   0.58217   0.00000  Uiso   1.00
C898   C     0.32733   0.84310   0.73707   0.00000  Uiso   1.00
C899   C     0.00719   0.82482   0.76203   0.00000  Uiso   1.00
C900   C     0.11467   0.89869   0.91913   0.00000  Uiso   1.00
C901   C     0.18014   0.98883   0.73953   0.00000  Uiso   1.00
C902   C     0.15021   0.67952   0.76274   0.00000  Uiso   1.00
C903   C     0.15650   0.72293   0.75835   0.00000  Uiso   1.00
C904   C     0.17658   0.94434   0.74156   0.00000  Uiso   1.00
C905   C     0.18824   0.81209   0.64399   0.00000  Uiso   1.00
C906   C     0.14553   0.85466   0.85621   0.00000  Uiso   1.00
C907   C     0.13941   0.86646   0.89880   0.00000  Uiso   1.00
C908   C     0.19746   0.80469   0.60126   0.00000  Uiso   1.00
C909   C     0.11038   0.91020   0.95917   0.00000  Uiso   1.00
C910   C     0.16035   0.84660   0.91891   0.00000  Uiso   1.00
C911   C     0.16032   0.86071   0.95804   0.00000  Uiso   1.00
C912   C     0.13233   0.89090   0.97892   0.00000  Uiso   1.00
C913   C     0.18461   0.84332   0.97783   0.00000  Uiso   1.00
C914   C     0.17271   0.84912   0.51997   0.00000  Uiso   1.00
C915   C     0.14408   0.87906   0.53992   0.00000  Uiso   1.00
C916   C     0.12557   0.90058   0.51945   0.00000  Uiso   1.00
H917   H     0.10431   0.92371   0.53577   0.00000  Uiso   1.00
H918   H     0.17521   0.81902   0.90415   0.00000  Uiso   1.00
H919   H     0.13630   0.88764   0.57135   0.00000  Uiso   1.00
H920   H     0.31777   0.80832   0.78541   0.00000  Uiso   1.00
H921   H     0.24494   0.76253   0.59437   0.00000  Uiso   1.00
H922   H     0.08973   0.93405   0.97476   0.00000  Uiso   1.00
H923   H     0.26700   0.75727   0.52205   0.00000  Uiso   1.00
H924   H     0.20839   0.66939   0.71840   0.00000  Uiso   1.00
H925   H     0.15296   0.84532   0.60073   0.00000  Uiso   1.00
H926   H     0.26594   0.78206   0.96189   0.00000  Uiso   1.00
H927   H     0.09810   0.91456   0.90428   0.00000  Uiso   1.00
O928   O     0.16667   0.83333   0.75000   0.00000  Uiso   1.00
O929   O     0.15693   0.79060   0.66625   0.00000  Uiso   1.00
O930   O     0.12687   0.87313   0.83749   0.00000  Uiso   1.00
O931   O     0.21088   0.84159   0.65877   0.00000  Uiso   1.00
O932   O     0.17198   0.82802   0.83749   0.00000  Uiso   1.00
O933   O     0.17849   0.74768   0.77820   0.00000  Uiso   1.00
O934   O     0.14581   0.92803   0.76767   0.00000  Uiso   1.00
O935   O     0.07452   0.79917   0.73607   0.00000  Uiso   1.00
O936   O     0.26785   0.85845   0.71805   0.00000  Uiso   1.00
O937   O     0.06990   0.85627   0.77820   0.00000  Uiso   1.00
O938   O     0.25440   0.81944   0.76767   0.00000  Uiso   1.00
O939   O     0.13800   0.73570   0.73607   0.00000  Uiso   1.00
O940   O     0.20437   0.92193   0.71805   0.00000  Uiso   1.00
Zn941  Zn    0.19244   0.80756   0.78277   0.00000  Uiso   1.00
Zn942  Zn    0.13459   0.79044   0.72257   0.00000  Uiso   1.00
Zn943  Zn    0.21166   0.86331   0.71188   0.00000  Uiso   1.00
Zn944  Zn    0.12798   0.87202   0.78277   0.00000  Uiso   1.00
Br945  Br    0.36769   0.87286   0.69585   0.00000  Uiso   1.00
Br946  Br    0.42994   0.99499   0.80049   0.00000  Uiso   1.00
Br947  Br    0.58974   0.82899   0.90436   0.00000  Uiso   1.00
C948   C     0.38575   0.82647   0.75908   0.00000  Uiso   1.00
C949   C     0.55440   0.82152   0.95749   0.00000  Uiso   1.00
C950   C     0.57198   0.79903   0.97799   0.00000  Uiso   1.00
C951   C     0.61445   0.84031   0.74110   0.00000  Uiso   1.00
C952   C     0.55660   0.79985   0.51889   0.00000  Uiso   1.00
C953   C     0.52416   0.82570   0.54059   0.00000  Uiso   1.00
C954   C     0.57521   0.77669   0.53848   0.00000  Uiso   1.00
C955   C     0.56259   0.77939   0.57953   0.00000  Uiso   1.00
C956   C     0.51119   0.82701   0.58217   0.00000  Uiso   1.00
C957   C     0.66066   0.84310   0.73707   0.00000  Uiso   1.00
C958   C     0.34052   0.82482   0.76203   0.00000  Uiso   1.00
C959   C     0.44800   0.89869   0.91913   0.00000  Uiso   1.00
C960   C     0.51347   0.98883   0.73953   0.00000  Uiso   1.00
C961   C     0.48354   0.67952   0.76274   0.00000  Uiso   1.00
C962   C     0.48983   0.72293   0.75835   0.00000  Uiso   1.00
C963   C     0.50991   0.94434   0.74156   0.00000  Uiso   1.00
C964   C     0.52158   0.81209   0.64399   0.00000  Uiso   1.00
C965   C     0.47887   0.85466   0.85621   0.00000  Uiso   1.00
C966   C     0.47275   0.86646   0.89880   0.00000  Uiso   1.00
C967   C     0.53079   0.80469   0.60126   0.00000  Uiso   1.00
C968   C     0.44371   0.91020   0.95917   0.00000  Uiso   1.00
C969   C     0.49369   0.84660   0.91891   0.00000  Uiso   1.00
C970   C     0.49365   0.86071   0.95804   0.00000  Uiso   1.00
C971   C     0.46567   0.89090   0.97892   0.00000  Uiso   1.00
C972   C     0.51795   0.84332   0.97783   0.00000  Uiso   1.00
C973   C     0.50604   0.84912   0.51997   0.00000  Uiso   1.00
C974   C     0.47741   0.87906   0.53992   0.00000  Uiso   1.00
C975   C     0.45890   0.90058   0.51945   0.00000  Uiso   1.00
H976   H     0.43764   0.92371   0.53577   0.00000  Uiso   1.00
H977   H     0.50854   0.81902   0.90415   0.00000  Uiso   1.00
H978   H     0.46964   0.88764   0.57135   0.00000  Uiso   1.00
H979   H     0.65110   0.80832   0.78541   0.00000  Uiso   1.00
H980   H     0.57827   0.76253   0.59437   0.00000  Uiso   1.00
H981   H     0.42306   0.93405   0.97476   0.00000  Uiso   1.00
H982   H     0.60033   0.75727   0.52205   0.00000  Uiso   1.00
H983   H     0.54172   0.66939   0.71840   0.00000  Uiso   1.00
H984   H     0.48630   0.84532   0.60073   0.00000  Uiso   1.00
H985   H     0.59928   0.78206   0.96189   0.00000  Uiso   1.00
H986   H     0.43143   0.91456   0.90428   0.00000  Uiso   1.00
O987   O     0.50000   0.83333   0.75000   0.00000  Uiso   1.00
O988   O     0.49027   0.79060   0.66625   0.00000  Uiso   1.00
O989   O     0.46020   0.87313   0.83749   0.00000  Uiso   1.00
O990   O     0.54421   0.84159   0.65877   0.00000  Uiso   1.00
O991   O     0.50532   0.82802   0.83749   0.00000  Uiso   1.00
O992   O     0.51182   0.74768   0.77820   0.00000  Uiso   1.00
O993   O     0.47914   0.92803   0.76767   0.00000  Uiso   1.00
O994   O     0.40785   0.79917   0.73607   0.00000  Uiso   1.00
O995   O     0.60119   0.85845   0.71805   0.00000  Uiso   1.00
O996   O     0.40323   0.85627   0.77820   0.00000  Uiso   1.00
O997   O     0.58773   0.81944   0.76767   0.00000  Uiso   1.00
O998   O     0.47133   0.73570   0.73607   0.00000  Uiso   1.00
O999   O     0.53771   0.92193   0.71805   0.00000  Uiso   1.00
Zn1000 Zn    0.52577   0.80756   0.78277   0.00000  Uiso   1.00
Zn1001 Zn    0.46792   0.79044   0.72257   0.00000  Uiso   1.00
Zn1002 Zn    0.54500   0.86331   0.71188   0.00000  Uiso   1.00
Zn1003 Zn    0.46131   0.87202   0.78277   0.00000  Uiso   1.00
Br1004 Br    0.70102   0.87286   0.69585   0.00000  Uiso   1.00
Br1005 Br    0.76327   0.99499   0.80049   0.00000  Uiso   1.00
Br1006 Br    0.92308   0.82899   0.90436   0.00000  Uiso   1.00
C1007  C     0.71908   0.82647   0.75908   0.00000  Uiso   1.00
C1008  C     0.88774   0.82152   0.95749   0.00000  Uiso   1.00
C1009  C     0.90532   0.79903   0.97799   0.00000  Uiso   1.00
C1010  C     0.94779   0.84031   0.74110   0.00000  Uiso   1.00
C1011  C     0.88993   0.79985   0.51889   0.00000  Uiso   1.00
C1012  C     0.85750   0.82570   0.54059   0.00000  Uiso   1.00
C1013  C     0.90855   0.77669   0.53848   0.00000  Uiso   1.00
C1014  C     0.89592   0.77939   0.57953   0.00000  Uiso   1.00
C1015  C     0.84452   0.82701   0.58217   0.00000  Uiso   1.00
C1016  C     0.99399   0.84310   0.73707   0.00000  Uiso   1.00
C1017  C     0.67385   0.82482   0.76203   0.00000  Uiso   1.00
C1018  C     0.78133   0.89869   0.91913   0.00000  Uiso   1.00
C1019  C     0.84680   0.98883   0.73953   0.00000  Uiso   1.00
C1020  C     0.81687   0.67952   0.76274   0.00000  Uiso   1.00
C1021  C     0.82316   0.72293   0.75835   0.00000  Uiso   1.00
C1022  C     0.84324   0.94434   0.74156   0.00000  Uiso   1.00
C1023  C     0.85491   0.81209   0.64399   0.00000  Uiso   1.00
C1024  C     0.81220   0.85466   0.85621   0.00000  Uiso   1.00
C1025  C     0.80608   0.86646   0.89880   0.00000  Uiso   1.00
C1026  C     0.86412   0.80469   0.60126   0.00000  Uiso   1.00
C1027  C     0.77704   0.91020   0.95917   0.00000  Uiso   1.00
C1028  C     0.82702   0.84660   0.91891   0.00000  Uiso   1.00
C1029  C     0.82699   0.86071   0.95804   0.00000  Uiso   1.00
C1030  C     0.79900   0.89090   0.97892   0.00000  Uiso   1.00
C1031  C     0.85128   0.84332   0.97783   0.00000  Uiso   1.00
C1032  C     0.83938   0.84912   0.51997   0.00000  Uiso   1.00
C1033  C     0.81075   0.87906   0.53992   0.00000  Uiso   1.00
C1034  C     0.79223   0.90058   0.51945   0.00000  Uiso   1.00
H1035  H     0.77097   0.92371   0.53577   0.00000  Uiso   1.00
H1036  H     0.84188   0.81902   0.90415   0.00000  Uiso   1.00
H1037  H     0.80297   0.88764   0.57135   0.00000  Uiso   1.00
H1038  H     0.98444   0.80832   0.78541   0.00000  Uiso   1.00
H1039  H     0.91160   0.76253   0.59437   0.00000  Uiso   1.00
H1040  H     0.75639   0.93405   0.97476   0.00000  Uiso   1.00
H1041  H     0.93366   0.75727   0.52205   0.00000  Uiso   1.00
H1042  H     0.87506   0.66939   0.71840   0.00000  Uiso   1.00
H1043  H     0.81963   0.84532   0.60073   0.00000  Uiso   1.00
H1044  H     0.93261   0.78206   0.96189   0.00000  Uiso   1.00
H1045  H     0.76476   0.91456   0.90428   0.00000  Uiso   1.00
O1046  O     0.83333   0.83333   0.75000   0.00000  Uiso   1.00
O1047  O     0.82360   0.79060   0.66625   0.00000  Uiso   1.00
O1048  O     0.79354   0.87313   0.83749   0.00000  Uiso   1.00
O1049  O     0.87755   0.84159   0.65877   0.00000  Uiso   1.00
O1050  O     0.83865   0.82802   0.83749   0.00000  Uiso   1.00
O1051  O     0.84515   0.74768   0.77820   0.00000  Uiso   1.00
O1052  O     0.81247   0.92803   0.76767   0.00000  Uiso   1.00
O1053  O     0.74119   0.79917   0.73607   0.00000  Uiso   1.00
O1054  O     0.93452   0.85845   0.71805   0.00000  Uiso   1.00
O1055  O     0.73656   0.85627   0.77820   0.00000  Uiso   1.00
O1056  O     0.92106   0.81944   0.76767   0.00000  Uiso   1.00
O1057  O     0.80467   0.73570   0.73607   0.00000  Uiso   1.00
O1058  O     0.87104   0.92193   0.71805   0.00000  Uiso   1.00
Zn1059 Zn    0.85910   0.80756   0.78277   0.00000  Uiso   1.00
Zn1060 Zn    0.80125   0.79044   0.72257   0.00000  Uiso   1.00
Zn1061 Zn    0.87833   0.86331   0.71188   0.00000  Uiso   1.00
Zn1062 Zn    0.79465   0.87202   0.78277   0.00000  Uiso   1.00
loop_
_geom_bond_atom_site_label_1
_geom_bond_atom_site_label_2
_geom_bond_distance
_geom_bond_site_symmetry_2
_ccdc_geom_bond_type
Br1    C131    1.929   1_455 S
Br2    C194    1.931   .     S
Br3    C5      1.931   .     S
C4     O50     1.270   .     A
C4     O52     1.269   .     A
C4     C14     1.438   .     S
C5     C28     1.424   .     A
C5     C6      1.390   .     A
C6     H41     1.084   .     S
C6     C539    1.392   .     S
C7     O51     1.282   .     A
C7     C13     1.458   .     S
C7     O53     1.282   .     A
C8     C9      1.419   .     A
C8     C10     1.404   .     A
C8     C537    1.392   1_554 S
C9     C29     1.425   .     A
C9     C12     1.412   .     A
C10    H38     1.084   .     S
C10    C11     1.391   .     A
C11    C23     1.395   .     A
C11    H36     1.083   .     S
C12    H40     1.078   .     S
C12    C23     1.394   .     A
C13    Br60    1.929   .     S
C13    C73     1.339   .     S
C14    C131    1.339   1_455 S
C14    H153    1.086   1_455 S
C15    C24     1.393   .     A
C15    C22     1.402   .     A
C15    H42     1.083   .     S
C16    C19     1.452   .     S
C16    C194    1.344   .     S
C16    H216    1.088   .     S
C17    C18     1.428   .     S
C17    C370    1.344   1_545 S
C17    Br356   1.931   1_545 S
C18    O48     1.277   .     A
C18    O54     1.274   .     A
C19    O49     1.259   .     A
C19    O55     1.274   .     A
C20    C23     1.453   .     S
C20    O44     1.277   .     A
C20    O46     1.274   .     A
C21    O45     1.283   .     A
C21    C22     1.472   .     S
C21    O47     1.287   .     A
C22    C25     1.399   .     A
C24    C27     1.403   .     A
C24    H37     1.084   .     S
C25    C26     1.404   .     A
C25    H33     1.078   .     S
C26    C28     1.424   .     A
C26    C27     1.416   .     A
C27    C562    1.391   .     S
C28    C560    1.427   .     S
C29    C30     1.416   .     A
C29    C559    1.427   1_554 S
C30    H34     1.077   .     S
C30    C31     1.388   .     A
C31    H32     1.084   .     S
C31    C558    1.391   1_554 S
H35    C73     1.086   .     S
H39    C370    1.088   1_545 S
O43    Zn59    1.927   .     S
O43    Zn57    1.946   .     S
O43    Zn56    1.964   .     S
O43    Zn58    1.932   .     S
O44    Zn57    1.923   .     S
O45    Zn59    1.936   .     S
O46    Zn58    1.930   .     S
O47    Zn56    1.917   .     S
O48    Zn56    1.937   .     S
O49    Zn59    1.940   .     S
O50    Zn57    1.924   .     S
O51    Zn58    1.938   .     S
O52    Zn59    1.933   .     S
O53    Zn56    1.921   .     S
O54    Zn57    1.946   .     S
O55    Zn58    1.938   .     S
Br61   C253    1.931   .     S
Br62   C64     1.931   .     S
C63    O109    1.270   .     A
C63    O111    1.269   .     A
C63    C73     1.438   .     S
C64    C87     1.424   .     A
C64    C65     1.390   .     A
C65    H100    1.084   .     S
C65    C598    1.392   .     S
C66    O110    1.282   .     A
C66    C72     1.458   .     S
C66    O112    1.282   .     A
C67    C68     1.419   .     A
C67    C69     1.404   .     A
C67    C596    1.392   1_554 S
C68    C88     1.425   .     A
C68    C71     1.412   .     A
C69    H97     1.084   .     S
C69    C70     1.391   .     A
C70    C82     1.395   .     A
C70    H95     1.083   .     S
C71    H99     1.078   .     S
C71    C82     1.394   .     A
C72    Br119   1.929   .     S
C72    C132    1.339   .     S
C74    C83     1.393   .     A
C74    C81     1.402   .     A
C74    H101    1.083   .     S
C75    C78     1.452   .     S
C75    C253    1.344   .     S
C75    H275    1.088   .     S
C76    C77     1.428   .     S
C76    C429    1.344   1_545 S
C76    Br415   1.931   1_545 S
C77    O107    1.277   .     A
C77    O113    1.274   .     A
C78    O108    1.259   .     A
C78    O114    1.274   .     A
C79    C82     1.453   .     S
C79    O103    1.277   .     A
C79    O105    1.274   .     A
C80    O104    1.283   .     A
C80    C81     1.472   .     S
C80    O106    1.287   .     A
C81    C84     1.399   .     A
C83    C86     1.403   .     A
C83    H96     1.084   .     S
C84    C85     1.404   .     A
C84    H92     1.078   .     S
C85    C87     1.424   .     A
C85    C86     1.416   .     A
C86    C621    1.391   .     S
C87    C619    1.427   .     S
C88    C89     1.416   .     A
C88    C618    1.427   1_554 S
C89    H93     1.077   .     S
C89    C90     1.388   .     A
C90    H91     1.084   .     S
C90    C617    1.391   1_554 S
H94    C132    1.086   .     S
H98    C429    1.088   1_545 S
O102   Zn118   1.927   .     S
O102   Zn116   1.946   .     S
O102   Zn115   1.964   .     S
O102   Zn117   1.932   .     S
O103   Zn116   1.923   .     S
O104   Zn118   1.936   .     S
O105   Zn117   1.930   .     S
O106   Zn115   1.917   .     S
O107   Zn115   1.937   .     S
O108   Zn118   1.940   .     S
O109   Zn116   1.924   .     S
O110   Zn117   1.938   .     S
O111   Zn118   1.933   .     S
O112   Zn115   1.921   .     S
O113   Zn116   1.946   .     S
O114   Zn117   1.938   .     S
Br120  C312    1.931   .     S
Br121  C123    1.931   .     S
C122   O168    1.270   .     A
C122   O170    1.269   .     A
C122   C132    1.438   .     S
C123   C146    1.424   .     A
C123   C124    1.390   .     A
C124   H159    1.084   .     S
C124   C657    1.392   .     S
C125   O169    1.282   .     A
C125   C131    1.458   .     S
C125   O171    1.282   .     A
C126   C127    1.419   .     A
C126   C128    1.404   .     A
C126   C655    1.392   1_554 S
C127   C147    1.425   .     A
C127   C130    1.412   .     A
C128   H156    1.084   .     S
C128   C129    1.391   .     A
C129   C141    1.395   .     A
C129   H154    1.083   .     S
C130   H158    1.078   .     S
C130   C141    1.394   .     A
C131   Br1     1.929   1_655 S
C131   C14     1.339   1_655 S
C133   C142    1.393   .     A
C133   C140    1.402   .     A
C133   H160    1.083   .     S
C134   C137    1.452   .     S
C134   C312    1.344   .     S
C134   H334    1.088   .     S
C135   C136    1.428   .     S
C135   C488    1.344   1_545 S
C135   Br474   1.931   1_545 S
C136   O166    1.277   .     A
C136   O172    1.274   .     A
C137   O167    1.259   .     A
C137   O173    1.274   .     A
C138   C141    1.453   .     S
C138   O162    1.277   .     A
C138   O164    1.274   .     A
C139   O163    1.283   .     A
C139   C140    1.472   .     S
C139   O165    1.287   .     A
C140   C143    1.399   .     A
C142   C145    1.403   .     A
C142   H155    1.084   .     S
C143   C144    1.404   .     A
C143   H151    1.078   .     S
C144   C146    1.424   .     A
C144   C145    1.416   .     A
C145   C680    1.391   .     S
C146   C678    1.427   .     S
C147   C148    1.416   .     A
C147   C677    1.427   1_554 S
C148   H152    1.077   .     S
C148   C149    1.388   .     A
C149   H150    1.084   .     S
C149   C676    1.391   1_554 S
H153   C14     1.086   1_655 S
H157   C488    1.088   1_545 S
O161   Zn177   1.927   .     S
O161   Zn175   1.946   .     S
O161   Zn174   1.964   .     S
O161   Zn176   1.932   .     S
O162   Zn175   1.923   .     S
O163   Zn177   1.936   .     S
O164   Zn176   1.930   .     S
O165   Zn174   1.917   .     S
O166   Zn174   1.937   .     S
O167   Zn177   1.940   .     S
O168   Zn175   1.924   .     S
O169   Zn176   1.938   .     S
O170   Zn177   1.933   .     S
O171   Zn174   1.921   .     S
O172   Zn175   1.946   .     S
O173   Zn176   1.938   .     S
Br178  C308    1.929   1_455 S
Br179  C371    1.931   .     S
Br180  C182    1.931   .     S
C181   O227    1.270   .     A
C181   O229    1.269   .     A
C181   C191    1.438   .     S
C182   C205    1.424   .     A
C182   C183    1.390   .     A
C183   H218    1.084   .     S
C183   C716    1.392   .     S
C184   O228    1.282   .     A
C184   C190    1.458   .     S
C184   O230    1.282   .     A
C185   C186    1.419   .     A
C185   C187    1.404   .     A
C185   C714    1.392   1_554 S
C186   C206    1.425   .     A
C186   C189    1.412   .     A
C187   H215    1.084   .     S
C187   C188    1.391   .     A
C188   C200    1.395   .     A
C188   H213    1.083   .     S
C189   H217    1.078   .     S
C189   C200    1.394   .     A
C190   Br237   1.929   .     S
C190   C250    1.339   .     S
C191   C308    1.339   1_455 S
C191   H330    1.086   1_455 S
C192   C201    1.393   .     A
C192   C199    1.402   .     A
C192   H219    1.083   .     S
C193   C196    1.452   .     S
C193   C371    1.344   .     S
C193   H393    1.088   .     S
C194   C195    1.428   .     S
C195   O225    1.277   .     A
C195   O231    1.274   .     A
C196   O226    1.259   .     A
C196   O232    1.274   .     A
C197   C200    1.453   .     S
C197   O221    1.277   .     A
C197   O223    1.274   .     A
C198   O222    1.283   .     A
C198   C199    1.472   .     S
C198   O224    1.287   .     A
C199   C202    1.399   .     A
C201   C204    1.403   .     A
C201   H214    1.084   .     S
C202   C203    1.404   .     A
C202   H210    1.078   .     S
C203   C205    1.424   .     A
C203   C204    1.416   .     A
C204   C739    1.391   .     S
C205   C737    1.427   .     S
C206   C207    1.416   .     A
C206   C736    1.427   1_554 S
C207   H211    1.077   .     S
C207   C208    1.388   .     A
C208   H209    1.084   .     S
C208   C735    1.391   1_554 S
H212   C250    1.086   .     S
O220   Zn236   1.927   .     S
O220   Zn234   1.946   .     S
O220   Zn233   1.964   .     S
O220   Zn235   1.932   .     S
O221   Zn234   1.923   .     S
O222   Zn236   1.936   .     S
O223   Zn235   1.930   .     S
O224   Zn233   1.917   .     S
O225   Zn233   1.937   .     S
O226   Zn236   1.940   .     S
O227   Zn234   1.924   .     S
O228   Zn235   1.938   .     S
O229   Zn236   1.933   .     S
O230   Zn233   1.921   .     S
O231   Zn234   1.946   .     S
O232   Zn235   1.938   .     S
Br238  C430    1.931   .     S
Br239  C241    1.931   .     S
C240   O286    1.270   .     A
C240   O288    1.269   .     A
C240   C250    1.438   .     S
C241   C264    1.424   .     A
C241   C242    1.390   .     A
C242   H277    1.084   .     S
C242   C775    1.392   .     S
C243   O287    1.282   .     A
C243   C249    1.458   .     S
C243   O289    1.282   .     A
C244   C245    1.419   .     A
C244   C246    1.404   .     A
C244   C773    1.392   1_554 S
C245   C265    1.425   .     A
C245   C248    1.412   .     A
C246   H274    1.084   .     S
C246   C247    1.391   .     A
C247   C259    1.395   .     A
C247   H272    1.083   .     S
C248   H276    1.078   .     S
C248   C259    1.394   .     A
C249   Br296   1.929   .     S
C249   C309    1.339   .     S
C251   C260    1.393   .     A
C251   C258    1.402   .     A
C251   H278    1.083   .     S
C252   C255    1.452   .     S
C252   C430    1.344   .     S
C252   H452    1.088   .     S
C253   C254    1.428   .     S
C254   O284    1.277   .     A
C254   O290    1.274   .     A
C255   O285    1.259   .     A
C255   O291    1.274   .     A
C256   C259    1.453   .     S
C256   O280    1.277   .     A
C256   O282    1.274   .     A
C257   O281    1.283   .     A
C257   C258    1.472   .     S
C257   O283    1.287   .     A
C258   C261    1.399   .     A
C260   C263    1.403   .     A
C260   H273    1.084   .     S
C261   C262    1.404   .     A
C261   H269    1.078   .     S
C262   C264    1.424   .     A
C262   C263    1.416   .     A
C263   C798    1.391   .     S
C264   C796    1.427   .     S
C265   C266    1.416   .     A
C265   C795    1.427   1_554 S
C266   H270    1.077   .     S
C266   C267    1.388   .     A
C267   H268    1.084   .     S
C267   C794    1.391   1_554 S
H271   C309    1.086   .     S
O279   Zn295   1.927   .     S
O279   Zn293   1.946   .     S
O279   Zn292   1.964   .     S
O279   Zn294   1.932   .     S
O280   Zn293   1.923   .     S
O281   Zn295   1.936   .     S
O282   Zn294   1.930   .     S
O283   Zn292   1.917   .     S
O284   Zn292   1.937   .     S
O285   Zn295   1.940   .     S
O286   Zn293   1.924   .     S
O287   Zn294   1.938   .     S
O288   Zn295   1.933   .     S
O289   Zn292   1.921   .     S
O290   Zn293   1.946   .     S
O291   Zn294   1.938   .     S
Br297  C489    1.931   .     S
Br298  C300    1.931   .     S
C299   O345    1.270   .     A
C299   O347    1.269   .     A
C299   C309    1.438   .     S
C300   C323    1.424   .     A
C300   C301    1.390   .     A
C301   H336    1.084   .     S
C301   C834    1.392   .     S
C302   O346    1.282   .     A
C302   C308    1.458   .     S
C302   O348    1.282   .     A
C303   C304    1.419   .     A
C303   C305    1.404   .     A
C303   C832    1.392   1_554 S
C304   C324    1.425   .     A
C304   C307    1.412   .     A
C305   H333    1.084   .     S
C305   C306    1.391   .     A
C306   C318    1.395   .     A
C306   H331    1.083   .     S
C307   H335    1.078   .     S
C307   C318    1.394   .     A
C308   Br178   1.929   1_655 S
C308   C191    1.339   1_655 S
C310   C319    1.393   .     A
C310   C317    1.402   .     A
C310   H337    1.083   .     S
C311   C314    1.452   .     S
C311   C489    1.344   .     S
C311   H511    1.088   .     S
C312   C313    1.428   .     S
C313   O343    1.277   .     A
C313   O349    1.274   .     A
C314   O344    1.259   .     A
C314   O350    1.274   .     A
C315   C318    1.453   .     S
C315   O339    1.277   .     A
C315   O341    1.274   .     A
C316   O340    1.283   .     A
C316   C317    1.472   .     S
C316   O342    1.287   .     A
C317   C320    1.399   .     A
C319   C322    1.403   .     A
C319   H332    1.084   .     S
C320   C321    1.404   .     A
C320   H328    1.078   .     S
C321   C323    1.424   .     A
C321   C322    1.416   .     A
C322   C857    1.391   .     S
C323   C855    1.427   .     S
C324   C325    1.416   .     A
C324   C854    1.427   1_554 S
C325   H329    1.077   .     S
C325   C326    1.388   .     A
C326   H327    1.084   .     S
C326   C853    1.391   1_554 S
H330   C191    1.086   1_655 S
O338   Zn354   1.927   .     S
O338   Zn352   1.946   .     S
O338   Zn351   1.964   .     S
O338   Zn353   1.932   .     S
O339   Zn352   1.923   .     S
O340   Zn354   1.936   .     S
O341   Zn353   1.930   .     S
O342   Zn351   1.917   .     S
O343   Zn351   1.937   .     S
O344   Zn354   1.940   .     S
O345   Zn352   1.924   .     S
O346   Zn353   1.938   .     S
O347   Zn354   1.933   .     S
O348   Zn351   1.921   .     S
O349   Zn352   1.946   .     S
O350   Zn353   1.938   .     S
Br355  C485    1.929   1_455 S
Br356  C17     1.931   1_565 S
Br357  C359    1.931   .     S
C358   O404    1.270   .     A
C358   O406    1.269   .     A
C358   C368    1.438   .     S
C359   C382    1.424   .     A
C359   C360    1.390   .     A
C360   H395    1.084   .     S
C360   C893    1.392   .     S
C361   O405    1.282   .     A
C361   C367    1.458   .     S
C361   O407    1.282   .     A
C362   C363    1.419   .     A
C362   C364    1.404   .     A
C362   C891    1.392   1_554 S
C363   C383    1.425   .     A
C363   C366    1.412   .     A
C364   H392    1.084   .     S
C364   C365    1.391   .     A
C365   C377    1.395   .     A
C365   H390    1.083   .     S
C366   H394    1.078   .     S
C366   C377    1.394   .     A
C367   Br414   1.929   .     S
C367   C427    1.339   .     S
C368   C485    1.339   1_455 S
C368   H507    1.086   1_455 S
C369   C378    1.393   .     A
C369   C376    1.402   .     A
C369   H396    1.083   .     S
C370   C373    1.452   .     S
C370   C17     1.344   1_565 S
C370   H39     1.088   1_565 S
C371   C372    1.428   .     S
C372   O402    1.277   .     A
C372   O408    1.274   .     A
C373   O403    1.259   .     A
C373   O409    1.274   .     A
C374   C377    1.453   .     S
C374   O398    1.277   .     A
C374   O400    1.274   .     A
C375   O399    1.283   .     A
C375   C376    1.472   .     S
C375   O401    1.287   .     A
C376   C379    1.399   .     A
C378   C381    1.403   .     A
C378   H391    1.084   .     S
C379   C380    1.404   .     A
C379   H387    1.078   .     S
C380   C382    1.424   .     A
C380   C381    1.416   .     A
C381   C916    1.391   .     S
C382   C914    1.427   .     S
C383   C384    1.416   .     A
C383   C913    1.427   1_554 S
C384   H388    1.077   .     S
C384   C385    1.388   .     A
C385   H386    1.084   .     S
C385   C912    1.391   1_554 S
H389   C427    1.086   .     S
O397   Zn413   1.927   .     S
O397   Zn411   1.946   .     S
O397   Zn410   1.964   .     S
O397   Zn412   1.932   .     S
O398   Zn411   1.923   .     S
O399   Zn413   1.936   .     S
O400   Zn412   1.930   .     S
O401   Zn410   1.917   .     S
O402   Zn410   1.937   .     S
O403   Zn413   1.940   .     S
O404   Zn411   1.924   .     S
O405   Zn412   1.938   .     S
O406   Zn413   1.933   .     S
O407   Zn410   1.921   .     S
O408   Zn411   1.946   .     S
O409   Zn412   1.938   .     S
Br415  C76     1.931   1_565 S
Br416  C418    1.931   .     S
C417   O463    1.270   .     A
C417   O465    1.269   .     A
C417   C427    1.438   .     S
C418   C441    1.424   .     A
C418   C419    1.390   .     A
C419   H454    1.084   .     S
C419   C952    1.392   .     S
C420   O464    1.282   .     A
C420   C426    1.458   .     S
C420   O466    1.282   .     A
C421   C422    1.419   .     A
C421   C423    1.404   .     A
C421   C950    1.392   1_554 S
C422   C442    1.425   .     A
C422   C425    1.412   .     A
C423   H451    1.084   .     S
C423   C424    1.391   .     A
C424   C436    1.395   .     A
C424   H449    1.083   .     S
C425   H453    1.078   .     S
C425   C436    1.394   .     A
C426   Br473   1.929   .     S
C426   C486    1.339   .     S
C428   C437    1.393   .     A
C428   C435    1.402   .     A
C428   H455    1.083   .     S
C429   C432    1.452   .     S
C429   C76     1.344   1_565 S
C429   H98     1.088   1_565 S
C430   C431    1.428   .     S
C431   O461    1.277   .     A
C431   O467    1.274   .     A
C432   O462    1.259   .     A
C432   O468    1.274   .     A
C433   C436    1.453   .     S
C433   O457    1.277   .     A
C433   O459    1.274   .     A
C434   O458    1.283   .     A
C434   C435    1.472   .     S
C434   O460    1.287   .     A
C435   C438    1.399   .     A
C437   C440    1.403   .     A
C437   H450    1.084   .     S
C438   C439    1.404   .     A
C438   H446    1.078   .     S
C439   C441    1.424   .     A
C439   C440    1.416   .     A
C440   C975    1.391   .     S
C441   C973    1.427   .     S
C442   C443    1.416   .     A
C442   C972    1.427   1_554 S
C443   H447    1.077   .     S
C443   C444    1.388   .     A
C444   H445    1.084   .     S
C444   C971    1.391   1_554 S
H448   C486    1.086   .     S
O456   Zn472   1.927   .     S
O456   Zn470   1.946   .     S
O456   Zn469   1.964   .     S
O456   Zn471   1.932   .     S
O457   Zn470   1.923   .     S
O458   Zn472   1.936   .     S
O459   Zn471   1.930   .     S
O460   Zn469   1.917   .     S
O461   Zn469   1.937   .     S
O462   Zn472   1.940   .     S
O463   Zn470   1.924   .     S
O464   Zn471   1.938   .     S
O465   Zn472   1.933   .     S
O466   Zn469   1.921   .     S
O467   Zn470   1.946   .     S
O468   Zn471   1.938   .     S
Br474  C135    1.931   1_565 S
Br475  C477    1.931   .     S
C476   O522    1.270   .     A
C476   O524    1.269   .     A
C476   C486    1.438   .     S
C477   C500    1.424   .     A
C477   C478    1.390   .     A
C478   H513    1.084   .     S
C478   C1011   1.392   .     S
C479   O523    1.282   .     A
C479   C485    1.458   .     S
C479   O525    1.282   .     A
C480   C481    1.419   .     A
C480   C482    1.404   .     A
C480   C1009   1.392   1_554 S
C481   C501    1.425   .     A
C481   C484    1.412   .     A
C482   H510    1.084   .     S
C482   C483    1.391   .     A
C483   C495    1.395   .     A
C483   H508    1.083   .     S
C484   H512    1.078   .     S
C484   C495    1.394   .     A
C485   Br355   1.929   1_655 S
C485   C368    1.339   1_655 S
C487   C496    1.393   .     A
C487   C494    1.402   .     A
C487   H514    1.083   .     S
C488   C491    1.452   .     S
C488   C135    1.344   1_565 S
C488   H157    1.088   1_565 S
C489   C490    1.428   .     S
C490   O520    1.277   .     A
C490   O526    1.274   .     A
C491   O521    1.259   .     A
C491   O527    1.274   .     A
C492   C495    1.453   .     S
C492   O516    1.277   .     A
C492   O518    1.274   .     A
C493   O517    1.283   .     A
C493   C494    1.472   .     S
C493   O519    1.287   .     A
C494   C497    1.399   .     A
C496   C499    1.403   .     A
C496   H509    1.084   .     S
C497   C498    1.404   .     A
C497   H505    1.078   .     S
C498   C500    1.424   .     A
C498   C499    1.416   .     A
C499   C1034   1.391   .     S
C500   C1032   1.427   .     S
C501   C502    1.416   .     A
C501   C1031   1.427   1_554 S
C502   H506    1.077   .     S
C502   C503    1.388   .     A
C503   H504    1.084   .     S
C503   C1030   1.391   1_554 S
H507   C368    1.086   1_655 S
O515   Zn531   1.927   .     S
O515   Zn529   1.946   .     S
O515   Zn528   1.964   .     S
O515   Zn530   1.932   .     S
O516   Zn529   1.923   .     S
O517   Zn531   1.936   .     S
O518   Zn530   1.930   .     S
O519   Zn528   1.917   .     S
O520   Zn528   1.937   .     S
O521   Zn531   1.940   .     S
O522   Zn529   1.924   .     S
O523   Zn530   1.938   .     S
O524   Zn531   1.933   .     S
O525   Zn528   1.921   .     S
O526   Zn529   1.946   .     S
O527   Zn530   1.938   .     S
Br532  C662    1.929   1_455 S
Br533  C725    1.931   .     S
Br534  C536    1.931   .     S
C535   O581    1.270   .     A
C535   O583    1.269   .     A
C535   C545    1.438   .     S
C536   C559    1.424   .     A
C536   C537    1.390   .     A
C537   H572    1.084   .     S
C537   C8      1.392   1_556 S
C538   O582    1.282   .     A
C538   C544    1.458   .     S
C538   O584    1.282   .     A
C539   C540    1.419   .     A
C539   C541    1.404   .     A
C540   C560    1.425   .     A
C540   C543    1.412   .     A
C541   H569    1.084   .     S
C541   C542    1.391   .     A
C542   C554    1.395   .     A
C542   H567    1.083   .     S
C543   H571    1.078   .     S
C543   C554    1.394   .     A
C544   Br591   1.929   .     S
C544   C604    1.339   .     S
C545   C662    1.339   1_455 S
C545   H684    1.086   1_455 S
C546   C555    1.393   .     A
C546   C553    1.402   .     A
C546   H573    1.083   .     S
C547   C550    1.452   .     S
C547   C725    1.344   .     S
C547   H747    1.088   .     S
C548   C549    1.428   .     S
C548   C901    1.344   1_545 S
C548   Br887   1.931   1_545 S
C549   O579    1.277   .     A
C549   O585    1.274   .     A
C550   O580    1.259   .     A
C550   O586    1.274   .     A
C551   C554    1.453   .     S
C551   O575    1.277   .     A
C551   O577    1.274   .     A
C552   O576    1.283   .     A
C552   C553    1.472   .     S
C552   O578    1.287   .     A
C553   C556    1.399   .     A
C555   C558    1.403   .     A
C555   H568    1.084   .     S
C556   C557    1.404   .     A
C556   H564    1.078   .     S
C557   C559    1.424   .     A
C557   C558    1.416   .     A
C558   C31     1.391   1_556 S
C559   C29     1.427   1_556 S
C560   C561    1.416   .     A
C561   H565    1.077   .     S
C561   C562    1.388   .     A
C562   H563    1.084   .     S
H566   C604    1.086   .     S
H570   C901    1.088   1_545 S
O574   Zn590   1.927   .     S
O574   Zn588   1.946   .     S
O574   Zn587   1.964   .     S
O574   Zn589   1.932   .     S
O575   Zn588   1.923   .     S
O576   Zn590   1.936   .     S
O577   Zn589   1.930   .     S
O578   Zn587   1.917   .     S
O579   Zn587   1.937   .     S
O580   Zn590   1.940   .     S
O581   Zn588   1.924   .     S
O582   Zn589   1.938   .     S
O583   Zn590   1.933   .     S
O584   Zn587   1.921   .     S
O585   Zn588   1.946   .     S
O586   Zn589   1.938   .     S
Br592  C784    1.931   .     S
Br593  C595    1.931   .     S
C594   O640    1.270   .     A
C594   O642    1.269   .     A
C594   C604    1.438   .     S
C595   C618    1.424   .     A
C595   C596    1.390   .     A
C596   H631    1.084   .     S
C596   C67     1.392   1_556 S
C597   O641    1.282   .     A
C597   C603    1.458   .     S
C597   O643    1.282   .     A
C598   C599    1.419   .     A
C598   C600    1.404   .     A
C599   C619    1.425   .     A
C599   C602    1.412   .     A
C600   H628    1.084   .     S
C600   C601    1.391   .     A
C601   C613    1.395   .     A
C601   H626    1.083   .     S
C602   H630    1.078   .     S
C602   C613    1.394   .     A
C603   Br650   1.929   .     S
C603   C663    1.339   .     S
C605   C614    1.393   .     A
C605   C612    1.402   .     A
C605   H632    1.083   .     S
C606   C609    1.452   .     S
C606   C784    1.344   .     S
C606   H806    1.088   .     S
C607   C608    1.428   .     S
C607   C960    1.344   1_545 S
C607   Br946   1.931   1_545 S
C608   O638    1.277   .     A
C608   O644    1.274   .     A
C609   O639    1.259   .     A
C609   O645    1.274   .     A
C610   C613    1.453   .     S
C610   O634    1.277   .     A
C610   O636    1.274   .     A
C611   O635    1.283   .     A
C611   C612    1.472   .     S
C611   O637    1.287   .     A
C612   C615    1.399   .     A
C614   C617    1.403   .     A
C614   H627    1.084   .     S
C615   C616    1.404   .     A
C615   H623    1.078   .     S
C616   C618    1.424   .     A
C616   C617    1.416   .     A
C617   C90     1.391   1_556 S
C618   C88     1.427   1_556 S
C619   C620    1.416   .     A
C620   H624    1.077   .     S
C620   C621    1.388   .     A
C621   H622    1.084   .     S
H625   C663    1.086   .     S
H629   C960    1.088   1_545 S
O633   Zn649   1.927   .     S
O633   Zn647   1.946   .     S
O633   Zn646   1.964   .     S
O633   Zn648   1.932   .     S
O634   Zn647   1.923   .     S
O635   Zn649   1.936   .     S
O636   Zn648   1.930   .     S
O637   Zn646   1.917   .     S
O638   Zn646   1.937   .     S
O639   Zn649   1.940   .     S
O640   Zn647   1.924   .     S
O641   Zn648   1.938   .     S
O642   Zn649   1.933   .     S
O643   Zn646   1.921   .     S
O644   Zn647   1.946   .     S
O645   Zn648   1.938   .     S
Br651  C843    1.931   .     S
Br652  C654    1.931   .     S
C653   O699    1.270   .     A
C653   O701    1.269   .     A
C653   C663    1.438   .     S
C654   C677    1.424   .     A
C654   C655    1.390   .     A
C655   H690    1.084   .     S
C655   C126    1.392   1_556 S
C656   O700    1.282   .     A
C656   C662    1.458   .     S
C656   O702    1.282   .     A
C657   C658    1.419   .     A
C657   C659    1.404   .     A
C658   C678    1.425   .     A
C658   C661    1.412   .     A
C659   H687    1.084   .     S
C659   C660    1.391   .     A
C660   C672    1.395   .     A
C660   H685    1.083   .     S
C661   H689    1.078   .     S
C661   C672    1.394   .     A
C662   Br532   1.929   1_655 S
C662   C545    1.339   1_655 S
C664   C673    1.393   .     A
C664   C671    1.402   .     A
C664   H691    1.083   .     S
C665   C668    1.452   .     S
C665   C843    1.344   .     S
C665   H865    1.088   .     S
C666   C667    1.428   .     S
C666   C1019   1.344   1_545 S
C666   Br1005  1.931   1_545 S
C667   O697    1.277   .     A
C667   O703    1.274   .     A
C668   O698    1.259   .     A
C668   O704    1.274   .     A
C669   C672    1.453   .     S
C669   O693    1.277   .     A
C669   O695    1.274   .     A
C670   O694    1.283   .     A
C670   C671    1.472   .     S
C670   O696    1.287   .     A
C671   C674    1.399   .     A
C673   C676    1.403   .     A
C673   H686    1.084   .     S
C674   C675    1.404   .     A
C674   H682    1.078   .     S
C675   C677    1.424   .     A
C675   C676    1.416   .     A
C676   C149    1.391   1_556 S
C677   C147    1.427   1_556 S
C678   C679    1.416   .     A
C679   H683    1.077   .     S
C679   C680    1.388   .     A
C680   H681    1.084   .     S
H684   C545    1.086   1_655 S
H688   C1019   1.088   1_545 S
O692   Zn708   1.927   .     S
O692   Zn706   1.946   .     S
O692   Zn705   1.964   .     S
O692   Zn707   1.932   .     S
O693   Zn706   1.923   .     S
O694   Zn708   1.936   .     S
O695   Zn707   1.930   .     S
O696   Zn705   1.917   .     S
O697   Zn705   1.937   .     S
O698   Zn708   1.940   .     S
O699   Zn706   1.924   .     S
O700   Zn707   1.938   .     S
O701   Zn708   1.933   .     S
O702   Zn705   1.921   .     S
O703   Zn706   1.946   .     S
O704   Zn707   1.938   .     S
Br709  C839    1.929   1_455 S
Br710  C902    1.931   .     S
Br711  C713    1.931   .     S
C712   O758    1.270   .     A
C712   O760    1.269   .     A
C712   C722    1.438   .     S
C713   C736    1.424   .     A
C713   C714    1.390   .     A
C714   H749    1.084   .     S
C714   C185    1.392   1_556 S
C715   O759    1.282   .     A
C715   C721    1.458   .     S
C715   O761    1.282   .     A
C716   C717    1.419   .     A
C716   C718    1.404   .     A
C717   C737    1.425   .     A
C717   C720    1.412   .     A
C718   H746    1.084   .     S
C718   C719    1.391   .     A
C719   C731    1.395   .     A
C719   H744    1.083   .     S
C720   H748    1.078   .     S
C720   C731    1.394   .     A
C721   Br768   1.929   .     S
C721   C781    1.339   .     S
C722   C839    1.339   1_455 S
C722   H861    1.086   1_455 S
C723   C732    1.393   .     A
C723   C730    1.402   .     A
C723   H750    1.083   .     S
C724   C727    1.452   .     S
C724   C902    1.344   .     S
C724   H924    1.088   .     S
C725   C726    1.428   .     S
C726   O756    1.277   .     A
C726   O762    1.274   .     A
C727   O757    1.259   .     A
C727   O763    1.274   .     A
C728   C731    1.453   .     S
C728   O752    1.277   .     A
C728   O754    1.274   .     A
C729   O753    1.283   .     A
C729   C730    1.472   .     S
C729   O755    1.287   .     A
C730   C733    1.399   .     A
C732   C735    1.403   .     A
C732   H745    1.084   .     S
C733   C734    1.404   .     A
C733   H741    1.078   .     S
C734   C736    1.424   .     A
C734   C735    1.416   .     A
C735   C208    1.391   1_556 S
C736   C206    1.427   1_556 S
C737   C738    1.416   .     A
C738   H742    1.077   .     S
C738   C739    1.388   .     A
C739   H740    1.084   .     S
H743   C781    1.086   .     S
O751   Zn767   1.927   .     S
O751   Zn765   1.946   .     S
O751   Zn764   1.964   .     S
O751   Zn766   1.932   .     S
O752   Zn765   1.923   .     S
O753   Zn767   1.936   .     S
O754   Zn766   1.930   .     S
O755   Zn764   1.917   .     S
O756   Zn764   1.937   .     S
O757   Zn767   1.940   .     S
O758   Zn765   1.924   .     S
O759   Zn766   1.938   .     S
O760   Zn767   1.933   .     S
O761   Zn764   1.921   .     S
O762   Zn765   1.946   .     S
O763   Zn766   1.938   .     S
Br769  C961    1.931   .     S
Br770  C772    1.931   .     S
C771   O817    1.270   .     A
C771   O819    1.269   .     A
C771   C781    1.438   .     S
C772   C795    1.424   .     A
C772   C773    1.390   .     A
C773   H808    1.084   .     S
C773   C244    1.392   1_556 S
C774   O818    1.282   .     A
C774   C780    1.458   .     S
C774   O820    1.282   .     A
C775   C776    1.419   .     A
C775   C777    1.404   .     A
C776   C796    1.425   .     A
C776   C779    1.412   .     A
C777   H805    1.084   .     S
C777   C778    1.391   .     A
C778   C790    1.395   .     A
C778   H803    1.083   .     S
C779   H807    1.078   .     S
C779   C790    1.394   .     A
C780   Br827   1.929   .     S
C780   C840    1.339   .     S
C782   C791    1.393   .     A
C782   C789    1.402   .     A
C782   H809    1.083   .     S
C783   C786    1.452   .     S
C783   C961    1.344   .     S
C783   H983    1.088   .     S
C784   C785    1.428   .     S
C785   O815    1.277   .     A
C785   O821    1.274   .     A
C786   O816    1.259   .     A
C786   O822    1.274   .     A
C787   C790    1.453   .     S
C787   O811    1.277   .     A
C787   O813    1.274   .     A
C788   O812    1.283   .     A
C788   C789    1.472   .     S
C788   O814    1.287   .     A
C789   C792    1.399   .     A
C791   C794    1.403   .     A
C791   H804    1.084   .     S
C792   C793    1.404   .     A
C792   H800    1.078   .     S
C793   C795    1.424   .     A
C793   C794    1.416   .     A
C794   C267    1.391   1_556 S
C795   C265    1.427   1_556 S
C796   C797    1.416   .     A
C797   H801    1.077   .     S
C797   C798    1.388   .     A
C798   H799    1.084   .     S
H802   C840    1.086   .     S
O810   Zn826   1.927   .     S
O810   Zn824   1.946   .     S
O810   Zn823   1.964   .     S
O810   Zn825   1.932   .     S
O811   Zn824   1.923   .     S
O812   Zn826   1.936   .     S
O813   Zn825   1.930   .     S
O814   Zn823   1.917   .     S
O815   Zn823   1.937   .     S
O816   Zn826   1.940   .     S
O817   Zn824   1.924   .     S
O818   Zn825   1.938   .     S
O819   Zn826   1.933   .     S
O820   Zn823   1.921   .     S
O821   Zn824   1.946   .     S
O822   Zn825   1.938   .     S
Br828  C1020   1.931   .     S
Br829  C831    1.931   .     S
C830   O876    1.270   .     A
C830   O878    1.269   .     A
C830   C840    1.438   .     S
C831   C854    1.424   .     A
C831   C832    1.390   .     A
C832   H867    1.084   .     S
C832   C303    1.392   1_556 S
C833   O877    1.282   .     A
C833   C839    1.458   .     S
C833   O879    1.282   .     A
C834   C835    1.419   .     A
C834   C836    1.404   .     A
C835   C855    1.425   .     A
C835   C838    1.412   .     A
C836   H864    1.084   .     S
C836   C837    1.391   .     A
C837   C849    1.395   .     A
C837   H862    1.083   .     S
C838   H866    1.078   .     S
C838   C849    1.394   .     A
C839   Br709   1.929   1_655 S
C839   C722    1.339   1_655 S
C841   C850    1.393   .     A
C841   C848    1.402   .     A
C841   H868    1.083   .     S
C842   C845    1.452   .     S
C842   C1020   1.344   .     S
C842   H1042   1.088   .     S
C843   C844    1.428   .     S
C844   O874    1.277   .     A
C844   O880    1.274   .     A
C845   O875    1.259   .     A
C845   O881    1.274   .     A
C846   C849    1.453   .     S
C846   O870    1.277   .     A
C846   O872    1.274   .     A
C847   O871    1.283   .     A
C847   C848    1.472   .     S
C847   O873    1.287   .     A
C848   C851    1.399   .     A
C850   C853    1.403   .     A
C850   H863    1.084   .     S
C851   C852    1.404   .     A
C851   H859    1.078   .     S
C852   C854    1.424   .     A
C852   C853    1.416   .     A
C853   C326    1.391   1_556 S
C854   C324    1.427   1_556 S
C855   C856    1.416   .     A
C856   H860    1.077   .     S
C856   C857    1.388   .     A
C857   H858    1.084   .     S
H861   C722    1.086   1_655 S
O869   Zn885   1.927   .     S
O869   Zn883   1.946   .     S
O869   Zn882   1.964   .     S
O869   Zn884   1.932   .     S
O870   Zn883   1.923   .     S
O871   Zn885   1.936   .     S
O872   Zn884   1.930   .     S
O873   Zn882   1.917   .     S
O874   Zn882   1.937   .     S
O875   Zn885   1.940   .     S
O876   Zn883   1.924   .     S
O877   Zn884   1.938   .     S
O878   Zn885   1.933   .     S
O879   Zn882   1.921   .     S
O880   Zn883   1.946   .     S
O881   Zn884   1.938   .     S
Br886  C1016   1.929   1_455 S
Br887  C548    1.931   1_565 S
Br888  C890    1.931   .     S
C889   O935    1.270   .     A
C889   O937    1.269   .     A
C889   C899    1.438   .     S
C890   C913    1.424   .     A
C890   C891    1.390   .     A
C891   H926    1.084   .     S
C891   C362    1.392   1_556 S
C892   O936    1.282   .     A
C892   C898    1.458   .     S
C892   O938    1.282   .     A
C893   C894    1.419   .     A
C893   C895    1.404   .     A
C894   C914    1.425   .     A
C894   C897    1.412   .     A
C895   H923    1.084   .     S
C895   C896    1.391   .     A
C896   C908    1.395   .     A
C896   H921    1.083   .     S
C897   H925    1.078   .     S
C897   C908    1.394   .     A
C898   Br945   1.929   .     S
C898   C958    1.339   .     S
C899   C1016   1.339   1_455 S
C899   H1038   1.086   1_455 S
C900   C909    1.393   .     A
C900   C907    1.402   .     A
C900   H927    1.083   .     S
C901   C904    1.452   .     S
C901   C548    1.344   1_565 S
C901   H570    1.088   1_565 S
C902   C903    1.428   .     S
C903   O933    1.277   .     A
C903   O939    1.274   .     A
C904   O934    1.259   .     A
C904   O940    1.274   .     A
C905   C908    1.453   .     S
C905   O929    1.277   .     A
C905   O931    1.274   .     A
C906   O930    1.283   .     A
C906   C907    1.472   .     S
C906   O932    1.287   .     A
C907   C910    1.399   .     A
C909   C912    1.403   .     A
C909   H922    1.084   .     S
C910   C911    1.404   .     A
C910   H918    1.078   .     S
C911   C913    1.424   .     A
C911   C912    1.416   .     A
C912   C385    1.391   1_556 S
C913   C383    1.427   1_556 S
C914   C915    1.416   .     A
C915   H919    1.077   .     S
C915   C916    1.388   .     A
C916   H917    1.084   .     S
H920   C958    1.086   .     S
O928   Zn944   1.927   .     S
O928   Zn942   1.946   .     S
O928   Zn941   1.964   .     S
O928   Zn943   1.932   .     S
O929   Zn942   1.923   .     S
O930   Zn944   1.936   .     S
O931   Zn943   1.930   .     S
O932   Zn941   1.917   .     S
O933   Zn941   1.937   .     S
O934   Zn944   1.940   .     S
O935   Zn942   1.924   .     S
O936   Zn943   1.938   .     S
O937   Zn944   1.933   .     S
O938   Zn941   1.921   .     S
O939   Zn942   1.946   .     S
O940   Zn943   1.938   .     S
Br946  C607    1.931   1_565 S
Br947  C949    1.931   .     S
C948   O994    1.270   .     A
C948   O996    1.269   .     A
C948   C958    1.438   .     S
C949   C972    1.424   .     A
C949   C950    1.390   .     A
C950   H985    1.084   .     S
C950   C421    1.392   1_556 S
C951   O995    1.282   .     A
C951   C957    1.458   .     S
C951   O997    1.282   .     A
C952   C953    1.419   .     A
C952   C954    1.404   .     A
C953   C973    1.425   .     A
C953   C956    1.412   .     A
C954   H982    1.084   .     S
C954   C955    1.391   .     A
C955   C967    1.395   .     A
C955   H980    1.083   .     S
C956   H984    1.078   .     S
C956   C967    1.394   .     A
C957   Br1004  1.929   .     S
C957   C1017   1.339   .     S
C959   C968    1.393   .     A
C959   C966    1.402   .     A
C959   H986    1.083   .     S
C960   C963    1.452   .     S
C960   C607    1.344   1_565 S
C960   H629    1.088   1_565 S
C961   C962    1.428   .     S
C962   O992    1.277   .     A
C962   O998    1.274   .     A
C963   O993    1.259   .     A
C963   O999    1.274   .     A
C964   C967    1.453   .     S
C964   O988    1.277   .     A
C964   O990    1.274   .     A
C965   O989    1.283   .     A
C965   C966    1.472   .     S
C965   O991    1.287   .     A
C966   C969    1.399   .     A
C968   C971    1.403   .     A
C968   H981    1.084   .     S
C969   C970    1.404   .     A
C969   H977    1.078   .     S
C970   C972    1.424   .     A
C970   C971    1.416   .     A
C971   C444    1.391   1_556 S
C972   C442    1.427   1_556 S
C973   C974    1.416   .     A
C974   H978    1.077   .     S
C974   C975    1.388   .     A
C975   H976    1.084   .     S
H979   C1017   1.086   .     S
O987   Zn1003  1.927   .     S
O987   Zn1001  1.946   .     S
O987   Zn1000  1.964   .     S
O987   Zn1002  1.932   .     S
O988   Zn1001  1.923   .     S
O989   Zn1003  1.936   .     S
O990   Zn1002  1.930   .     S
O991   Zn1000  1.917   .     S
O992   Zn1000  1.937   .     S
O993   Zn1003  1.940   .     S
O994   Zn1001  1.924   .     S
O995   Zn1002  1.938   .     S
O996   Zn1003  1.933   .     S
O997   Zn1000  1.921   .     S
O998   Zn1001  1.946   .     S
O999   Zn1002  1.938   .     S
Br1005 C666    1.931   1_565 S
Br1006 C1008   1.931   .     S
C1007  O1053   1.270   .     A
C1007  O1055   1.269   .     A
C1007  C1017   1.438   .     S
C1008  C1031   1.424   .     A
C1008  C1009   1.390   .     A
C1009  H1044   1.084   .     S
C1009  C480    1.392   1_556 S
C1010  O1054   1.282   .     A
C1010  C1016   1.458   .     S
C1010  O1056   1.282   .     A
C1011  C1012   1.419   .     A
C1011  C1013   1.404   .     A
C1012  C1032   1.425   .     A
C1012  C1015   1.412   .     A
C1013  H1041   1.084   .     S
C1013  C1014   1.391   .     A
C1014  C1026   1.395   .     A
C1014  H1039   1.083   .     S
C1015  H1043   1.078   .     S
C1015  C1026   1.394   .     A
C1016  Br886   1.929   1_655 S
C1016  C899    1.339   1_655 S
C1018  C1027   1.393   .     A
C1018  C1025   1.402   .     A
C1018  H1045   1.083   .     S
C1019  C1022   1.452   .     S
C1019  C666    1.344   1_565 S
C1019  H688    1.088   1_565 S
C1020  C1021   1.428   .     S
C1021  O1051   1.277   .     A
C1021  O1057   1.274   .     A
C1022  O1052   1.259   .     A
C1022  O1058   1.274   .     A
C1023  C1026   1.453   .     S
C1023  O1047   1.277   .     A
C1023  O1049   1.274   .     A
C1024  O1048   1.283   .     A
C1024  C1025   1.472   .     S
C1024  O1050   1.287   .     A
C1025  C1028   1.399   .     A
C1027  C1030   1.403   .     A
C1027  H1040   1.084   .     S
C1028  C1029   1.404   .     A
C1028  H1036   1.078   .     S
C1029  C1031   1.424   .     A
C1029  C1030   1.416   .     A
C1030  C503    1.391   1_556 S
C1031  C501    1.427   1_556 S
C1032  C1033   1.416   .     A
C1033  H1037   1.077   .     S
C1033  C1034   1.388   .     A
C1034  H1035   1.084   .     S
H1038  C899    1.086   1_655 S
O1046  Zn1062  1.927   .     S
O1046  Zn1060  1.946   .     S
O1046  Zn1059  1.964   .     S
O1046  Zn1061  1.932   .     S
O1047  Zn1060  1.923   .     S
O1048  Zn1062  1.936   .     S
O1049  Zn1061  1.930   .     S
O1050  Zn1059  1.917   .     S
O1051  Zn1059  1.937   .     S
O1052  Zn1062  1.940   .     S
O1053  Zn1060  1.924   .     S
O1054  Zn1061  1.938   .     S
O1055  Zn1062  1.933   .     S
O1056  Zn1059  1.921   .     S
O1057  Zn1060  1.946   .     S
O1058  Zn1061  1.938   .     S
