data_str_m3_o2_o10_pcu_sym.97
_audit_creation_date              2020-01-03
_audit_creation_method            'Materials Studio'
_symmetry_space_group_name_H-M    'P1'
_symmetry_Int_Tables_number       1
_symmetry_cell_setting            triclinic
loop_
_symmetry_equiv_pos_as_xyz
  x,y,z
_cell_length_a                    25.9322
_cell_length_b                    29.9999
_cell_length_c                    28.4602
_cell_angle_alpha                 89.5318
_cell_angle_beta                  97.9267
_cell_angle_gamma                 90.6545
loop_
_atom_site_label
_atom_site_type_symbol
_atom_site_fract_x
_atom_site_fract_y
_atom_site_fract_z
_atom_site_U_iso_or_equiv
_atom_site_adp_type
_atom_site_occupancy
C1     C     0.16696   0.16393   0.25018   0.00000  Uiso   1.00
C2     C     0.12984   0.22555   0.44305   0.00000  Uiso   1.00
C3     C     0.16744   0.24921   0.02683   0.00000  Uiso   1.00
C4     C     0.16764   0.24943   0.47341   0.00000  Uiso   1.00
C5     C     0.06733   0.24974   0.23792   0.00000  Uiso   1.00
C6     C     0.26600   0.25042   0.26207   0.00000  Uiso   1.00
C7     C     0.01303   0.24338   0.23244   0.00000  Uiso   1.00
C8     C     0.32027   0.25704   0.26743   0.00000  Uiso   1.00
C9     C     0.15297   0.04613   0.28795   0.00000  Uiso   1.00
C10    C     0.15372   0.45356   0.20830   0.00000  Uiso   1.00
C11    C     0.15158   0.09213   0.28795   0.00000  Uiso   1.00
C12    C     0.16708   0.33607   0.24990   0.00000  Uiso   1.00
C13    C     0.15236   0.40754   0.20802   0.00000  Uiso   1.00
C14    C     0.16878   0.11605   0.25060   0.00000  Uiso   1.00
C15    C     0.16899   0.38398   0.24987   0.00000  Uiso   1.00
C16    C     0.18814   0.09404   0.21364   0.00000  Uiso   1.00
C17    C     0.18784   0.40640   0.29179   0.00000  Uiso   1.00
C18    C     0.19010   0.04809   0.21395   0.00000  Uiso   1.00
C19    C     0.18975   0.45239   0.29191   0.00000  Uiso   1.00
C20    C     0.17217   0.02411   0.25091   0.00000  Uiso   1.00
C21    C     0.17228   0.47599   0.25029   0.00000  Uiso   1.00
C22    C     0.13983   0.21662   0.04998   0.00000  Uiso   1.00
C23    C     0.20543   0.27336   0.45158   0.00000  Uiso   1.00
C24    C     0.13937   0.21805   0.09933   0.00000  Uiso   1.00
C25    C     0.20373   0.27371   0.40193   0.00000  Uiso   1.00
C26    C     0.19525   0.28104   0.10518   0.00000  Uiso   1.00
C27    C     0.13069   0.22526   0.39388   0.00000  Uiso   1.00
C28    C     0.19501   0.28176   0.05586   0.00000  Uiso   1.00
Cl29   Cl    0.23484   0.32019   0.13899   0.00000  Uiso   1.00
Cl30   Cl    0.08555   0.19072   0.35945   0.00000  Uiso   1.00
H31    H     0.13832   0.02775   0.31634   0.00000  Uiso   1.00
H32    H     0.23687   0.29143   0.47216   0.00000  Uiso   1.00
H33    H     0.11766   0.19305   0.11626   0.00000  Uiso   1.00
H34    H     0.23272   0.29250   0.38593   0.00000  Uiso   1.00
H35    H     0.21651   0.30812   0.04099   0.00000  Uiso   1.00
H36    H     0.09923   0.20692   0.45673   0.00000  Uiso   1.00
H37    H     0.00765   0.18741   0.19219   0.00000  Uiso   1.00
H38    H     0.32793   0.23538   0.16124   0.00000  Uiso   1.00
H39    H     0.32565   0.31352   0.30679   0.00000  Uiso   1.00
H40    H     0.00485   0.26601   0.33855   0.00000  Uiso   1.00
H41    H     0.13946   0.47163   0.17609   0.00000  Uiso   1.00
H42    H     0.13631   0.10889   0.31658   0.00000  Uiso   1.00
H43    H     0.13753   0.39045   0.17546   0.00000  Uiso   1.00
H44    H     0.20219   0.11231   0.18487   0.00000  Uiso   1.00
H45    H     0.20150   0.38843   0.32422   0.00000  Uiso   1.00
H46    H     0.20567   0.03126   0.18551   0.00000  Uiso   1.00
H47    H     0.20486   0.46954   0.32435   0.00000  Uiso   1.00
H48    H     0.11902   0.18956   0.03079   0.00000  Uiso   1.00
N49    N     0.16667   0.24999   0.12624   0.00000  Uiso   1.00
N50    N     0.16667   0.25001   0.37377   0.00000  Uiso   1.00
N51    N     0.32228   0.21811   0.19222   0.00000  Uiso   1.00
N52    N     0.01092   0.28273   0.30737   0.00000  Uiso   1.00
O53    O     0.16667   0.18453   0.28974   0.00000  Uiso   1.00
O54    O     0.16666   0.31546   0.21026   0.00000  Uiso   1.00
O55    O     0.16667   0.18453   0.21026   0.00000  Uiso   1.00
O56    O     0.16666   0.31547   0.28974   0.00000  Uiso   1.00
O57    O     0.09058   0.25000   0.28045   0.00000  Uiso   1.00
O58    O     0.24275   0.25000   0.21956   0.00000  Uiso   1.00
O59    O     0.09058   0.24999   0.20097   0.00000  Uiso   1.00
O60    O     0.24275   0.25000   0.29904   0.00000  Uiso   1.00
Zn61   Zn    0.16667   0.25000   0.30307   0.00000  Uiso   1.00
Zn62   Zn    0.16667   0.24999   0.19693   0.00000  Uiso   1.00
C63    C     0.50029   0.16393   0.25018   0.00000  Uiso   1.00
C64    C     0.46317   0.22555   0.44305   0.00000  Uiso   1.00
C65    C     0.50078   0.24921   0.02683   0.00000  Uiso   1.00
C66    C     0.50098   0.24943   0.47341   0.00000  Uiso   1.00
C67    C     0.40066   0.24974   0.23792   0.00000  Uiso   1.00
C68    C     0.59934   0.25042   0.26207   0.00000  Uiso   1.00
C69    C     0.34636   0.24338   0.23244   0.00000  Uiso   1.00
C70    C     0.65360   0.25704   0.26743   0.00000  Uiso   1.00
C71    C     0.48630   0.04613   0.28795   0.00000  Uiso   1.00
C72    C     0.48705   0.45356   0.20830   0.00000  Uiso   1.00
C73    C     0.48491   0.09213   0.28795   0.00000  Uiso   1.00
C74    C     0.50041   0.33607   0.24990   0.00000  Uiso   1.00
C75    C     0.48570   0.40754   0.20802   0.00000  Uiso   1.00
C76    C     0.50212   0.11605   0.25060   0.00000  Uiso   1.00
C77    C     0.50232   0.38398   0.24987   0.00000  Uiso   1.00
C78    C     0.52147   0.09404   0.21364   0.00000  Uiso   1.00
C79    C     0.52118   0.40640   0.29179   0.00000  Uiso   1.00
C80    C     0.52344   0.04809   0.21395   0.00000  Uiso   1.00
C81    C     0.52308   0.45239   0.29191   0.00000  Uiso   1.00
C82    C     0.50550   0.02411   0.25091   0.00000  Uiso   1.00
C83    C     0.50561   0.47599   0.25029   0.00000  Uiso   1.00
C84    C     0.47317   0.21662   0.04998   0.00000  Uiso   1.00
C85    C     0.53876   0.27336   0.45158   0.00000  Uiso   1.00
C86    C     0.47270   0.21805   0.09933   0.00000  Uiso   1.00
C87    C     0.53706   0.27371   0.40193   0.00000  Uiso   1.00
C88    C     0.52858   0.28104   0.10518   0.00000  Uiso   1.00
C89    C     0.46402   0.22526   0.39388   0.00000  Uiso   1.00
C90    C     0.52835   0.28176   0.05586   0.00000  Uiso   1.00
Cl91   Cl    0.56817   0.32019   0.13899   0.00000  Uiso   1.00
Cl92   Cl    0.41888   0.19072   0.35945   0.00000  Uiso   1.00
H93    H     0.47165   0.02775   0.31634   0.00000  Uiso   1.00
H94    H     0.57020   0.29143   0.47216   0.00000  Uiso   1.00
H95    H     0.45100   0.19305   0.11626   0.00000  Uiso   1.00
H96    H     0.56605   0.29250   0.38593   0.00000  Uiso   1.00
H97    H     0.54985   0.30812   0.04099   0.00000  Uiso   1.00
H98    H     0.43257   0.20692   0.45673   0.00000  Uiso   1.00
H99    H     0.34098   0.18741   0.19219   0.00000  Uiso   1.00
H100   H     0.66126   0.23538   0.16124   0.00000  Uiso   1.00
H101   H     0.65898   0.31352   0.30679   0.00000  Uiso   1.00
H102   H     0.33818   0.26601   0.33855   0.00000  Uiso   1.00
H103   H     0.47280   0.47163   0.17609   0.00000  Uiso   1.00
H104   H     0.46965   0.10889   0.31658   0.00000  Uiso   1.00
H105   H     0.47086   0.39045   0.17546   0.00000  Uiso   1.00
H106   H     0.53552   0.11231   0.18487   0.00000  Uiso   1.00
H107   H     0.53483   0.38843   0.32422   0.00000  Uiso   1.00
H108   H     0.53900   0.03126   0.18551   0.00000  Uiso   1.00
H109   H     0.53819   0.46954   0.32435   0.00000  Uiso   1.00
H110   H     0.45235   0.18956   0.03079   0.00000  Uiso   1.00
N111   N     0.50000   0.24999   0.12624   0.00000  Uiso   1.00
N112   N     0.50000   0.25001   0.37377   0.00000  Uiso   1.00
N113   N     0.65561   0.21811   0.19222   0.00000  Uiso   1.00
N114   N     0.34425   0.28273   0.30737   0.00000  Uiso   1.00
O115   O     0.50000   0.18453   0.28974   0.00000  Uiso   1.00
O116   O     0.50000   0.31546   0.21026   0.00000  Uiso   1.00
O117   O     0.50000   0.18453   0.21026   0.00000  Uiso   1.00
O118   O     0.50000   0.31547   0.28974   0.00000  Uiso   1.00
O119   O     0.42392   0.25000   0.28045   0.00000  Uiso   1.00
O120   O     0.57608   0.25000   0.21956   0.00000  Uiso   1.00
O121   O     0.42392   0.24999   0.20097   0.00000  Uiso   1.00
O122   O     0.57608   0.25000   0.29904   0.00000  Uiso   1.00
Zn123  Zn    0.50000   0.25000   0.30307   0.00000  Uiso   1.00
Zn124  Zn    0.50000   0.24999   0.19693   0.00000  Uiso   1.00
C125   C     0.83363   0.16393   0.25018   0.00000  Uiso   1.00
C126   C     0.79650   0.22555   0.44305   0.00000  Uiso   1.00
C127   C     0.83411   0.24921   0.02683   0.00000  Uiso   1.00
C128   C     0.83431   0.24943   0.47341   0.00000  Uiso   1.00
C129   C     0.73399   0.24974   0.23792   0.00000  Uiso   1.00
C130   C     0.93267   0.25042   0.26207   0.00000  Uiso   1.00
C131   C     0.67970   0.24338   0.23244   0.00000  Uiso   1.00
C132   C     0.98694   0.25704   0.26743   0.00000  Uiso   1.00
C133   C     0.81964   0.04613   0.28795   0.00000  Uiso   1.00
C134   C     0.82038   0.45356   0.20830   0.00000  Uiso   1.00
C135   C     0.81824   0.09213   0.28795   0.00000  Uiso   1.00
C136   C     0.83374   0.33607   0.24990   0.00000  Uiso   1.00
C137   C     0.81903   0.40754   0.20802   0.00000  Uiso   1.00
C138   C     0.83545   0.11605   0.25060   0.00000  Uiso   1.00
C139   C     0.83566   0.38398   0.24987   0.00000  Uiso   1.00
C140   C     0.85480   0.09404   0.21364   0.00000  Uiso   1.00
C141   C     0.85451   0.40640   0.29179   0.00000  Uiso   1.00
C142   C     0.85677   0.04809   0.21395   0.00000  Uiso   1.00
C143   C     0.85642   0.45239   0.29191   0.00000  Uiso   1.00
C144   C     0.83883   0.02411   0.25091   0.00000  Uiso   1.00
C145   C     0.83895   0.47599   0.25029   0.00000  Uiso   1.00
C146   C     0.80650   0.21662   0.04998   0.00000  Uiso   1.00
C147   C     0.87209   0.27336   0.45158   0.00000  Uiso   1.00
C148   C     0.80604   0.21805   0.09933   0.00000  Uiso   1.00
C149   C     0.87039   0.27371   0.40193   0.00000  Uiso   1.00
C150   C     0.86192   0.28104   0.10518   0.00000  Uiso   1.00
C151   C     0.79735   0.22526   0.39388   0.00000  Uiso   1.00
C152   C     0.86168   0.28176   0.05586   0.00000  Uiso   1.00
Cl153  Cl    0.90151   0.32019   0.13899   0.00000  Uiso   1.00
Cl154  Cl    0.75221   0.19072   0.35945   0.00000  Uiso   1.00
H155   H     0.80498   0.02775   0.31634   0.00000  Uiso   1.00
H156   H     0.90353   0.29143   0.47216   0.00000  Uiso   1.00
H157   H     0.78433   0.19305   0.11626   0.00000  Uiso   1.00
H158   H     0.89938   0.29250   0.38593   0.00000  Uiso   1.00
H159   H     0.88318   0.30812   0.04099   0.00000  Uiso   1.00
H160   H     0.76590   0.20692   0.45673   0.00000  Uiso   1.00
H161   H     0.67431   0.18741   0.19219   0.00000  Uiso   1.00
H162   H     0.99460   0.23538   0.16124   0.00000  Uiso   1.00
H163   H     0.99232   0.31352   0.30679   0.00000  Uiso   1.00
H164   H     0.67152   0.26601   0.33855   0.00000  Uiso   1.00
H165   H     0.80613   0.47163   0.17609   0.00000  Uiso   1.00
H166   H     0.80298   0.10889   0.31658   0.00000  Uiso   1.00
H167   H     0.80419   0.39045   0.17546   0.00000  Uiso   1.00
H168   H     0.86886   0.11231   0.18487   0.00000  Uiso   1.00
H169   H     0.86817   0.38843   0.32422   0.00000  Uiso   1.00
H170   H     0.87234   0.03126   0.18551   0.00000  Uiso   1.00
H171   H     0.87153   0.46954   0.32435   0.00000  Uiso   1.00
H172   H     0.78569   0.18956   0.03079   0.00000  Uiso   1.00
N173   N     0.83333   0.24999   0.12624   0.00000  Uiso   1.00
N174   N     0.83333   0.25001   0.37377   0.00000  Uiso   1.00
N175   N     0.98894   0.21811   0.19222   0.00000  Uiso   1.00
N176   N     0.67758   0.28273   0.30737   0.00000  Uiso   1.00
O177   O     0.83334   0.18453   0.28974   0.00000  Uiso   1.00
O178   O     0.83333   0.31546   0.21026   0.00000  Uiso   1.00
O179   O     0.83334   0.18453   0.21026   0.00000  Uiso   1.00
O180   O     0.83333   0.31547   0.28974   0.00000  Uiso   1.00
O181   O     0.75725   0.25000   0.28045   0.00000  Uiso   1.00
O182   O     0.90942   0.25000   0.21956   0.00000  Uiso   1.00
O183   O     0.75725   0.24999   0.20097   0.00000  Uiso   1.00
O184   O     0.90942   0.25000   0.29904   0.00000  Uiso   1.00
Zn185  Zn    0.83333   0.25000   0.30307   0.00000  Uiso   1.00
Zn186  Zn    0.83333   0.24999   0.19693   0.00000  Uiso   1.00
C187   C     0.16696   0.66393   0.25018   0.00000  Uiso   1.00
C188   C     0.12984   0.72555   0.44305   0.00000  Uiso   1.00
C189   C     0.16744   0.74921   0.02683   0.00000  Uiso   1.00
C190   C     0.16764   0.74943   0.47341   0.00000  Uiso   1.00
C191   C     0.06733   0.74974   0.23792   0.00000  Uiso   1.00
C192   C     0.26600   0.75042   0.26207   0.00000  Uiso   1.00
C193   C     0.01303   0.74338   0.23244   0.00000  Uiso   1.00
C194   C     0.32027   0.75704   0.26743   0.00000  Uiso   1.00
C195   C     0.15297   0.54613   0.28795   0.00000  Uiso   1.00
C196   C     0.15372   0.95356   0.20830   0.00000  Uiso   1.00
C197   C     0.15158   0.59213   0.28795   0.00000  Uiso   1.00
C198   C     0.16708   0.83607   0.24990   0.00000  Uiso   1.00
C199   C     0.15236   0.90754   0.20802   0.00000  Uiso   1.00
C200   C     0.16878   0.61605   0.25060   0.00000  Uiso   1.00
C201   C     0.16899   0.88398   0.24987   0.00000  Uiso   1.00
C202   C     0.18814   0.59404   0.21364   0.00000  Uiso   1.00
C203   C     0.18784   0.90640   0.29179   0.00000  Uiso   1.00
C204   C     0.19010   0.54809   0.21395   0.00000  Uiso   1.00
C205   C     0.18975   0.95239   0.29191   0.00000  Uiso   1.00
C206   C     0.17217   0.52411   0.25091   0.00000  Uiso   1.00
C207   C     0.17228   0.97599   0.25029   0.00000  Uiso   1.00
C208   C     0.13983   0.71662   0.04998   0.00000  Uiso   1.00
C209   C     0.20543   0.77336   0.45158   0.00000  Uiso   1.00
C210   C     0.13937   0.71805   0.09933   0.00000  Uiso   1.00
C211   C     0.20373   0.77371   0.40193   0.00000  Uiso   1.00
C212   C     0.19525   0.78104   0.10518   0.00000  Uiso   1.00
C213   C     0.13069   0.72526   0.39388   0.00000  Uiso   1.00
C214   C     0.19501   0.78176   0.05586   0.00000  Uiso   1.00
Cl215  Cl    0.23484   0.82019   0.13899   0.00000  Uiso   1.00
Cl216  Cl    0.08555   0.69072   0.35945   0.00000  Uiso   1.00
H217   H     0.13832   0.52775   0.31634   0.00000  Uiso   1.00
H218   H     0.23687   0.79143   0.47216   0.00000  Uiso   1.00
H219   H     0.11766   0.69305   0.11626   0.00000  Uiso   1.00
H220   H     0.23272   0.79250   0.38593   0.00000  Uiso   1.00
H221   H     0.21651   0.80812   0.04099   0.00000  Uiso   1.00
H222   H     0.09923   0.70692   0.45673   0.00000  Uiso   1.00
H223   H     0.00765   0.68741   0.19219   0.00000  Uiso   1.00
H224   H     0.32793   0.73538   0.16124   0.00000  Uiso   1.00
H225   H     0.32565   0.81352   0.30679   0.00000  Uiso   1.00
H226   H     0.00485   0.76601   0.33855   0.00000  Uiso   1.00
H227   H     0.13946   0.97163   0.17609   0.00000  Uiso   1.00
H228   H     0.13631   0.60889   0.31658   0.00000  Uiso   1.00
H229   H     0.13753   0.89045   0.17546   0.00000  Uiso   1.00
H230   H     0.20219   0.61231   0.18487   0.00000  Uiso   1.00
H231   H     0.20150   0.88843   0.32422   0.00000  Uiso   1.00
H232   H     0.20567   0.53126   0.18551   0.00000  Uiso   1.00
H233   H     0.20486   0.96954   0.32435   0.00000  Uiso   1.00
H234   H     0.11902   0.68956   0.03079   0.00000  Uiso   1.00
N235   N     0.16667   0.74999   0.12624   0.00000  Uiso   1.00
N236   N     0.16667   0.75001   0.37377   0.00000  Uiso   1.00
N237   N     0.32228   0.71811   0.19222   0.00000  Uiso   1.00
N238   N     0.01092   0.78273   0.30737   0.00000  Uiso   1.00
O239   O     0.16667   0.68453   0.28974   0.00000  Uiso   1.00
O240   O     0.16666   0.81546   0.21026   0.00000  Uiso   1.00
O241   O     0.16667   0.68453   0.21026   0.00000  Uiso   1.00
O242   O     0.16666   0.81547   0.28974   0.00000  Uiso   1.00
O243   O     0.09058   0.75000   0.28045   0.00000  Uiso   1.00
O244   O     0.24275   0.75000   0.21956   0.00000  Uiso   1.00
O245   O     0.09058   0.74999   0.20097   0.00000  Uiso   1.00
O246   O     0.24275   0.75000   0.29904   0.00000  Uiso   1.00
Zn247  Zn    0.16667   0.75000   0.30307   0.00000  Uiso   1.00
Zn248  Zn    0.16667   0.74999   0.19693   0.00000  Uiso   1.00
C249   C     0.50029   0.66393   0.25018   0.00000  Uiso   1.00
C250   C     0.46317   0.72555   0.44305   0.00000  Uiso   1.00
C251   C     0.50078   0.74921   0.02683   0.00000  Uiso   1.00
C252   C     0.50098   0.74943   0.47341   0.00000  Uiso   1.00
C253   C     0.40066   0.74974   0.23792   0.00000  Uiso   1.00
C254   C     0.59934   0.75042   0.26207   0.00000  Uiso   1.00
C255   C     0.34636   0.74338   0.23244   0.00000  Uiso   1.00
C256   C     0.65360   0.75704   0.26743   0.00000  Uiso   1.00
C257   C     0.48630   0.54613   0.28795   0.00000  Uiso   1.00
C258   C     0.48705   0.95356   0.20830   0.00000  Uiso   1.00
C259   C     0.48491   0.59213   0.28795   0.00000  Uiso   1.00
C260   C     0.50041   0.83607   0.24990   0.00000  Uiso   1.00
C261   C     0.48570   0.90754   0.20802   0.00000  Uiso   1.00
C262   C     0.50212   0.61605   0.25060   0.00000  Uiso   1.00
C263   C     0.50232   0.88398   0.24987   0.00000  Uiso   1.00
C264   C     0.52147   0.59404   0.21364   0.00000  Uiso   1.00
C265   C     0.52118   0.90640   0.29179   0.00000  Uiso   1.00
C266   C     0.52344   0.54809   0.21395   0.00000  Uiso   1.00
C267   C     0.52308   0.95239   0.29191   0.00000  Uiso   1.00
C268   C     0.50550   0.52411   0.25091   0.00000  Uiso   1.00
C269   C     0.50561   0.97599   0.25029   0.00000  Uiso   1.00
C270   C     0.47317   0.71662   0.04998   0.00000  Uiso   1.00
C271   C     0.53876   0.77336   0.45158   0.00000  Uiso   1.00
C272   C     0.47270   0.71805   0.09933   0.00000  Uiso   1.00
C273   C     0.53706   0.77371   0.40193   0.00000  Uiso   1.00
C274   C     0.52858   0.78104   0.10518   0.00000  Uiso   1.00
C275   C     0.46402   0.72526   0.39388   0.00000  Uiso   1.00
C276   C     0.52835   0.78176   0.05586   0.00000  Uiso   1.00
Cl277  Cl    0.56817   0.82019   0.13899   0.00000  Uiso   1.00
Cl278  Cl    0.41888   0.69072   0.35945   0.00000  Uiso   1.00
H279   H     0.47165   0.52775   0.31634   0.00000  Uiso   1.00
H280   H     0.57020   0.79143   0.47216   0.00000  Uiso   1.00
H281   H     0.45100   0.69305   0.11626   0.00000  Uiso   1.00
H282   H     0.56605   0.79250   0.38593   0.00000  Uiso   1.00
H283   H     0.54985   0.80812   0.04099   0.00000  Uiso   1.00
H284   H     0.43257   0.70692   0.45673   0.00000  Uiso   1.00
H285   H     0.34098   0.68741   0.19219   0.00000  Uiso   1.00
H286   H     0.66126   0.73538   0.16124   0.00000  Uiso   1.00
H287   H     0.65898   0.81352   0.30679   0.00000  Uiso   1.00
H288   H     0.33818   0.76601   0.33855   0.00000  Uiso   1.00
H289   H     0.47280   0.97163   0.17609   0.00000  Uiso   1.00
H290   H     0.46965   0.60889   0.31658   0.00000  Uiso   1.00
H291   H     0.47086   0.89045   0.17546   0.00000  Uiso   1.00
H292   H     0.53552   0.61231   0.18487   0.00000  Uiso   1.00
H293   H     0.53483   0.88843   0.32422   0.00000  Uiso   1.00
H294   H     0.53900   0.53126   0.18551   0.00000  Uiso   1.00
H295   H     0.53819   0.96954   0.32435   0.00000  Uiso   1.00
H296   H     0.45235   0.68956   0.03079   0.00000  Uiso   1.00
N297   N     0.50000   0.74999   0.12624   0.00000  Uiso   1.00
N298   N     0.50000   0.75001   0.37377   0.00000  Uiso   1.00
N299   N     0.65561   0.71811   0.19222   0.00000  Uiso   1.00
N300   N     0.34425   0.78273   0.30737   0.00000  Uiso   1.00
O301   O     0.50000   0.68453   0.28974   0.00000  Uiso   1.00
O302   O     0.50000   0.81546   0.21026   0.00000  Uiso   1.00
O303   O     0.50000   0.68453   0.21026   0.00000  Uiso   1.00
O304   O     0.50000   0.81547   0.28974   0.00000  Uiso   1.00
O305   O     0.42392   0.75000   0.28045   0.00000  Uiso   1.00
O306   O     0.57608   0.75000   0.21956   0.00000  Uiso   1.00
O307   O     0.42392   0.74999   0.20097   0.00000  Uiso   1.00
O308   O     0.57608   0.75000   0.29904   0.00000  Uiso   1.00
Zn309  Zn    0.50000   0.75000   0.30307   0.00000  Uiso   1.00
Zn310  Zn    0.50000   0.74999   0.19693   0.00000  Uiso   1.00
C311   C     0.83363   0.66393   0.25018   0.00000  Uiso   1.00
C312   C     0.79650   0.72555   0.44305   0.00000  Uiso   1.00
C313   C     0.83411   0.74921   0.02683   0.00000  Uiso   1.00
C314   C     0.83431   0.74943   0.47341   0.00000  Uiso   1.00
C315   C     0.73399   0.74974   0.23792   0.00000  Uiso   1.00
C316   C     0.93267   0.75042   0.26207   0.00000  Uiso   1.00
C317   C     0.67970   0.74338   0.23244   0.00000  Uiso   1.00
C318   C     0.98694   0.75704   0.26743   0.00000  Uiso   1.00
C319   C     0.81964   0.54613   0.28795   0.00000  Uiso   1.00
C320   C     0.82038   0.95356   0.20830   0.00000  Uiso   1.00
C321   C     0.81824   0.59213   0.28795   0.00000  Uiso   1.00
C322   C     0.83374   0.83607   0.24990   0.00000  Uiso   1.00
C323   C     0.81903   0.90754   0.20802   0.00000  Uiso   1.00
C324   C     0.83545   0.61605   0.25060   0.00000  Uiso   1.00
C325   C     0.83566   0.88398   0.24987   0.00000  Uiso   1.00
C326   C     0.85480   0.59404   0.21364   0.00000  Uiso   1.00
C327   C     0.85451   0.90640   0.29179   0.00000  Uiso   1.00
C328   C     0.85677   0.54809   0.21395   0.00000  Uiso   1.00
C329   C     0.85642   0.95239   0.29191   0.00000  Uiso   1.00
C330   C     0.83883   0.52411   0.25091   0.00000  Uiso   1.00
C331   C     0.83895   0.97599   0.25029   0.00000  Uiso   1.00
C332   C     0.80650   0.71662   0.04998   0.00000  Uiso   1.00
C333   C     0.87209   0.77336   0.45158   0.00000  Uiso   1.00
C334   C     0.80604   0.71805   0.09933   0.00000  Uiso   1.00
C335   C     0.87039   0.77371   0.40193   0.00000  Uiso   1.00
C336   C     0.86192   0.78104   0.10518   0.00000  Uiso   1.00
C337   C     0.79735   0.72526   0.39388   0.00000  Uiso   1.00
C338   C     0.86168   0.78176   0.05586   0.00000  Uiso   1.00
Cl339  Cl    0.90151   0.82019   0.13899   0.00000  Uiso   1.00
Cl340  Cl    0.75221   0.69072   0.35945   0.00000  Uiso   1.00
H341   H     0.80498   0.52775   0.31634   0.00000  Uiso   1.00
H342   H     0.90353   0.79143   0.47216   0.00000  Uiso   1.00
H343   H     0.78433   0.69305   0.11626   0.00000  Uiso   1.00
H344   H     0.89938   0.79250   0.38593   0.00000  Uiso   1.00
H345   H     0.88318   0.80812   0.04099   0.00000  Uiso   1.00
H346   H     0.76590   0.70692   0.45673   0.00000  Uiso   1.00
H347   H     0.67431   0.68741   0.19219   0.00000  Uiso   1.00
H348   H     0.99460   0.73538   0.16124   0.00000  Uiso   1.00
H349   H     0.99232   0.81352   0.30679   0.00000  Uiso   1.00
H350   H     0.67152   0.76601   0.33855   0.00000  Uiso   1.00
H351   H     0.80613   0.97163   0.17609   0.00000  Uiso   1.00
H352   H     0.80298   0.60889   0.31658   0.00000  Uiso   1.00
H353   H     0.80419   0.89045   0.17546   0.00000  Uiso   1.00
H354   H     0.86886   0.61231   0.18487   0.00000  Uiso   1.00
H355   H     0.86817   0.88843   0.32422   0.00000  Uiso   1.00
H356   H     0.87234   0.53126   0.18551   0.00000  Uiso   1.00
H357   H     0.87153   0.96954   0.32435   0.00000  Uiso   1.00
H358   H     0.78569   0.68956   0.03079   0.00000  Uiso   1.00
N359   N     0.83333   0.74999   0.12624   0.00000  Uiso   1.00
N360   N     0.83333   0.75001   0.37377   0.00000  Uiso   1.00
N361   N     0.98894   0.71811   0.19222   0.00000  Uiso   1.00
N362   N     0.67758   0.78273   0.30737   0.00000  Uiso   1.00
O363   O     0.83334   0.68453   0.28974   0.00000  Uiso   1.00
O364   O     0.83333   0.81546   0.21026   0.00000  Uiso   1.00
O365   O     0.83334   0.68453   0.21026   0.00000  Uiso   1.00
O366   O     0.83333   0.81547   0.28974   0.00000  Uiso   1.00
O367   O     0.75725   0.75000   0.28045   0.00000  Uiso   1.00
O368   O     0.90942   0.75000   0.21956   0.00000  Uiso   1.00
O369   O     0.75725   0.74999   0.20097   0.00000  Uiso   1.00
O370   O     0.90942   0.75000   0.29904   0.00000  Uiso   1.00
Zn371  Zn    0.83333   0.75000   0.30307   0.00000  Uiso   1.00
Zn372  Zn    0.83333   0.74999   0.19693   0.00000  Uiso   1.00
C373   C     0.16696   0.16393   0.75018   0.00000  Uiso   1.00
C374   C     0.12984   0.22555   0.94305   0.00000  Uiso   1.00
C375   C     0.16744   0.24921   0.52683   0.00000  Uiso   1.00
C376   C     0.16764   0.24943   0.97341   0.00000  Uiso   1.00
C377   C     0.06733   0.24974   0.73792   0.00000  Uiso   1.00
C378   C     0.26600   0.25042   0.76207   0.00000  Uiso   1.00
C379   C     0.01303   0.24338   0.73244   0.00000  Uiso   1.00
C380   C     0.32027   0.25704   0.76743   0.00000  Uiso   1.00
C381   C     0.15297   0.04613   0.78795   0.00000  Uiso   1.00
C382   C     0.15372   0.45356   0.70830   0.00000  Uiso   1.00
C383   C     0.15158   0.09213   0.78795   0.00000  Uiso   1.00
C384   C     0.16708   0.33607   0.74990   0.00000  Uiso   1.00
C385   C     0.15236   0.40754   0.70802   0.00000  Uiso   1.00
C386   C     0.16878   0.11605   0.75060   0.00000  Uiso   1.00
C387   C     0.16899   0.38398   0.74987   0.00000  Uiso   1.00
C388   C     0.18814   0.09404   0.71364   0.00000  Uiso   1.00
C389   C     0.18784   0.40640   0.79179   0.00000  Uiso   1.00
C390   C     0.19010   0.04809   0.71395   0.00000  Uiso   1.00
C391   C     0.18975   0.45239   0.79191   0.00000  Uiso   1.00
C392   C     0.17217   0.02411   0.75091   0.00000  Uiso   1.00
C393   C     0.17228   0.47599   0.75029   0.00000  Uiso   1.00
C394   C     0.13983   0.21662   0.54998   0.00000  Uiso   1.00
C395   C     0.20543   0.27336   0.95158   0.00000  Uiso   1.00
C396   C     0.13937   0.21805   0.59933   0.00000  Uiso   1.00
C397   C     0.20373   0.27371   0.90193   0.00000  Uiso   1.00
C398   C     0.19525   0.28104   0.60518   0.00000  Uiso   1.00
C399   C     0.13069   0.22526   0.89388   0.00000  Uiso   1.00
C400   C     0.19501   0.28176   0.55586   0.00000  Uiso   1.00
Cl401  Cl    0.23484   0.32019   0.63899   0.00000  Uiso   1.00
Cl402  Cl    0.08555   0.19072   0.85945   0.00000  Uiso   1.00
H403   H     0.13832   0.02775   0.81634   0.00000  Uiso   1.00
H404   H     0.23687   0.29143   0.97216   0.00000  Uiso   1.00
H405   H     0.11766   0.19305   0.61626   0.00000  Uiso   1.00
H406   H     0.23272   0.29250   0.88593   0.00000  Uiso   1.00
H407   H     0.21651   0.30812   0.54099   0.00000  Uiso   1.00
H408   H     0.09923   0.20692   0.95673   0.00000  Uiso   1.00
H409   H     0.00765   0.18741   0.69219   0.00000  Uiso   1.00
H410   H     0.32793   0.23538   0.66124   0.00000  Uiso   1.00
H411   H     0.32565   0.31352   0.80679   0.00000  Uiso   1.00
H412   H     0.00485   0.26601   0.83855   0.00000  Uiso   1.00
H413   H     0.13946   0.47163   0.67609   0.00000  Uiso   1.00
H414   H     0.13631   0.10889   0.81658   0.00000  Uiso   1.00
H415   H     0.13753   0.39045   0.67546   0.00000  Uiso   1.00
H416   H     0.20219   0.11231   0.68487   0.00000  Uiso   1.00
H417   H     0.20150   0.38843   0.82422   0.00000  Uiso   1.00
H418   H     0.20567   0.03126   0.68551   0.00000  Uiso   1.00
H419   H     0.20486   0.46954   0.82435   0.00000  Uiso   1.00
H420   H     0.11902   0.18956   0.53079   0.00000  Uiso   1.00
N421   N     0.16667   0.24999   0.62624   0.00000  Uiso   1.00
N422   N     0.16667   0.25001   0.87377   0.00000  Uiso   1.00
N423   N     0.32228   0.21811   0.69222   0.00000  Uiso   1.00
N424   N     0.01092   0.28273   0.80737   0.00000  Uiso   1.00
O425   O     0.16667   0.18453   0.78974   0.00000  Uiso   1.00
O426   O     0.16666   0.31546   0.71026   0.00000  Uiso   1.00
O427   O     0.16667   0.18453   0.71026   0.00000  Uiso   1.00
O428   O     0.16666   0.31547   0.78974   0.00000  Uiso   1.00
O429   O     0.09058   0.25000   0.78045   0.00000  Uiso   1.00
O430   O     0.24275   0.25000   0.71956   0.00000  Uiso   1.00
O431   O     0.09058   0.24999   0.70097   0.00000  Uiso   1.00
O432   O     0.24275   0.25000   0.79904   0.00000  Uiso   1.00
Zn433  Zn    0.16667   0.25000   0.80307   0.00000  Uiso   1.00
Zn434  Zn    0.16667   0.24999   0.69693   0.00000  Uiso   1.00
C435   C     0.50029   0.16393   0.75018   0.00000  Uiso   1.00
C436   C     0.46317   0.22555   0.94305   0.00000  Uiso   1.00
C437   C     0.50078   0.24921   0.52683   0.00000  Uiso   1.00
C438   C     0.50098   0.24943   0.97341   0.00000  Uiso   1.00
C439   C     0.40066   0.24974   0.73792   0.00000  Uiso   1.00
C440   C     0.59934   0.25042   0.76207   0.00000  Uiso   1.00
C441   C     0.34636   0.24338   0.73244   0.00000  Uiso   1.00
C442   C     0.65360   0.25704   0.76743   0.00000  Uiso   1.00
C443   C     0.48630   0.04613   0.78795   0.00000  Uiso   1.00
C444   C     0.48705   0.45356   0.70830   0.00000  Uiso   1.00
C445   C     0.48491   0.09213   0.78795   0.00000  Uiso   1.00
C446   C     0.50041   0.33607   0.74990   0.00000  Uiso   1.00
C447   C     0.48570   0.40754   0.70802   0.00000  Uiso   1.00
C448   C     0.50212   0.11605   0.75060   0.00000  Uiso   1.00
C449   C     0.50232   0.38398   0.74987   0.00000  Uiso   1.00
C450   C     0.52147   0.09404   0.71364   0.00000  Uiso   1.00
C451   C     0.52118   0.40640   0.79179   0.00000  Uiso   1.00
C452   C     0.52344   0.04809   0.71395   0.00000  Uiso   1.00
C453   C     0.52308   0.45239   0.79191   0.00000  Uiso   1.00
C454   C     0.50550   0.02411   0.75091   0.00000  Uiso   1.00
C455   C     0.50561   0.47599   0.75029   0.00000  Uiso   1.00
C456   C     0.47317   0.21662   0.54998   0.00000  Uiso   1.00
C457   C     0.53876   0.27336   0.95158   0.00000  Uiso   1.00
C458   C     0.47270   0.21805   0.59933   0.00000  Uiso   1.00
C459   C     0.53706   0.27371   0.90193   0.00000  Uiso   1.00
C460   C     0.52858   0.28104   0.60518   0.00000  Uiso   1.00
C461   C     0.46402   0.22526   0.89388   0.00000  Uiso   1.00
C462   C     0.52835   0.28176   0.55586   0.00000  Uiso   1.00
Cl463  Cl    0.56817   0.32019   0.63899   0.00000  Uiso   1.00
Cl464  Cl    0.41888   0.19072   0.85945   0.00000  Uiso   1.00
H465   H     0.47165   0.02775   0.81634   0.00000  Uiso   1.00
H466   H     0.57020   0.29143   0.97216   0.00000  Uiso   1.00
H467   H     0.45100   0.19305   0.61626   0.00000  Uiso   1.00
H468   H     0.56605   0.29250   0.88593   0.00000  Uiso   1.00
H469   H     0.54985   0.30812   0.54099   0.00000  Uiso   1.00
H470   H     0.43257   0.20692   0.95673   0.00000  Uiso   1.00
H471   H     0.34098   0.18741   0.69219   0.00000  Uiso   1.00
H472   H     0.66126   0.23538   0.66124   0.00000  Uiso   1.00
H473   H     0.65898   0.31352   0.80679   0.00000  Uiso   1.00
H474   H     0.33818   0.26601   0.83855   0.00000  Uiso   1.00
H475   H     0.47280   0.47163   0.67609   0.00000  Uiso   1.00
H476   H     0.46965   0.10889   0.81658   0.00000  Uiso   1.00
H477   H     0.47086   0.39045   0.67546   0.00000  Uiso   1.00
H478   H     0.53552   0.11231   0.68487   0.00000  Uiso   1.00
H479   H     0.53483   0.38843   0.82422   0.00000  Uiso   1.00
H480   H     0.53900   0.03126   0.68551   0.00000  Uiso   1.00
H481   H     0.53819   0.46954   0.82435   0.00000  Uiso   1.00
H482   H     0.45235   0.18956   0.53079   0.00000  Uiso   1.00
N483   N     0.50000   0.24999   0.62624   0.00000  Uiso   1.00
N484   N     0.50000   0.25001   0.87377   0.00000  Uiso   1.00
N485   N     0.65561   0.21811   0.69222   0.00000  Uiso   1.00
N486   N     0.34425   0.28273   0.80737   0.00000  Uiso   1.00
O487   O     0.50000   0.18453   0.78974   0.00000  Uiso   1.00
O488   O     0.50000   0.31546   0.71026   0.00000  Uiso   1.00
O489   O     0.50000   0.18453   0.71026   0.00000  Uiso   1.00
O490   O     0.50000   0.31547   0.78974   0.00000  Uiso   1.00
O491   O     0.42392   0.25000   0.78045   0.00000  Uiso   1.00
O492   O     0.57608   0.25000   0.71956   0.00000  Uiso   1.00
O493   O     0.42392   0.24999   0.70097   0.00000  Uiso   1.00
O494   O     0.57608   0.25000   0.79904   0.00000  Uiso   1.00
Zn495  Zn    0.50000   0.25000   0.80307   0.00000  Uiso   1.00
Zn496  Zn    0.50000   0.24999   0.69693   0.00000  Uiso   1.00
C497   C     0.83363   0.16393   0.75018   0.00000  Uiso   1.00
C498   C     0.79650   0.22555   0.94305   0.00000  Uiso   1.00
C499   C     0.83411   0.24921   0.52683   0.00000  Uiso   1.00
C500   C     0.83431   0.24943   0.97341   0.00000  Uiso   1.00
C501   C     0.73399   0.24974   0.73792   0.00000  Uiso   1.00
C502   C     0.93267   0.25042   0.76207   0.00000  Uiso   1.00
C503   C     0.67970   0.24338   0.73244   0.00000  Uiso   1.00
C504   C     0.98694   0.25704   0.76743   0.00000  Uiso   1.00
C505   C     0.81964   0.04613   0.78795   0.00000  Uiso   1.00
C506   C     0.82038   0.45356   0.70830   0.00000  Uiso   1.00
C507   C     0.81824   0.09213   0.78795   0.00000  Uiso   1.00
C508   C     0.83374   0.33607   0.74990   0.00000  Uiso   1.00
C509   C     0.81903   0.40754   0.70802   0.00000  Uiso   1.00
C510   C     0.83545   0.11605   0.75060   0.00000  Uiso   1.00
C511   C     0.83566   0.38398   0.74987   0.00000  Uiso   1.00
C512   C     0.85480   0.09404   0.71364   0.00000  Uiso   1.00
C513   C     0.85451   0.40640   0.79179   0.00000  Uiso   1.00
C514   C     0.85677   0.04809   0.71395   0.00000  Uiso   1.00
C515   C     0.85642   0.45239   0.79191   0.00000  Uiso   1.00
C516   C     0.83883   0.02411   0.75091   0.00000  Uiso   1.00
C517   C     0.83895   0.47599   0.75029   0.00000  Uiso   1.00
C518   C     0.80650   0.21662   0.54998   0.00000  Uiso   1.00
C519   C     0.87209   0.27336   0.95158   0.00000  Uiso   1.00
C520   C     0.80604   0.21805   0.59933   0.00000  Uiso   1.00
C521   C     0.87039   0.27371   0.90193   0.00000  Uiso   1.00
C522   C     0.86192   0.28104   0.60518   0.00000  Uiso   1.00
C523   C     0.79735   0.22526   0.89388   0.00000  Uiso   1.00
C524   C     0.86168   0.28176   0.55586   0.00000  Uiso   1.00
Cl525  Cl    0.90151   0.32019   0.63899   0.00000  Uiso   1.00
Cl526  Cl    0.75221   0.19072   0.85945   0.00000  Uiso   1.00
H527   H     0.80498   0.02775   0.81634   0.00000  Uiso   1.00
H528   H     0.90353   0.29143   0.97216   0.00000  Uiso   1.00
H529   H     0.78433   0.19305   0.61626   0.00000  Uiso   1.00
H530   H     0.89938   0.29250   0.88593   0.00000  Uiso   1.00
H531   H     0.88318   0.30812   0.54099   0.00000  Uiso   1.00
H532   H     0.76590   0.20692   0.95673   0.00000  Uiso   1.00
H533   H     0.67431   0.18741   0.69219   0.00000  Uiso   1.00
H534   H     0.99460   0.23538   0.66124   0.00000  Uiso   1.00
H535   H     0.99232   0.31352   0.80679   0.00000  Uiso   1.00
H536   H     0.67152   0.26601   0.83855   0.00000  Uiso   1.00
H537   H     0.80613   0.47163   0.67609   0.00000  Uiso   1.00
H538   H     0.80298   0.10889   0.81658   0.00000  Uiso   1.00
H539   H     0.80419   0.39045   0.67546   0.00000  Uiso   1.00
H540   H     0.86886   0.11231   0.68487   0.00000  Uiso   1.00
H541   H     0.86817   0.38843   0.82422   0.00000  Uiso   1.00
H542   H     0.87234   0.03126   0.68551   0.00000  Uiso   1.00
H543   H     0.87153   0.46954   0.82435   0.00000  Uiso   1.00
H544   H     0.78569   0.18956   0.53079   0.00000  Uiso   1.00
N545   N     0.83333   0.24999   0.62624   0.00000  Uiso   1.00
N546   N     0.83333   0.25001   0.87377   0.00000  Uiso   1.00
N547   N     0.98894   0.21811   0.69222   0.00000  Uiso   1.00
N548   N     0.67758   0.28273   0.80737   0.00000  Uiso   1.00
O549   O     0.83334   0.18453   0.78974   0.00000  Uiso   1.00
O550   O     0.83333   0.31546   0.71026   0.00000  Uiso   1.00
O551   O     0.83334   0.18453   0.71026   0.00000  Uiso   1.00
O552   O     0.83333   0.31547   0.78974   0.00000  Uiso   1.00
O553   O     0.75725   0.25000   0.78045   0.00000  Uiso   1.00
O554   O     0.90942   0.25000   0.71956   0.00000  Uiso   1.00
O555   O     0.75725   0.24999   0.70097   0.00000  Uiso   1.00
O556   O     0.90942   0.25000   0.79904   0.00000  Uiso   1.00
Zn557  Zn    0.83333   0.25000   0.80307   0.00000  Uiso   1.00
Zn558  Zn    0.83333   0.24999   0.69693   0.00000  Uiso   1.00
C559   C     0.16696   0.66393   0.75018   0.00000  Uiso   1.00
C560   C     0.12984   0.72555   0.94305   0.00000  Uiso   1.00
C561   C     0.16744   0.74921   0.52683   0.00000  Uiso   1.00
C562   C     0.16764   0.74943   0.97341   0.00000  Uiso   1.00
C563   C     0.06733   0.74974   0.73792   0.00000  Uiso   1.00
C564   C     0.26600   0.75042   0.76207   0.00000  Uiso   1.00
C565   C     0.01303   0.74338   0.73244   0.00000  Uiso   1.00
C566   C     0.32027   0.75704   0.76743   0.00000  Uiso   1.00
C567   C     0.15297   0.54613   0.78795   0.00000  Uiso   1.00
C568   C     0.15372   0.95356   0.70830   0.00000  Uiso   1.00
C569   C     0.15158   0.59213   0.78795   0.00000  Uiso   1.00
C570   C     0.16708   0.83607   0.74990   0.00000  Uiso   1.00
C571   C     0.15236   0.90754   0.70802   0.00000  Uiso   1.00
C572   C     0.16878   0.61605   0.75060   0.00000  Uiso   1.00
C573   C     0.16899   0.88398   0.74987   0.00000  Uiso   1.00
C574   C     0.18814   0.59404   0.71364   0.00000  Uiso   1.00
C575   C     0.18784   0.90640   0.79179   0.00000  Uiso   1.00
C576   C     0.19010   0.54809   0.71395   0.00000  Uiso   1.00
C577   C     0.18975   0.95239   0.79191   0.00000  Uiso   1.00
C578   C     0.17217   0.52411   0.75091   0.00000  Uiso   1.00
C579   C     0.17228   0.97599   0.75029   0.00000  Uiso   1.00
C580   C     0.13983   0.71662   0.54998   0.00000  Uiso   1.00
C581   C     0.20543   0.77336   0.95158   0.00000  Uiso   1.00
C582   C     0.13937   0.71805   0.59933   0.00000  Uiso   1.00
C583   C     0.20373   0.77371   0.90193   0.00000  Uiso   1.00
C584   C     0.19525   0.78104   0.60518   0.00000  Uiso   1.00
C585   C     0.13069   0.72526   0.89388   0.00000  Uiso   1.00
C586   C     0.19501   0.78176   0.55586   0.00000  Uiso   1.00
Cl587  Cl    0.23484   0.82019   0.63899   0.00000  Uiso   1.00
Cl588  Cl    0.08555   0.69072   0.85945   0.00000  Uiso   1.00
H589   H     0.13832   0.52775   0.81634   0.00000  Uiso   1.00
H590   H     0.23687   0.79143   0.97216   0.00000  Uiso   1.00
H591   H     0.11766   0.69305   0.61626   0.00000  Uiso   1.00
H592   H     0.23272   0.79250   0.88593   0.00000  Uiso   1.00
H593   H     0.21651   0.80812   0.54099   0.00000  Uiso   1.00
H594   H     0.09923   0.70692   0.95673   0.00000  Uiso   1.00
H595   H     0.00765   0.68741   0.69219   0.00000  Uiso   1.00
H596   H     0.32793   0.73538   0.66124   0.00000  Uiso   1.00
H597   H     0.32565   0.81352   0.80679   0.00000  Uiso   1.00
H598   H     0.00485   0.76601   0.83855   0.00000  Uiso   1.00
H599   H     0.13946   0.97163   0.67609   0.00000  Uiso   1.00
H600   H     0.13631   0.60889   0.81658   0.00000  Uiso   1.00
H601   H     0.13753   0.89045   0.67546   0.00000  Uiso   1.00
H602   H     0.20219   0.61231   0.68487   0.00000  Uiso   1.00
H603   H     0.20150   0.88843   0.82422   0.00000  Uiso   1.00
H604   H     0.20567   0.53126   0.68551   0.00000  Uiso   1.00
H605   H     0.20486   0.96954   0.82435   0.00000  Uiso   1.00
H606   H     0.11902   0.68956   0.53079   0.00000  Uiso   1.00
N607   N     0.16667   0.74999   0.62624   0.00000  Uiso   1.00
N608   N     0.16667   0.75001   0.87377   0.00000  Uiso   1.00
N609   N     0.32228   0.71811   0.69222   0.00000  Uiso   1.00
N610   N     0.01092   0.78273   0.80737   0.00000  Uiso   1.00
O611   O     0.16667   0.68453   0.78974   0.00000  Uiso   1.00
O612   O     0.16666   0.81546   0.71026   0.00000  Uiso   1.00
O613   O     0.16667   0.68453   0.71026   0.00000  Uiso   1.00
O614   O     0.16666   0.81547   0.78974   0.00000  Uiso   1.00
O615   O     0.09058   0.75000   0.78045   0.00000  Uiso   1.00
O616   O     0.24275   0.75000   0.71956   0.00000  Uiso   1.00
O617   O     0.09058   0.74999   0.70097   0.00000  Uiso   1.00
O618   O     0.24275   0.75000   0.79904   0.00000  Uiso   1.00
Zn619  Zn    0.16667   0.75000   0.80307   0.00000  Uiso   1.00
Zn620  Zn    0.16667   0.74999   0.69693   0.00000  Uiso   1.00
C621   C     0.50029   0.66393   0.75018   0.00000  Uiso   1.00
C622   C     0.46317   0.72555   0.94305   0.00000  Uiso   1.00
C623   C     0.50078   0.74921   0.52683   0.00000  Uiso   1.00
C624   C     0.50098   0.74943   0.97341   0.00000  Uiso   1.00
C625   C     0.40066   0.74974   0.73792   0.00000  Uiso   1.00
C626   C     0.59934   0.75042   0.76207   0.00000  Uiso   1.00
C627   C     0.34636   0.74338   0.73244   0.00000  Uiso   1.00
C628   C     0.65360   0.75704   0.76743   0.00000  Uiso   1.00
C629   C     0.48630   0.54613   0.78795   0.00000  Uiso   1.00
C630   C     0.48705   0.95356   0.70830   0.00000  Uiso   1.00
C631   C     0.48491   0.59213   0.78795   0.00000  Uiso   1.00
C632   C     0.50041   0.83607   0.74990   0.00000  Uiso   1.00
C633   C     0.48570   0.90754   0.70802   0.00000  Uiso   1.00
C634   C     0.50212   0.61605   0.75060   0.00000  Uiso   1.00
C635   C     0.50232   0.88398   0.74987   0.00000  Uiso   1.00
C636   C     0.52147   0.59404   0.71364   0.00000  Uiso   1.00
C637   C     0.52118   0.90640   0.79179   0.00000  Uiso   1.00
C638   C     0.52344   0.54809   0.71395   0.00000  Uiso   1.00
C639   C     0.52308   0.95239   0.79191   0.00000  Uiso   1.00
C640   C     0.50550   0.52411   0.75091   0.00000  Uiso   1.00
C641   C     0.50561   0.97599   0.75029   0.00000  Uiso   1.00
C642   C     0.47317   0.71662   0.54998   0.00000  Uiso   1.00
C643   C     0.53876   0.77336   0.95158   0.00000  Uiso   1.00
C644   C     0.47270   0.71805   0.59933   0.00000  Uiso   1.00
C645   C     0.53706   0.77371   0.90193   0.00000  Uiso   1.00
C646   C     0.52858   0.78104   0.60518   0.00000  Uiso   1.00
C647   C     0.46402   0.72526   0.89388   0.00000  Uiso   1.00
C648   C     0.52835   0.78176   0.55586   0.00000  Uiso   1.00
Cl649  Cl    0.56817   0.82019   0.63899   0.00000  Uiso   1.00
Cl650  Cl    0.41888   0.69072   0.85945   0.00000  Uiso   1.00
H651   H     0.47165   0.52775   0.81634   0.00000  Uiso   1.00
H652   H     0.57020   0.79143   0.97216   0.00000  Uiso   1.00
H653   H     0.45100   0.69305   0.61626   0.00000  Uiso   1.00
H654   H     0.56605   0.79250   0.88593   0.00000  Uiso   1.00
H655   H     0.54985   0.80812   0.54099   0.00000  Uiso   1.00
H656   H     0.43257   0.70692   0.95673   0.00000  Uiso   1.00
H657   H     0.34098   0.68741   0.69219   0.00000  Uiso   1.00
H658   H     0.66126   0.73538   0.66124   0.00000  Uiso   1.00
H659   H     0.65898   0.81352   0.80679   0.00000  Uiso   1.00
H660   H     0.33818   0.76601   0.83855   0.00000  Uiso   1.00
H661   H     0.47280   0.97163   0.67609   0.00000  Uiso   1.00
H662   H     0.46965   0.60889   0.81658   0.00000  Uiso   1.00
H663   H     0.47086   0.89045   0.67546   0.00000  Uiso   1.00
H664   H     0.53552   0.61231   0.68487   0.00000  Uiso   1.00
H665   H     0.53483   0.88843   0.82422   0.00000  Uiso   1.00
H666   H     0.53900   0.53126   0.68551   0.00000  Uiso   1.00
H667   H     0.53819   0.96954   0.82435   0.00000  Uiso   1.00
H668   H     0.45235   0.68956   0.53079   0.00000  Uiso   1.00
N669   N     0.50000   0.74999   0.62624   0.00000  Uiso   1.00
N670   N     0.50000   0.75001   0.87377   0.00000  Uiso   1.00
N671   N     0.65561   0.71811   0.69222   0.00000  Uiso   1.00
N672   N     0.34425   0.78273   0.80737   0.00000  Uiso   1.00
O673   O     0.50000   0.68453   0.78974   0.00000  Uiso   1.00
O674   O     0.50000   0.81546   0.71026   0.00000  Uiso   1.00
O675   O     0.50000   0.68453   0.71026   0.00000  Uiso   1.00
O676   O     0.50000   0.81547   0.78974   0.00000  Uiso   1.00
O677   O     0.42392   0.75000   0.78045   0.00000  Uiso   1.00
O678   O     0.57608   0.75000   0.71956   0.00000  Uiso   1.00
O679   O     0.42392   0.74999   0.70097   0.00000  Uiso   1.00
O680   O     0.57608   0.75000   0.79904   0.00000  Uiso   1.00
Zn681  Zn    0.50000   0.75000   0.80307   0.00000  Uiso   1.00
Zn682  Zn    0.50000   0.74999   0.69693   0.00000  Uiso   1.00
C683   C     0.83363   0.66393   0.75018   0.00000  Uiso   1.00
C684   C     0.79650   0.72555   0.94305   0.00000  Uiso   1.00
C685   C     0.83411   0.74921   0.52683   0.00000  Uiso   1.00
C686   C     0.83431   0.74943   0.97341   0.00000  Uiso   1.00
C687   C     0.73399   0.74974   0.73792   0.00000  Uiso   1.00
C688   C     0.93267   0.75042   0.76207   0.00000  Uiso   1.00
C689   C     0.67970   0.74338   0.73244   0.00000  Uiso   1.00
C690   C     0.98694   0.75704   0.76743   0.00000  Uiso   1.00
C691   C     0.81964   0.54613   0.78795   0.00000  Uiso   1.00
C692   C     0.82038   0.95356   0.70830   0.00000  Uiso   1.00
C693   C     0.81824   0.59213   0.78795   0.00000  Uiso   1.00
C694   C     0.83374   0.83607   0.74990   0.00000  Uiso   1.00
C695   C     0.81903   0.90754   0.70802   0.00000  Uiso   1.00
C696   C     0.83545   0.61605   0.75060   0.00000  Uiso   1.00
C697   C     0.83566   0.88398   0.74987   0.00000  Uiso   1.00
C698   C     0.85480   0.59404   0.71364   0.00000  Uiso   1.00
C699   C     0.85451   0.90640   0.79179   0.00000  Uiso   1.00
C700   C     0.85677   0.54809   0.71395   0.00000  Uiso   1.00
C701   C     0.85642   0.95239   0.79191   0.00000  Uiso   1.00
C702   C     0.83883   0.52411   0.75091   0.00000  Uiso   1.00
C703   C     0.83895   0.97599   0.75029   0.00000  Uiso   1.00
C704   C     0.80650   0.71662   0.54998   0.00000  Uiso   1.00
C705   C     0.87209   0.77336   0.95158   0.00000  Uiso   1.00
C706   C     0.80604   0.71805   0.59933   0.00000  Uiso   1.00
C707   C     0.87039   0.77371   0.90193   0.00000  Uiso   1.00
C708   C     0.86192   0.78104   0.60518   0.00000  Uiso   1.00
C709   C     0.79735   0.72526   0.89388   0.00000  Uiso   1.00
C710   C     0.86168   0.78176   0.55586   0.00000  Uiso   1.00
Cl711  Cl    0.90151   0.82019   0.63899   0.00000  Uiso   1.00
Cl712  Cl    0.75221   0.69072   0.85945   0.00000  Uiso   1.00
H713   H     0.80498   0.52775   0.81634   0.00000  Uiso   1.00
H714   H     0.90353   0.79143   0.97216   0.00000  Uiso   1.00
H715   H     0.78433   0.69305   0.61626   0.00000  Uiso   1.00
H716   H     0.89938   0.79250   0.88593   0.00000  Uiso   1.00
H717   H     0.88318   0.80812   0.54099   0.00000  Uiso   1.00
H718   H     0.76590   0.70692   0.95673   0.00000  Uiso   1.00
H719   H     0.67431   0.68741   0.69219   0.00000  Uiso   1.00
H720   H     0.99460   0.73538   0.66124   0.00000  Uiso   1.00
H721   H     0.99232   0.81352   0.80679   0.00000  Uiso   1.00
H722   H     0.67152   0.76601   0.83855   0.00000  Uiso   1.00
H723   H     0.80613   0.97163   0.67609   0.00000  Uiso   1.00
H724   H     0.80298   0.60889   0.81658   0.00000  Uiso   1.00
H725   H     0.80419   0.89045   0.67546   0.00000  Uiso   1.00
H726   H     0.86886   0.61231   0.68487   0.00000  Uiso   1.00
H727   H     0.86817   0.88843   0.82422   0.00000  Uiso   1.00
H728   H     0.87234   0.53126   0.68551   0.00000  Uiso   1.00
H729   H     0.87153   0.96954   0.82435   0.00000  Uiso   1.00
H730   H     0.78569   0.68956   0.53079   0.00000  Uiso   1.00
N731   N     0.83333   0.74999   0.62624   0.00000  Uiso   1.00
N732   N     0.83333   0.75001   0.87377   0.00000  Uiso   1.00
N733   N     0.98894   0.71811   0.69222   0.00000  Uiso   1.00
N734   N     0.67758   0.78273   0.80737   0.00000  Uiso   1.00
O735   O     0.83334   0.68453   0.78974   0.00000  Uiso   1.00
O736   O     0.83333   0.81546   0.71026   0.00000  Uiso   1.00
O737   O     0.83334   0.68453   0.71026   0.00000  Uiso   1.00
O738   O     0.83333   0.81547   0.78974   0.00000  Uiso   1.00
O739   O     0.75725   0.75000   0.78045   0.00000  Uiso   1.00
O740   O     0.90942   0.75000   0.71956   0.00000  Uiso   1.00
O741   O     0.75725   0.74999   0.70097   0.00000  Uiso   1.00
O742   O     0.90942   0.75000   0.79904   0.00000  Uiso   1.00
Zn743  Zn    0.83333   0.75000   0.80307   0.00000  Uiso   1.00
Zn744  Zn    0.83333   0.74999   0.69693   0.00000  Uiso   1.00
loop_
_geom_bond_atom_site_label_1
_geom_bond_atom_site_label_2
_geom_bond_distance
_geom_bond_site_symmetry_2
_ccdc_geom_bond_type
C1     O55     1.288   .     A
C1     O53     1.290   .     A
C1     C14     1.438   .     S
C2     C4      1.408   .     A
C2     C27     1.403   .     A
C2     H36     1.079   .     S
C3     C28     1.408   .     A
C3     C22     1.416   .     A
C3     C376    1.521   1_554 S
C4     C23     1.416   .     A
C4     C375    1.521   .     S
C5     C7      1.406   .     S
C5     O57     1.276   .     A
C5     O59     1.282   .     A
C6     O58     1.275   .     A
C6     O60     1.283   .     A
C6     C8      1.406   .     S
C7     C132    1.348   1_455 S
C7     N175    1.443   1_455 S
C8     C69     1.348   .     S
C8     N114    1.443   .     S
C9     C20     1.400   .     A
C9     C11     1.381   .     A
C9     H31     1.083   .     S
C10    C21     1.400   .     A
C10    H41     1.083   .     S
C10    C13     1.381   .     A
C11    H42     1.083   .     S
C11    C14     1.398   .     A
C12    C15     1.438   .     S
C12    O56     1.288   .     A
C12    O54     1.289   .     A
C13    C15     1.399   .     A
C13    H43     1.084   .     S
C14    C16     1.400   .     A
C15    C17     1.400   .     A
C16    C18     1.380   .     A
C16    H44     1.084   .     S
C17    C19     1.380   .     A
C17    H45     1.084   .     S
C18    C20     1.398   .     A
C18    H46     1.083   .     S
C19    H47     1.083   .     S
C19    C21     1.398   .     A
C20    C207    1.444   1_545 S
C21    C206    1.444   .     S
C22    C24     1.407   .     A
C22    H48     1.079   .     S
C23    H32     1.079   .     S
C23    C25     1.408   .     A
C24    H33     1.082   .     S
C24    N49     1.361   .     A
C25    H34     1.082   .     S
C25    N50     1.361   .     A
C26    C28     1.403   .     A
C26    Cl29    1.754   .     S
C26    N49     1.369   .     A
C27    N50     1.369   .     A
C27    Cl30    1.754   .     S
C28    H35     1.079   .     S
H37    N175    1.046   1_455 S
H38    N51     1.046   .     S
H39    N114    1.046   .     S
H40    N52     1.046   .     S
N49    Zn62    2.012   .     S
N50    Zn61    2.012   .     S
N51    C69     1.443   .     S
N51    H99     1.046   .     S
N52    H163    1.046   1_455 S
N52    C132    1.443   1_455 S
O53    Zn61    2.003   .     S
O54    Zn62    2.003   .     S
O55    Zn62    1.997   .     S
O56    Zn61    1.997   .     S
O57    Zn61    1.989   .     S
O58    Zn62    1.989   .     S
O59    Zn62    1.992   .     S
O60    Zn61    1.992   .     S
C63    O117    1.288   .     A
C63    O115    1.290   .     A
C63    C76     1.438   .     S
C64    C66     1.408   .     A
C64    C89     1.403   .     A
C64    H98     1.079   .     S
C65    C90     1.408   .     A
C65    C84     1.416   .     A
C65    C438    1.521   1_554 S
C66    C85     1.416   .     A
C66    C437    1.521   .     S
C67    C69     1.406   .     S
C67    O119    1.276   .     A
C67    O121    1.282   .     A
C68    O120    1.275   .     A
C68    O122    1.283   .     A
C68    C70     1.406   .     S
C70    C131    1.348   .     S
C70    N176    1.443   .     S
C71    C82     1.400   .     A
C71    C73     1.381   .     A
C71    H93     1.083   .     S
C72    C83     1.400   .     A
C72    H103    1.083   .     S
C72    C75     1.381   .     A
C73    H104    1.083   .     S
C73    C76     1.398   .     A
C74    C77     1.438   .     S
C74    O118    1.288   .     A
C74    O116    1.289   .     A
C75    C77     1.399   .     A
C75    H105    1.084   .     S
C76    C78     1.400   .     A
C77    C79     1.400   .     A
C78    C80     1.380   .     A
C78    H106    1.084   .     S
C79    C81     1.380   .     A
C79    H107    1.084   .     S
C80    C82     1.398   .     A
C80    H108    1.083   .     S
C81    H109    1.083   .     S
C81    C83     1.398   .     A
C82    C269    1.444   1_545 S
C83    C268    1.444   .     S
C84    C86     1.407   .     A
C84    H110    1.079   .     S
C85    H94     1.079   .     S
C85    C87     1.408   .     A
C86    H95     1.082   .     S
C86    N111    1.361   .     A
C87    H96     1.082   .     S
C87    N112    1.361   .     A
C88    C90     1.403   .     A
C88    Cl91    1.754   .     S
C88    N111    1.369   .     A
C89    N112    1.369   .     A
C89    Cl92    1.754   .     S
C90    H97     1.079   .     S
H100   N113    1.046   .     S
H101   N176    1.046   .     S
H102   N114    1.046   .     S
N111   Zn124   2.012   .     S
N112   Zn123   2.012   .     S
N113   C131    1.443   .     S
N113   H161    1.046   .     S
O115   Zn123   2.003   .     S
O116   Zn124   2.003   .     S
O117   Zn124   1.997   .     S
O118   Zn123   1.997   .     S
O119   Zn123   1.989   .     S
O120   Zn124   1.989   .     S
O121   Zn124   1.992   .     S
O122   Zn123   1.992   .     S
C125   O179    1.288   .     A
C125   O177    1.290   .     A
C125   C138    1.438   .     S
C126   C128    1.408   .     A
C126   C151    1.403   .     A
C126   H160    1.079   .     S
C127   C152    1.408   .     A
C127   C146    1.416   .     A
C127   C500    1.521   1_554 S
C128   C147    1.416   .     A
C128   C499    1.521   .     S
C129   C131    1.406   .     S
C129   O181    1.276   .     A
C129   O183    1.282   .     A
C130   O182    1.275   .     A
C130   O184    1.283   .     A
C130   C132    1.406   .     S
C132   C7      1.348   1_655 S
C132   N52     1.443   1_655 S
C133   C144    1.400   .     A
C133   C135    1.381   .     A
C133   H155    1.083   .     S
C134   C145    1.400   .     A
C134   H165    1.083   .     S
C134   C137    1.381   .     A
C135   H166    1.083   .     S
C135   C138    1.398   .     A
C136   C139    1.438   .     S
C136   O180    1.288   .     A
C136   O178    1.289   .     A
C137   C139    1.399   .     A
C137   H167    1.084   .     S
C138   C140    1.400   .     A
C139   C141    1.400   .     A
C140   C142    1.380   .     A
C140   H168    1.084   .     S
C141   C143    1.380   .     A
C141   H169    1.084   .     S
C142   C144    1.398   .     A
C142   H170    1.083   .     S
C143   H171    1.083   .     S
C143   C145    1.398   .     A
C144   C331    1.444   1_545 S
C145   C330    1.444   .     S
C146   C148    1.407   .     A
C146   H172    1.079   .     S
C147   H156    1.079   .     S
C147   C149    1.408   .     A
C148   H157    1.082   .     S
C148   N173    1.361   .     A
C149   H158    1.082   .     S
C149   N174    1.361   .     A
C150   C152    1.403   .     A
C150   Cl153   1.754   .     S
C150   N173    1.369   .     A
C151   N174    1.369   .     A
C151   Cl154   1.754   .     S
C152   H159    1.079   .     S
H162   N175    1.046   .     S
H163   N52     1.046   1_655 S
H164   N176    1.046   .     S
N173   Zn186   2.012   .     S
N174   Zn185   2.012   .     S
N175   C7      1.443   1_655 S
N175   H37     1.046   1_655 S
O177   Zn185   2.003   .     S
O178   Zn186   2.003   .     S
O179   Zn186   1.997   .     S
O180   Zn185   1.997   .     S
O181   Zn185   1.989   .     S
O182   Zn186   1.989   .     S
O183   Zn186   1.992   .     S
O184   Zn185   1.992   .     S
C187   O241    1.288   .     A
C187   O239    1.290   .     A
C187   C200    1.438   .     S
C188   C190    1.408   .     A
C188   C213    1.403   .     A
C188   H222    1.079   .     S
C189   C214    1.408   .     A
C189   C208    1.416   .     A
C189   C562    1.521   1_554 S
C190   C209    1.416   .     A
C190   C561    1.521   .     S
C191   C193    1.406   .     S
C191   O243    1.276   .     A
C191   O245    1.282   .     A
C192   O244    1.275   .     A
C192   O246    1.283   .     A
C192   C194    1.406   .     S
C193   C318    1.348   1_455 S
C193   N361    1.443   1_455 S
C194   C255    1.348   .     S
C194   N300    1.443   .     S
C195   C206    1.400   .     A
C195   C197    1.381   .     A
C195   H217    1.083   .     S
C196   C207    1.400   .     A
C196   H227    1.083   .     S
C196   C199    1.381   .     A
C197   H228    1.083   .     S
C197   C200    1.398   .     A
C198   C201    1.438   .     S
C198   O242    1.288   .     A
C198   O240    1.289   .     A
C199   C201    1.399   .     A
C199   H229    1.084   .     S
C200   C202    1.400   .     A
C201   C203    1.400   .     A
C202   C204    1.380   .     A
C202   H230    1.084   .     S
C203   C205    1.380   .     A
C203   H231    1.084   .     S
C204   C206    1.398   .     A
C204   H232    1.083   .     S
C205   H233    1.083   .     S
C205   C207    1.398   .     A
C207   C20     1.444   1_565 S
C208   C210    1.407   .     A
C208   H234    1.079   .     S
C209   H218    1.079   .     S
C209   C211    1.408   .     A
C210   H219    1.082   .     S
C210   N235    1.361   .     A
C211   H220    1.082   .     S
C211   N236    1.361   .     A
C212   C214    1.403   .     A
C212   Cl215   1.754   .     S
C212   N235    1.369   .     A
C213   N236    1.369   .     A
C213   Cl216   1.754   .     S
C214   H221    1.079   .     S
H223   N361    1.046   1_455 S
H224   N237    1.046   .     S
H225   N300    1.046   .     S
H226   N238    1.046   .     S
N235   Zn248   2.012   .     S
N236   Zn247   2.012   .     S
N237   C255    1.443   .     S
N237   H285    1.046   .     S
N238   H349    1.046   1_455 S
N238   C318    1.443   1_455 S
O239   Zn247   2.003   .     S
O240   Zn248   2.003   .     S
O241   Zn248   1.997   .     S
O242   Zn247   1.997   .     S
O243   Zn247   1.989   .     S
O244   Zn248   1.989   .     S
O245   Zn248   1.992   .     S
O246   Zn247   1.992   .     S
C249   O303    1.288   .     A
C249   O301    1.290   .     A
C249   C262    1.438   .     S
C250   C252    1.408   .     A
C250   C275    1.403   .     A
C250   H284    1.079   .     S
C251   C276    1.408   .     A
C251   C270    1.416   .     A
C251   C624    1.521   1_554 S
C252   C271    1.416   .     A
C252   C623    1.521   .     S
C253   C255    1.406   .     S
C253   O305    1.276   .     A
C253   O307    1.282   .     A
C254   O306    1.275   .     A
C254   O308    1.283   .     A
C254   C256    1.406   .     S
C256   C317    1.348   .     S
C256   N362    1.443   .     S
C257   C268    1.400   .     A
C257   C259    1.381   .     A
C257   H279    1.083   .     S
C258   C269    1.400   .     A
C258   H289    1.083   .     S
C258   C261    1.381   .     A
C259   H290    1.083   .     S
C259   C262    1.398   .     A
C260   C263    1.438   .     S
C260   O304    1.288   .     A
C260   O302    1.289   .     A
C261   C263    1.399   .     A
C261   H291    1.084   .     S
C262   C264    1.400   .     A
C263   C265    1.400   .     A
C264   C266    1.380   .     A
C264   H292    1.084   .     S
C265   C267    1.380   .     A
C265   H293    1.084   .     S
C266   C268    1.398   .     A
C266   H294    1.083   .     S
C267   H295    1.083   .     S
C267   C269    1.398   .     A
C269   C82     1.444   1_565 S
C270   C272    1.407   .     A
C270   H296    1.079   .     S
C271   H280    1.079   .     S
C271   C273    1.408   .     A
C272   H281    1.082   .     S
C272   N297    1.361   .     A
C273   H282    1.082   .     S
C273   N298    1.361   .     A
C274   C276    1.403   .     A
C274   Cl277   1.754   .     S
C274   N297    1.369   .     A
C275   N298    1.369   .     A
C275   Cl278   1.754   .     S
C276   H283    1.079   .     S
H286   N299    1.046   .     S
H287   N362    1.046   .     S
H288   N300    1.046   .     S
N297   Zn310   2.012   .     S
N298   Zn309   2.012   .     S
N299   C317    1.443   .     S
N299   H347    1.046   .     S
O301   Zn309   2.003   .     S
O302   Zn310   2.003   .     S
O303   Zn310   1.997   .     S
O304   Zn309   1.997   .     S
O305   Zn309   1.989   .     S
O306   Zn310   1.989   .     S
O307   Zn310   1.992   .     S
O308   Zn309   1.992   .     S
C311   O365    1.288   .     A
C311   O363    1.290   .     A
C311   C324    1.438   .     S
C312   C314    1.408   .     A
C312   C337    1.403   .     A
C312   H346    1.079   .     S
C313   C338    1.408   .     A
C313   C332    1.416   .     A
C313   C686    1.521   1_554 S
C314   C333    1.416   .     A
C314   C685    1.521   .     S
C315   C317    1.406   .     S
C315   O367    1.276   .     A
C315   O369    1.282   .     A
C316   O368    1.275   .     A
C316   O370    1.283   .     A
C316   C318    1.406   .     S
C318   C193    1.348   1_655 S
C318   N238    1.443   1_655 S
C319   C330    1.400   .     A
C319   C321    1.381   .     A
C319   H341    1.083   .     S
C320   C331    1.400   .     A
C320   H351    1.083   .     S
C320   C323    1.381   .     A
C321   H352    1.083   .     S
C321   C324    1.398   .     A
C322   C325    1.438   .     S
C322   O366    1.288   .     A
C322   O364    1.289   .     A
C323   C325    1.399   .     A
C323   H353    1.084   .     S
C324   C326    1.400   .     A
C325   C327    1.400   .     A
C326   C328    1.380   .     A
C326   H354    1.084   .     S
C327   C329    1.380   .     A
C327   H355    1.084   .     S
C328   C330    1.398   .     A
C328   H356    1.083   .     S
C329   H357    1.083   .     S
C329   C331    1.398   .     A
C331   C144    1.444   1_565 S
C332   C334    1.407   .     A
C332   H358    1.079   .     S
C333   H342    1.079   .     S
C333   C335    1.408   .     A
C334   H343    1.082   .     S
C334   N359    1.361   .     A
C335   H344    1.082   .     S
C335   N360    1.361   .     A
C336   C338    1.403   .     A
C336   Cl339   1.754   .     S
C336   N359    1.369   .     A
C337   N360    1.369   .     A
C337   Cl340   1.754   .     S
C338   H345    1.079   .     S
H348   N361    1.046   .     S
H349   N238    1.046   1_655 S
H350   N362    1.046   .     S
N359   Zn372   2.012   .     S
N360   Zn371   2.012   .     S
N361   C193    1.443   1_655 S
N361   H223    1.046   1_655 S
O363   Zn371   2.003   .     S
O364   Zn372   2.003   .     S
O365   Zn372   1.997   .     S
O366   Zn371   1.997   .     S
O367   Zn371   1.989   .     S
O368   Zn372   1.989   .     S
O369   Zn372   1.992   .     S
O370   Zn371   1.992   .     S
C373   O427    1.288   .     A
C373   O425    1.290   .     A
C373   C386    1.438   .     S
C374   C376    1.408   .     A
C374   C399    1.403   .     A
C374   H408    1.079   .     S
C375   C400    1.408   .     A
C375   C394    1.416   .     A
C376   C395    1.416   .     A
C376   C3      1.521   1_556 S
C377   C379    1.406   .     S
C377   O429    1.276   .     A
C377   O431    1.282   .     A
C378   O430    1.275   .     A
C378   O432    1.283   .     A
C378   C380    1.406   .     S
C379   C504    1.348   1_455 S
C379   N547    1.443   1_455 S
C380   C441    1.348   .     S
C380   N486    1.443   .     S
C381   C392    1.400   .     A
C381   C383    1.381   .     A
C381   H403    1.083   .     S
C382   C393    1.400   .     A
C382   H413    1.083   .     S
C382   C385    1.381   .     A
C383   H414    1.083   .     S
C383   C386    1.398   .     A
C384   C387    1.438   .     S
C384   O428    1.288   .     A
C384   O426    1.289   .     A
C385   C387    1.399   .     A
C385   H415    1.084   .     S
C386   C388    1.400   .     A
C387   C389    1.400   .     A
C388   C390    1.380   .     A
C388   H416    1.084   .     S
C389   C391    1.380   .     A
C389   H417    1.084   .     S
C390   C392    1.398   .     A
C390   H418    1.083   .     S
C391   H419    1.083   .     S
C391   C393    1.398   .     A
C392   C579    1.444   1_545 S
C393   C578    1.444   .     S
C394   C396    1.407   .     A
C394   H420    1.079   .     S
C395   H404    1.079   .     S
C395   C397    1.408   .     A
C396   H405    1.082   .     S
C396   N421    1.361   .     A
C397   H406    1.082   .     S
C397   N422    1.361   .     A
C398   C400    1.403   .     A
C398   Cl401   1.754   .     S
C398   N421    1.369   .     A
C399   N422    1.369   .     A
C399   Cl402   1.754   .     S
C400   H407    1.079   .     S
H409   N547    1.046   1_455 S
H410   N423    1.046   .     S
H411   N486    1.046   .     S
H412   N424    1.046   .     S
N421   Zn434   2.012   .     S
N422   Zn433   2.012   .     S
N423   C441    1.443   .     S
N423   H471    1.046   .     S
N424   H535    1.046   1_455 S
N424   C504    1.443   1_455 S
O425   Zn433   2.003   .     S
O426   Zn434   2.003   .     S
O427   Zn434   1.997   .     S
O428   Zn433   1.997   .     S
O429   Zn433   1.989   .     S
O430   Zn434   1.989   .     S
O431   Zn434   1.992   .     S
O432   Zn433   1.992   .     S
C435   O489    1.288   .     A
C435   O487    1.290   .     A
C435   C448    1.438   .     S
C436   C438    1.408   .     A
C436   C461    1.403   .     A
C436   H470    1.079   .     S
C437   C462    1.408   .     A
C437   C456    1.416   .     A
C438   C457    1.416   .     A
C438   C65     1.521   1_556 S
C439   C441    1.406   .     S
C439   O491    1.276   .     A
C439   O493    1.282   .     A
C440   O492    1.275   .     A
C440   O494    1.283   .     A
C440   C442    1.406   .     S
C442   C503    1.348   .     S
C442   N548    1.443   .     S
C443   C454    1.400   .     A
C443   C445    1.381   .     A
C443   H465    1.083   .     S
C444   C455    1.400   .     A
C444   H475    1.083   .     S
C444   C447    1.381   .     A
C445   H476    1.083   .     S
C445   C448    1.398   .     A
C446   C449    1.438   .     S
C446   O490    1.288   .     A
C446   O488    1.289   .     A
C447   C449    1.399   .     A
C447   H477    1.084   .     S
C448   C450    1.400   .     A
C449   C451    1.400   .     A
C450   C452    1.380   .     A
C450   H478    1.084   .     S
C451   C453    1.380   .     A
C451   H479    1.084   .     S
C452   C454    1.398   .     A
C452   H480    1.083   .     S
C453   H481    1.083   .     S
C453   C455    1.398   .     A
C454   C641    1.444   1_545 S
C455   C640    1.444   .     S
C456   C458    1.407   .     A
C456   H482    1.079   .     S
C457   H466    1.079   .     S
C457   C459    1.408   .     A
C458   H467    1.082   .     S
C458   N483    1.361   .     A
C459   H468    1.082   .     S
C459   N484    1.361   .     A
C460   C462    1.403   .     A
C460   Cl463   1.754   .     S
C460   N483    1.369   .     A
C461   N484    1.369   .     A
C461   Cl464   1.754   .     S
C462   H469    1.079   .     S
H472   N485    1.046   .     S
H473   N548    1.046   .     S
H474   N486    1.046   .     S
N483   Zn496   2.012   .     S
N484   Zn495   2.012   .     S
N485   C503    1.443   .     S
N485   H533    1.046   .     S
O487   Zn495   2.003   .     S
O488   Zn496   2.003   .     S
O489   Zn496   1.997   .     S
O490   Zn495   1.997   .     S
O491   Zn495   1.989   .     S
O492   Zn496   1.989   .     S
O493   Zn496   1.992   .     S
O494   Zn495   1.992   .     S
C497   O551    1.288   .     A
C497   O549    1.290   .     A
C497   C510    1.438   .     S
C498   C500    1.408   .     A
C498   C523    1.403   .     A
C498   H532    1.079   .     S
C499   C524    1.408   .     A
C499   C518    1.416   .     A
C500   C519    1.416   .     A
C500   C127    1.521   1_556 S
C501   C503    1.406   .     S
C501   O553    1.276   .     A
C501   O555    1.282   .     A
C502   O554    1.275   .     A
C502   O556    1.283   .     A
C502   C504    1.406   .     S
C504   C379    1.348   1_655 S
C504   N424    1.443   1_655 S
C505   C516    1.400   .     A
C505   C507    1.381   .     A
C505   H527    1.083   .     S
C506   C517    1.400   .     A
C506   H537    1.083   .     S
C506   C509    1.381   .     A
C507   H538    1.083   .     S
C507   C510    1.398   .     A
C508   C511    1.438   .     S
C508   O552    1.288   .     A
C508   O550    1.289   .     A
C509   C511    1.399   .     A
C509   H539    1.084   .     S
C510   C512    1.400   .     A
C511   C513    1.400   .     A
C512   C514    1.380   .     A
C512   H540    1.084   .     S
C513   C515    1.380   .     A
C513   H541    1.084   .     S
C514   C516    1.398   .     A
C514   H542    1.083   .     S
C515   H543    1.083   .     S
C515   C517    1.398   .     A
C516   C703    1.444   1_545 S
C517   C702    1.444   .     S
C518   C520    1.407   .     A
C518   H544    1.079   .     S
C519   H528    1.079   .     S
C519   C521    1.408   .     A
C520   H529    1.082   .     S
C520   N545    1.361   .     A
C521   H530    1.082   .     S
C521   N546    1.361   .     A
C522   C524    1.403   .     A
C522   Cl525   1.754   .     S
C522   N545    1.369   .     A
C523   N546    1.369   .     A
C523   Cl526   1.754   .     S
C524   H531    1.079   .     S
H534   N547    1.046   .     S
H535   N424    1.046   1_655 S
H536   N548    1.046   .     S
N545   Zn558   2.012   .     S
N546   Zn557   2.012   .     S
N547   C379    1.443   1_655 S
N547   H409    1.046   1_655 S
O549   Zn557   2.003   .     S
O550   Zn558   2.003   .     S
O551   Zn558   1.997   .     S
O552   Zn557   1.997   .     S
O553   Zn557   1.989   .     S
O554   Zn558   1.989   .     S
O555   Zn558   1.992   .     S
O556   Zn557   1.992   .     S
C559   O613    1.288   .     A
C559   O611    1.290   .     A
C559   C572    1.438   .     S
C560   C562    1.408   .     A
C560   C585    1.403   .     A
C560   H594    1.079   .     S
C561   C586    1.408   .     A
C561   C580    1.416   .     A
C562   C581    1.416   .     A
C562   C189    1.521   1_556 S
C563   C565    1.406   .     S
C563   O615    1.276   .     A
C563   O617    1.282   .     A
C564   O616    1.275   .     A
C564   O618    1.283   .     A
C564   C566    1.406   .     S
C565   C690    1.348   1_455 S
C565   N733    1.443   1_455 S
C566   C627    1.348   .     S
C566   N672    1.443   .     S
C567   C578    1.400   .     A
C567   C569    1.381   .     A
C567   H589    1.083   .     S
C568   C579    1.400   .     A
C568   H599    1.083   .     S
C568   C571    1.381   .     A
C569   H600    1.083   .     S
C569   C572    1.398   .     A
C570   C573    1.438   .     S
C570   O614    1.288   .     A
C570   O612    1.289   .     A
C571   C573    1.399   .     A
C571   H601    1.084   .     S
C572   C574    1.400   .     A
C573   C575    1.400   .     A
C574   C576    1.380   .     A
C574   H602    1.084   .     S
C575   C577    1.380   .     A
C575   H603    1.084   .     S
C576   C578    1.398   .     A
C576   H604    1.083   .     S
C577   H605    1.083   .     S
C577   C579    1.398   .     A
C579   C392    1.444   1_565 S
C580   C582    1.407   .     A
C580   H606    1.079   .     S
C581   H590    1.079   .     S
C581   C583    1.408   .     A
C582   H591    1.082   .     S
C582   N607    1.361   .     A
C583   H592    1.082   .     S
C583   N608    1.361   .     A
C584   C586    1.403   .     A
C584   Cl587   1.754   .     S
C584   N607    1.369   .     A
C585   N608    1.369   .     A
C585   Cl588   1.754   .     S
C586   H593    1.079   .     S
H595   N733    1.046   1_455 S
H596   N609    1.046   .     S
H597   N672    1.046   .     S
H598   N610    1.046   .     S
N607   Zn620   2.012   .     S
N608   Zn619   2.012   .     S
N609   C627    1.443   .     S
N609   H657    1.046   .     S
N610   H721    1.046   1_455 S
N610   C690    1.443   1_455 S
O611   Zn619   2.003   .     S
O612   Zn620   2.003   .     S
O613   Zn620   1.997   .     S
O614   Zn619   1.997   .     S
O615   Zn619   1.989   .     S
O616   Zn620   1.989   .     S
O617   Zn620   1.992   .     S
O618   Zn619   1.992   .     S
C621   O675    1.288   .     A
C621   O673    1.290   .     A
C621   C634    1.438   .     S
C622   C624    1.408   .     A
C622   C647    1.403   .     A
C622   H656    1.079   .     S
C623   C648    1.408   .     A
C623   C642    1.416   .     A
C624   C643    1.416   .     A
C624   C251    1.521   1_556 S
C625   C627    1.406   .     S
C625   O677    1.276   .     A
C625   O679    1.282   .     A
C626   O678    1.275   .     A
C626   O680    1.283   .     A
C626   C628    1.406   .     S
C628   C689    1.348   .     S
C628   N734    1.443   .     S
C629   C640    1.400   .     A
C629   C631    1.381   .     A
C629   H651    1.083   .     S
C630   C641    1.400   .     A
C630   H661    1.083   .     S
C630   C633    1.381   .     A
C631   H662    1.083   .     S
C631   C634    1.398   .     A
C632   C635    1.438   .     S
C632   O676    1.288   .     A
C632   O674    1.289   .     A
C633   C635    1.399   .     A
C633   H663    1.084   .     S
C634   C636    1.400   .     A
C635   C637    1.400   .     A
C636   C638    1.380   .     A
C636   H664    1.084   .     S
C637   C639    1.380   .     A
C637   H665    1.084   .     S
C638   C640    1.398   .     A
C638   H666    1.083   .     S
C639   H667    1.083   .     S
C639   C641    1.398   .     A
C641   C454    1.444   1_565 S
C642   C644    1.407   .     A
C642   H668    1.079   .     S
C643   H652    1.079   .     S
C643   C645    1.408   .     A
C644   H653    1.082   .     S
C644   N669    1.361   .     A
C645   H654    1.082   .     S
C645   N670    1.361   .     A
C646   C648    1.403   .     A
C646   Cl649   1.754   .     S
C646   N669    1.369   .     A
C647   N670    1.369   .     A
C647   Cl650   1.754   .     S
C648   H655    1.079   .     S
H658   N671    1.046   .     S
H659   N734    1.046   .     S
H660   N672    1.046   .     S
N669   Zn682   2.012   .     S
N670   Zn681   2.012   .     S
N671   C689    1.443   .     S
N671   H719    1.046   .     S
O673   Zn681   2.003   .     S
O674   Zn682   2.003   .     S
O675   Zn682   1.997   .     S
O676   Zn681   1.997   .     S
O677   Zn681   1.989   .     S
O678   Zn682   1.989   .     S
O679   Zn682   1.992   .     S
O680   Zn681   1.992   .     S
C683   O737    1.288   .     A
C683   O735    1.290   .     A
C683   C696    1.438   .     S
C684   C686    1.408   .     A
C684   C709    1.403   .     A
C684   H718    1.079   .     S
C685   C710    1.408   .     A
C685   C704    1.416   .     A
C686   C705    1.416   .     A
C686   C313    1.521   1_556 S
C687   C689    1.406   .     S
C687   O739    1.276   .     A
C687   O741    1.282   .     A
C688   O740    1.275   .     A
C688   O742    1.283   .     A
C688   C690    1.406   .     S
C690   C565    1.348   1_655 S
C690   N610    1.443   1_655 S
C691   C702    1.400   .     A
C691   C693    1.381   .     A
C691   H713    1.083   .     S
C692   C703    1.400   .     A
C692   H723    1.083   .     S
C692   C695    1.381   .     A
C693   H724    1.083   .     S
C693   C696    1.398   .     A
C694   C697    1.438   .     S
C694   O738    1.288   .     A
C694   O736    1.289   .     A
C695   C697    1.399   .     A
C695   H725    1.084   .     S
C696   C698    1.400   .     A
C697   C699    1.400   .     A
C698   C700    1.380   .     A
C698   H726    1.084   .     S
C699   C701    1.380   .     A
C699   H727    1.084   .     S
C700   C702    1.398   .     A
C700   H728    1.083   .     S
C701   H729    1.083   .     S
C701   C703    1.398   .     A
C703   C516    1.444   1_565 S
C704   C706    1.407   .     A
C704   H730    1.079   .     S
C705   H714    1.079   .     S
C705   C707    1.408   .     A
C706   H715    1.082   .     S
C706   N731    1.361   .     A
C707   H716    1.082   .     S
C707   N732    1.361   .     A
C708   C710    1.403   .     A
C708   Cl711   1.754   .     S
C708   N731    1.369   .     A
C709   N732    1.369   .     A
C709   Cl712   1.754   .     S
C710   H717    1.079   .     S
H720   N733    1.046   .     S
H721   N610    1.046   1_655 S
H722   N734    1.046   .     S
N731   Zn744   2.012   .     S
N732   Zn743   2.012   .     S
N733   C565    1.443   1_655 S
N733   H595    1.046   1_655 S
O735   Zn743   2.003   .     S
O736   Zn744   2.003   .     S
O737   Zn744   1.997   .     S
O738   Zn743   1.997   .     S
O739   Zn743   1.989   .     S
O740   Zn744   1.989   .     S
O741   Zn744   1.992   .     S
O742   Zn743   1.992   .     S
