data_str_m3_o1_o17_pcu_sym.99
_audit_creation_date              2020-01-03
_audit_creation_method            'Materials Studio'
_symmetry_space_group_name_H-M    'P1'
_symmetry_Int_Tables_number       1
_symmetry_cell_setting            triclinic
loop_
_symmetry_equiv_pos_as_xyz
  x,y,z
_cell_length_a                    32.3177
_cell_length_b                    29.4885
_cell_length_c                    29.8731
_cell_angle_alpha                 89.8352
_cell_angle_beta                  89.9154
_cell_angle_gamma                 90.1567
loop_
_atom_site_label
_atom_site_type_symbol
_atom_site_fract_x
_atom_site_fract_y
_atom_site_fract_z
_atom_site_U_iso_or_equiv
_atom_site_adp_type
_atom_site_occupancy
C1     C     0.08661   0.16656   0.24882   0.00000  Uiso   1.00
C2     C     0.24671   0.16673   0.25019   0.00000  Uiso   1.00
C3     C     0.09582   0.19375   0.02539   0.00000  Uiso   1.00
C4     C     0.24382   0.16557   0.47429   0.00000  Uiso   1.00
C5     C     0.02098   0.12723   0.26185   0.00000  Uiso   1.00
C6     C     0.31214   0.20502   0.23363   0.00000  Uiso   1.00
C7     C     0.31197   0.12782   0.26342   0.00000  Uiso   1.00
C8     C     0.02129   0.20477   0.23290   0.00000  Uiso   1.00
C9     C     0.29082   0.16671   0.24939   0.00000  Uiso   1.00
C10    C     0.04244   0.16614   0.24771   0.00000  Uiso   1.00
C11    C     0.19272   0.02400   0.27741   0.00000  Uiso   1.00
C12    C     0.14062   0.30934   0.22258   0.00000  Uiso   1.00
C13    C     0.14061   0.02400   0.22259   0.00000  Uiso   1.00
C14    C     0.19273   0.30934   0.27740   0.00000  Uiso   1.00
C15    C     0.16911   0.16671   0.16356   0.00000  Uiso   1.00
C16    C     0.16562   0.16662   0.33654   0.00000  Uiso   1.00
C17    C     0.20330   0.16781   0.40548   0.00000  Uiso   1.00
C18    C     0.13444   0.17985   0.09426   0.00000  Uiso   1.00
C19    C     0.16516   0.16682   0.38435   0.00000  Uiso   1.00
C20    C     0.17072   0.16727   0.11578   0.00000  Uiso   1.00
C21    C     0.12791   0.16907   0.40839   0.00000  Uiso   1.00
C22    C     0.20774   0.15914   0.09220   0.00000  Uiso   1.00
C23    C     0.12990   0.17769   0.45451   0.00000  Uiso   1.00
C24    C     0.20762   0.16677   0.04570   0.00000  Uiso   1.00
C25    C     0.16851   0.17460   0.47658   0.00000  Uiso   1.00
C26    C     0.16972   0.17512   0.02344   0.00000  Uiso   1.00
C27    C     0.20560   0.16904   0.45189   0.00000  Uiso   1.00
C28    C     0.13295   0.18304   0.04795   0.00000  Uiso   1.00
C29    C     0.09450   0.18964   0.47902   0.00000  Uiso   1.00
C30    C     0.24435   0.16599   0.02076   0.00000  Uiso   1.00
H31    H     0.23086   0.16673   0.38495   0.00000  Uiso   1.00
H32    H     0.10707   0.18525   0.11444   0.00000  Uiso   1.00
H33    H     0.06577   0.19688   0.46207   0.00000  Uiso   1.00
H34    H     0.27396   0.16597   0.03726   0.00000  Uiso   1.00
H35    H     0.21352   0.04221   0.29932   0.00000  Uiso   1.00
H36    H     0.11984   0.29113   0.20065   0.00000  Uiso   1.00
H37    H     0.11979   0.04222   0.20070   0.00000  Uiso   1.00
H38    H     0.21355   0.29112   0.29929   0.00000  Uiso   1.00
N39    N     0.16667   0.28573   0.25000   0.00000  Uiso   1.00
N40    N     0.16667   0.04760   0.25000   0.00000  Uiso   1.00
O41    O     0.10559   0.20487   0.25000   0.00000  Uiso   1.00
O42    O     0.22774   0.12846   0.25001   0.00000  Uiso   1.00
O43    O     0.22774   0.20487   0.25001   0.00000  Uiso   1.00
O44    O     0.10559   0.12846   0.25000   0.00000  Uiso   1.00
O45    O     0.16666   0.20489   0.18393   0.00000  Uiso   1.00
O46    O     0.16667   0.12844   0.31608   0.00000  Uiso   1.00
O47    O     0.16667   0.20489   0.31608   0.00000  Uiso   1.00
O48    O     0.16666   0.12844   0.18393   0.00000  Uiso   1.00
Zn49   Zn    0.16667   0.21771   0.25000   0.00000  Uiso   1.00
Zn50   Zn    0.16667   0.11563   0.25000   0.00000  Uiso   1.00
S51    S     0.07992   0.15540   0.38239   0.00000  Uiso   1.00
O52    O     0.05809   0.19833   0.36929   0.00000  Uiso   1.00
O53    O     0.08617   0.12667   0.34171   0.00000  Uiso   1.00
O54    O     0.05021   0.12562   0.41805   0.00000  Uiso   1.00
H55    H     0.06691   0.09868   0.42604   0.00000  Uiso   1.00
S56    S     0.25313   0.13784   0.11969   0.00000  Uiso   1.00
O57    O     0.28059   0.17724   0.13134   0.00000  Uiso   1.00
O58    O     0.24309   0.11200   0.16159   0.00000  Uiso   1.00
O59    O     0.27943   0.10232   0.08613   0.00000  Uiso   1.00
H60    H     0.25932   0.07821   0.07833   0.00000  Uiso   1.00
S61    S     0.05045   0.21218   0.05358   0.00000  Uiso   1.00
O62    O     0.03119   0.17245   0.07743   0.00000  Uiso   1.00
O63    O     0.06121   0.24800   0.08737   0.00000  Uiso   1.00
O64    O     0.01586   0.23374   0.01733   0.00000  Uiso   1.00
H65    H     0.02875   0.26201   0.00591   0.00000  Uiso   1.00
S66    S     0.29145   0.15742   0.44609   0.00000  Uiso   1.00
O67    O     0.32535   0.14829   0.47924   0.00000  Uiso   1.00
O68    O     0.28791   0.11738   0.41521   0.00000  Uiso   1.00
O69    O     0.30315   0.20439   0.41647   0.00000  Uiso   1.00
H70    H     0.30579   0.19432   0.38499   0.00000  Uiso   1.00
F71    F     0.04066   0.08875   0.27493   0.00000  Uiso   1.00
F72    F     0.29208   0.24230   0.21806   0.00000  Uiso   1.00
F73    F     0.29190   0.09058   0.27944   0.00000  Uiso   1.00
F74    F     0.04152   0.24186   0.21680   0.00000  Uiso   1.00
C75    C     0.41995   0.16656   0.24882   0.00000  Uiso   1.00
C76    C     0.58004   0.16673   0.25019   0.00000  Uiso   1.00
C77    C     0.42916   0.19375   0.02539   0.00000  Uiso   1.00
C78    C     0.57715   0.16557   0.47429   0.00000  Uiso   1.00
C79    C     0.35432   0.12723   0.26185   0.00000  Uiso   1.00
C80    C     0.64548   0.20502   0.23363   0.00000  Uiso   1.00
C81    C     0.64530   0.12782   0.26342   0.00000  Uiso   1.00
C82    C     0.35463   0.20477   0.23290   0.00000  Uiso   1.00
C83    C     0.62415   0.16671   0.24939   0.00000  Uiso   1.00
C84    C     0.37578   0.16614   0.24771   0.00000  Uiso   1.00
C85    C     0.52605   0.02400   0.27741   0.00000  Uiso   1.00
C86    C     0.47396   0.30934   0.22258   0.00000  Uiso   1.00
C87    C     0.47394   0.02400   0.22259   0.00000  Uiso   1.00
C88    C     0.52606   0.30934   0.27740   0.00000  Uiso   1.00
C89    C     0.50244   0.16671   0.16356   0.00000  Uiso   1.00
C90    C     0.49896   0.16662   0.33654   0.00000  Uiso   1.00
C91    C     0.53663   0.16781   0.40548   0.00000  Uiso   1.00
C92    C     0.46777   0.17985   0.09426   0.00000  Uiso   1.00
C93    C     0.49849   0.16682   0.38435   0.00000  Uiso   1.00
C94    C     0.50406   0.16727   0.11578   0.00000  Uiso   1.00
C95    C     0.46124   0.16907   0.40839   0.00000  Uiso   1.00
C96    C     0.54107   0.15914   0.09220   0.00000  Uiso   1.00
C97    C     0.46323   0.17769   0.45451   0.00000  Uiso   1.00
C98    C     0.54095   0.16677   0.04570   0.00000  Uiso   1.00
C99    C     0.50184   0.17460   0.47658   0.00000  Uiso   1.00
C100   C     0.50305   0.17512   0.02344   0.00000  Uiso   1.00
C101   C     0.53893   0.16904   0.45189   0.00000  Uiso   1.00
C102   C     0.46628   0.18304   0.04795   0.00000  Uiso   1.00
C103   C     0.42783   0.18964   0.47902   0.00000  Uiso   1.00
C104   C     0.57768   0.16599   0.02076   0.00000  Uiso   1.00
H105   H     0.56420   0.16673   0.38495   0.00000  Uiso   1.00
H106   H     0.44040   0.18525   0.11444   0.00000  Uiso   1.00
H107   H     0.39910   0.19688   0.46207   0.00000  Uiso   1.00
H108   H     0.60730   0.16597   0.03726   0.00000  Uiso   1.00
H109   H     0.54685   0.04221   0.29932   0.00000  Uiso   1.00
H110   H     0.45317   0.29113   0.20065   0.00000  Uiso   1.00
H111   H     0.45312   0.04222   0.20070   0.00000  Uiso   1.00
H112   H     0.54689   0.29112   0.29929   0.00000  Uiso   1.00
N113   N     0.50000   0.28573   0.25000   0.00000  Uiso   1.00
N114   N     0.50000   0.04760   0.25000   0.00000  Uiso   1.00
O115   O     0.43892   0.20487   0.25000   0.00000  Uiso   1.00
O116   O     0.56108   0.12846   0.25001   0.00000  Uiso   1.00
O117   O     0.56108   0.20487   0.25001   0.00000  Uiso   1.00
O118   O     0.43892   0.12846   0.25000   0.00000  Uiso   1.00
O119   O     0.49999   0.20489   0.18393   0.00000  Uiso   1.00
O120   O     0.50001   0.12844   0.31608   0.00000  Uiso   1.00
O121   O     0.50001   0.20489   0.31608   0.00000  Uiso   1.00
O122   O     0.49999   0.12844   0.18393   0.00000  Uiso   1.00
Zn123  Zn    0.50000   0.21771   0.25000   0.00000  Uiso   1.00
Zn124  Zn    0.50000   0.11563   0.25000   0.00000  Uiso   1.00
S125   S     0.41325   0.15540   0.38239   0.00000  Uiso   1.00
O126   O     0.39143   0.19833   0.36929   0.00000  Uiso   1.00
O127   O     0.41950   0.12667   0.34171   0.00000  Uiso   1.00
O128   O     0.38354   0.12562   0.41805   0.00000  Uiso   1.00
H129   H     0.40025   0.09868   0.42604   0.00000  Uiso   1.00
S130   S     0.58646   0.13784   0.11969   0.00000  Uiso   1.00
O131   O     0.61393   0.17724   0.13134   0.00000  Uiso   1.00
O132   O     0.57643   0.11200   0.16159   0.00000  Uiso   1.00
O133   O     0.61276   0.10232   0.08613   0.00000  Uiso   1.00
H134   H     0.59265   0.07821   0.07833   0.00000  Uiso   1.00
S135   S     0.38378   0.21218   0.05358   0.00000  Uiso   1.00
O136   O     0.36453   0.17245   0.07743   0.00000  Uiso   1.00
O137   O     0.39454   0.24800   0.08737   0.00000  Uiso   1.00
O138   O     0.34919   0.23374   0.01733   0.00000  Uiso   1.00
H139   H     0.36209   0.26201   0.00591   0.00000  Uiso   1.00
S140   S     0.62479   0.15742   0.44609   0.00000  Uiso   1.00
O141   O     0.65868   0.14829   0.47924   0.00000  Uiso   1.00
O142   O     0.62124   0.11738   0.41521   0.00000  Uiso   1.00
O143   O     0.63648   0.20439   0.41647   0.00000  Uiso   1.00
H144   H     0.63913   0.19432   0.38499   0.00000  Uiso   1.00
F145   F     0.37399   0.08875   0.27493   0.00000  Uiso   1.00
F146   F     0.62541   0.24230   0.21806   0.00000  Uiso   1.00
F147   F     0.62523   0.09058   0.27944   0.00000  Uiso   1.00
F148   F     0.37486   0.24186   0.21680   0.00000  Uiso   1.00
C149   C     0.75328   0.16656   0.24882   0.00000  Uiso   1.00
C150   C     0.91338   0.16673   0.25019   0.00000  Uiso   1.00
C151   C     0.76249   0.19375   0.02539   0.00000  Uiso   1.00
C152   C     0.91048   0.16557   0.47429   0.00000  Uiso   1.00
C153   C     0.68765   0.12723   0.26185   0.00000  Uiso   1.00
C154   C     0.97881   0.20502   0.23363   0.00000  Uiso   1.00
C155   C     0.97864   0.12782   0.26342   0.00000  Uiso   1.00
C156   C     0.68796   0.20477   0.23290   0.00000  Uiso   1.00
C157   C     0.95748   0.16671   0.24939   0.00000  Uiso   1.00
C158   C     0.70911   0.16614   0.24771   0.00000  Uiso   1.00
C159   C     0.85939   0.02400   0.27741   0.00000  Uiso   1.00
C160   C     0.80729   0.30934   0.22258   0.00000  Uiso   1.00
C161   C     0.80728   0.02400   0.22259   0.00000  Uiso   1.00
C162   C     0.85940   0.30934   0.27740   0.00000  Uiso   1.00
C163   C     0.83577   0.16671   0.16356   0.00000  Uiso   1.00
C164   C     0.83229   0.16662   0.33654   0.00000  Uiso   1.00
C165   C     0.86996   0.16781   0.40548   0.00000  Uiso   1.00
C166   C     0.80110   0.17985   0.09426   0.00000  Uiso   1.00
C167   C     0.83183   0.16682   0.38435   0.00000  Uiso   1.00
C168   C     0.83739   0.16727   0.11578   0.00000  Uiso   1.00
C169   C     0.79457   0.16907   0.40839   0.00000  Uiso   1.00
C170   C     0.87440   0.15914   0.09220   0.00000  Uiso   1.00
C171   C     0.79657   0.17769   0.45451   0.00000  Uiso   1.00
C172   C     0.87428   0.16677   0.04570   0.00000  Uiso   1.00
C173   C     0.83518   0.17460   0.47658   0.00000  Uiso   1.00
C174   C     0.83638   0.17512   0.02344   0.00000  Uiso   1.00
C175   C     0.87227   0.16904   0.45189   0.00000  Uiso   1.00
C176   C     0.79961   0.18304   0.04795   0.00000  Uiso   1.00
C177   C     0.76117   0.18964   0.47902   0.00000  Uiso   1.00
C178   C     0.91102   0.16599   0.02076   0.00000  Uiso   1.00
H179   H     0.89753   0.16673   0.38495   0.00000  Uiso   1.00
H180   H     0.77374   0.18525   0.11444   0.00000  Uiso   1.00
H181   H     0.73243   0.19688   0.46207   0.00000  Uiso   1.00
H182   H     0.94063   0.16597   0.03726   0.00000  Uiso   1.00
H183   H     0.88018   0.04221   0.29932   0.00000  Uiso   1.00
H184   H     0.78650   0.29113   0.20065   0.00000  Uiso   1.00
H185   H     0.78646   0.04222   0.20070   0.00000  Uiso   1.00
H186   H     0.88022   0.29112   0.29929   0.00000  Uiso   1.00
N187   N     0.83333   0.28573   0.25000   0.00000  Uiso   1.00
N188   N     0.83333   0.04760   0.25000   0.00000  Uiso   1.00
O189   O     0.77226   0.20487   0.25000   0.00000  Uiso   1.00
O190   O     0.89441   0.12846   0.25001   0.00000  Uiso   1.00
O191   O     0.89441   0.20487   0.25001   0.00000  Uiso   1.00
O192   O     0.77226   0.12846   0.25000   0.00000  Uiso   1.00
O193   O     0.83333   0.20489   0.18393   0.00000  Uiso   1.00
O194   O     0.83334   0.12844   0.31608   0.00000  Uiso   1.00
O195   O     0.83334   0.20489   0.31608   0.00000  Uiso   1.00
O196   O     0.83333   0.12844   0.18393   0.00000  Uiso   1.00
Zn197  Zn    0.83333   0.21771   0.25000   0.00000  Uiso   1.00
Zn198  Zn    0.83333   0.11563   0.25000   0.00000  Uiso   1.00
S199   S     0.74658   0.15540   0.38239   0.00000  Uiso   1.00
O200   O     0.72476   0.19833   0.36929   0.00000  Uiso   1.00
O201   O     0.75283   0.12667   0.34171   0.00000  Uiso   1.00
O202   O     0.71688   0.12562   0.41805   0.00000  Uiso   1.00
H203   H     0.73358   0.09868   0.42604   0.00000  Uiso   1.00
S204   S     0.91979   0.13784   0.11969   0.00000  Uiso   1.00
O205   O     0.94726   0.17724   0.13134   0.00000  Uiso   1.00
O206   O     0.90976   0.11200   0.16159   0.00000  Uiso   1.00
O207   O     0.94610   0.10232   0.08613   0.00000  Uiso   1.00
H208   H     0.92598   0.07821   0.07833   0.00000  Uiso   1.00
S209   S     0.71711   0.21218   0.05358   0.00000  Uiso   1.00
O210   O     0.69786   0.17245   0.07743   0.00000  Uiso   1.00
O211   O     0.72788   0.24800   0.08737   0.00000  Uiso   1.00
O212   O     0.68252   0.23374   0.01733   0.00000  Uiso   1.00
H213   H     0.69542   0.26201   0.00591   0.00000  Uiso   1.00
S214   S     0.95812   0.15742   0.44609   0.00000  Uiso   1.00
O215   O     0.99202   0.14829   0.47924   0.00000  Uiso   1.00
O216   O     0.95458   0.11738   0.41521   0.00000  Uiso   1.00
O217   O     0.96981   0.20439   0.41647   0.00000  Uiso   1.00
H218   H     0.97246   0.19432   0.38499   0.00000  Uiso   1.00
F219   F     0.70733   0.08875   0.27493   0.00000  Uiso   1.00
F220   F     0.95874   0.24230   0.21806   0.00000  Uiso   1.00
F221   F     0.95856   0.09058   0.27944   0.00000  Uiso   1.00
F222   F     0.70819   0.24186   0.21680   0.00000  Uiso   1.00
C223   C     0.08661   0.49989   0.24882   0.00000  Uiso   1.00
C224   C     0.24671   0.50007   0.25019   0.00000  Uiso   1.00
C225   C     0.09582   0.52708   0.02539   0.00000  Uiso   1.00
C226   C     0.24382   0.49890   0.47429   0.00000  Uiso   1.00
C227   C     0.02098   0.46056   0.26185   0.00000  Uiso   1.00
C228   C     0.31214   0.53835   0.23363   0.00000  Uiso   1.00
C229   C     0.31197   0.46116   0.26342   0.00000  Uiso   1.00
C230   C     0.02129   0.53810   0.23290   0.00000  Uiso   1.00
C231   C     0.29082   0.50004   0.24939   0.00000  Uiso   1.00
C232   C     0.04244   0.49947   0.24771   0.00000  Uiso   1.00
C233   C     0.19272   0.35733   0.27741   0.00000  Uiso   1.00
C234   C     0.14062   0.64267   0.22258   0.00000  Uiso   1.00
C235   C     0.14061   0.35733   0.22259   0.00000  Uiso   1.00
C236   C     0.19273   0.64267   0.27740   0.00000  Uiso   1.00
C237   C     0.16911   0.50005   0.16356   0.00000  Uiso   1.00
C238   C     0.16562   0.49995   0.33654   0.00000  Uiso   1.00
C239   C     0.20330   0.50114   0.40548   0.00000  Uiso   1.00
C240   C     0.13444   0.51318   0.09426   0.00000  Uiso   1.00
C241   C     0.16516   0.50015   0.38435   0.00000  Uiso   1.00
C242   C     0.17072   0.50061   0.11578   0.00000  Uiso   1.00
C243   C     0.12791   0.50240   0.40839   0.00000  Uiso   1.00
C244   C     0.20774   0.49247   0.09220   0.00000  Uiso   1.00
C245   C     0.12990   0.51102   0.45451   0.00000  Uiso   1.00
C246   C     0.20762   0.50010   0.04570   0.00000  Uiso   1.00
C247   C     0.16851   0.50793   0.47658   0.00000  Uiso   1.00
C248   C     0.16972   0.50846   0.02344   0.00000  Uiso   1.00
C249   C     0.20560   0.50237   0.45189   0.00000  Uiso   1.00
C250   C     0.13295   0.51637   0.04795   0.00000  Uiso   1.00
C251   C     0.09450   0.52298   0.47902   0.00000  Uiso   1.00
C252   C     0.24435   0.49933   0.02076   0.00000  Uiso   1.00
H253   H     0.23086   0.50006   0.38495   0.00000  Uiso   1.00
H254   H     0.10707   0.51859   0.11444   0.00000  Uiso   1.00
H255   H     0.06577   0.53022   0.46207   0.00000  Uiso   1.00
H256   H     0.27396   0.49931   0.03726   0.00000  Uiso   1.00
H257   H     0.21352   0.37554   0.29932   0.00000  Uiso   1.00
H258   H     0.11984   0.62446   0.20065   0.00000  Uiso   1.00
H259   H     0.11979   0.37555   0.20070   0.00000  Uiso   1.00
H260   H     0.21355   0.62445   0.29929   0.00000  Uiso   1.00
N261   N     0.16667   0.61907   0.25000   0.00000  Uiso   1.00
N262   N     0.16667   0.38093   0.25000   0.00000  Uiso   1.00
O263   O     0.10559   0.53821   0.25000   0.00000  Uiso   1.00
O264   O     0.22774   0.46179   0.25001   0.00000  Uiso   1.00
O265   O     0.22774   0.53821   0.25001   0.00000  Uiso   1.00
O266   O     0.10559   0.46179   0.25000   0.00000  Uiso   1.00
O267   O     0.16666   0.53823   0.18393   0.00000  Uiso   1.00
O268   O     0.16667   0.46177   0.31608   0.00000  Uiso   1.00
O269   O     0.16667   0.53823   0.31608   0.00000  Uiso   1.00
O270   O     0.16666   0.46177   0.18393   0.00000  Uiso   1.00
Zn271  Zn    0.16667   0.55104   0.25000   0.00000  Uiso   1.00
Zn272  Zn    0.16667   0.44896   0.25000   0.00000  Uiso   1.00
S273   S     0.07992   0.48873   0.38239   0.00000  Uiso   1.00
O274   O     0.05809   0.53167   0.36929   0.00000  Uiso   1.00
O275   O     0.08617   0.46001   0.34171   0.00000  Uiso   1.00
O276   O     0.05021   0.45895   0.41805   0.00000  Uiso   1.00
H277   H     0.06691   0.43201   0.42604   0.00000  Uiso   1.00
S278   S     0.25313   0.47118   0.11969   0.00000  Uiso   1.00
O279   O     0.28059   0.51057   0.13134   0.00000  Uiso   1.00
O280   O     0.24309   0.44533   0.16159   0.00000  Uiso   1.00
O281   O     0.27943   0.43565   0.08613   0.00000  Uiso   1.00
H282   H     0.25932   0.41154   0.07833   0.00000  Uiso   1.00
S283   S     0.05045   0.54551   0.05358   0.00000  Uiso   1.00
O284   O     0.03119   0.50578   0.07743   0.00000  Uiso   1.00
O285   O     0.06121   0.58133   0.08737   0.00000  Uiso   1.00
O286   O     0.01586   0.56707   0.01733   0.00000  Uiso   1.00
H287   H     0.02875   0.59534   0.00591   0.00000  Uiso   1.00
S288   S     0.29145   0.49075   0.44609   0.00000  Uiso   1.00
O289   O     0.32535   0.48162   0.47924   0.00000  Uiso   1.00
O290   O     0.28791   0.45072   0.41521   0.00000  Uiso   1.00
O291   O     0.30315   0.53772   0.41647   0.00000  Uiso   1.00
H292   H     0.30579   0.52766   0.38499   0.00000  Uiso   1.00
F293   F     0.04066   0.42209   0.27493   0.00000  Uiso   1.00
F294   F     0.29208   0.57563   0.21806   0.00000  Uiso   1.00
F295   F     0.29190   0.42391   0.27944   0.00000  Uiso   1.00
F296   F     0.04152   0.57519   0.21680   0.00000  Uiso   1.00
C297   C     0.41995   0.49989   0.24882   0.00000  Uiso   1.00
C298   C     0.58004   0.50007   0.25019   0.00000  Uiso   1.00
C299   C     0.42916   0.52708   0.02539   0.00000  Uiso   1.00
C300   C     0.57715   0.49890   0.47429   0.00000  Uiso   1.00
C301   C     0.35432   0.46056   0.26185   0.00000  Uiso   1.00
C302   C     0.64548   0.53835   0.23363   0.00000  Uiso   1.00
C303   C     0.64530   0.46116   0.26342   0.00000  Uiso   1.00
C304   C     0.35463   0.53810   0.23290   0.00000  Uiso   1.00
C305   C     0.62415   0.50004   0.24939   0.00000  Uiso   1.00
C306   C     0.37578   0.49947   0.24771   0.00000  Uiso   1.00
C307   C     0.52605   0.35733   0.27741   0.00000  Uiso   1.00
C308   C     0.47396   0.64267   0.22258   0.00000  Uiso   1.00
C309   C     0.47394   0.35733   0.22259   0.00000  Uiso   1.00
C310   C     0.52606   0.64267   0.27740   0.00000  Uiso   1.00
C311   C     0.50244   0.50005   0.16356   0.00000  Uiso   1.00
C312   C     0.49896   0.49995   0.33654   0.00000  Uiso   1.00
C313   C     0.53663   0.50114   0.40548   0.00000  Uiso   1.00
C314   C     0.46777   0.51318   0.09426   0.00000  Uiso   1.00
C315   C     0.49849   0.50015   0.38435   0.00000  Uiso   1.00
C316   C     0.50406   0.50061   0.11578   0.00000  Uiso   1.00
C317   C     0.46124   0.50240   0.40839   0.00000  Uiso   1.00
C318   C     0.54107   0.49247   0.09220   0.00000  Uiso   1.00
C319   C     0.46323   0.51102   0.45451   0.00000  Uiso   1.00
C320   C     0.54095   0.50010   0.04570   0.00000  Uiso   1.00
C321   C     0.50184   0.50793   0.47658   0.00000  Uiso   1.00
C322   C     0.50305   0.50846   0.02344   0.00000  Uiso   1.00
C323   C     0.53893   0.50237   0.45189   0.00000  Uiso   1.00
C324   C     0.46628   0.51637   0.04795   0.00000  Uiso   1.00
C325   C     0.42783   0.52298   0.47902   0.00000  Uiso   1.00
C326   C     0.57768   0.49933   0.02076   0.00000  Uiso   1.00
H327   H     0.56420   0.50006   0.38495   0.00000  Uiso   1.00
H328   H     0.44040   0.51859   0.11444   0.00000  Uiso   1.00
H329   H     0.39910   0.53022   0.46207   0.00000  Uiso   1.00
H330   H     0.60730   0.49931   0.03726   0.00000  Uiso   1.00
H331   H     0.54685   0.37554   0.29932   0.00000  Uiso   1.00
H332   H     0.45317   0.62446   0.20065   0.00000  Uiso   1.00
H333   H     0.45312   0.37555   0.20070   0.00000  Uiso   1.00
H334   H     0.54689   0.62445   0.29929   0.00000  Uiso   1.00
N335   N     0.50000   0.61907   0.25000   0.00000  Uiso   1.00
N336   N     0.50000   0.38093   0.25000   0.00000  Uiso   1.00
O337   O     0.43892   0.53821   0.25000   0.00000  Uiso   1.00
O338   O     0.56108   0.46179   0.25001   0.00000  Uiso   1.00
O339   O     0.56108   0.53821   0.25001   0.00000  Uiso   1.00
O340   O     0.43892   0.46179   0.25000   0.00000  Uiso   1.00
O341   O     0.49999   0.53823   0.18393   0.00000  Uiso   1.00
O342   O     0.50001   0.46177   0.31608   0.00000  Uiso   1.00
O343   O     0.50001   0.53823   0.31608   0.00000  Uiso   1.00
O344   O     0.49999   0.46177   0.18393   0.00000  Uiso   1.00
Zn345  Zn    0.50000   0.55104   0.25000   0.00000  Uiso   1.00
Zn346  Zn    0.50000   0.44896   0.25000   0.00000  Uiso   1.00
S347   S     0.41325   0.48873   0.38239   0.00000  Uiso   1.00
O348   O     0.39143   0.53167   0.36929   0.00000  Uiso   1.00
O349   O     0.41950   0.46001   0.34171   0.00000  Uiso   1.00
O350   O     0.38354   0.45895   0.41805   0.00000  Uiso   1.00
H351   H     0.40025   0.43201   0.42604   0.00000  Uiso   1.00
S352   S     0.58646   0.47118   0.11969   0.00000  Uiso   1.00
O353   O     0.61393   0.51057   0.13134   0.00000  Uiso   1.00
O354   O     0.57643   0.44533   0.16159   0.00000  Uiso   1.00
O355   O     0.61276   0.43565   0.08613   0.00000  Uiso   1.00
H356   H     0.59265   0.41154   0.07833   0.00000  Uiso   1.00
S357   S     0.38378   0.54551   0.05358   0.00000  Uiso   1.00
O358   O     0.36453   0.50578   0.07743   0.00000  Uiso   1.00
O359   O     0.39454   0.58133   0.08737   0.00000  Uiso   1.00
O360   O     0.34919   0.56707   0.01733   0.00000  Uiso   1.00
H361   H     0.36209   0.59534   0.00591   0.00000  Uiso   1.00
S362   S     0.62479   0.49075   0.44609   0.00000  Uiso   1.00
O363   O     0.65868   0.48162   0.47924   0.00000  Uiso   1.00
O364   O     0.62124   0.45072   0.41521   0.00000  Uiso   1.00
O365   O     0.63648   0.53772   0.41647   0.00000  Uiso   1.00
H366   H     0.63913   0.52766   0.38499   0.00000  Uiso   1.00
F367   F     0.37399   0.42209   0.27493   0.00000  Uiso   1.00
F368   F     0.62541   0.57563   0.21806   0.00000  Uiso   1.00
F369   F     0.62523   0.42391   0.27944   0.00000  Uiso   1.00
F370   F     0.37486   0.57519   0.21680   0.00000  Uiso   1.00
C371   C     0.75328   0.49989   0.24882   0.00000  Uiso   1.00
C372   C     0.91338   0.50007   0.25019   0.00000  Uiso   1.00
C373   C     0.76249   0.52708   0.02539   0.00000  Uiso   1.00
C374   C     0.91048   0.49890   0.47429   0.00000  Uiso   1.00
C375   C     0.68765   0.46056   0.26185   0.00000  Uiso   1.00
C376   C     0.97881   0.53835   0.23363   0.00000  Uiso   1.00
C377   C     0.97864   0.46116   0.26342   0.00000  Uiso   1.00
C378   C     0.68796   0.53810   0.23290   0.00000  Uiso   1.00
C379   C     0.95748   0.50004   0.24939   0.00000  Uiso   1.00
C380   C     0.70911   0.49947   0.24771   0.00000  Uiso   1.00
C381   C     0.85939   0.35733   0.27741   0.00000  Uiso   1.00
C382   C     0.80729   0.64267   0.22258   0.00000  Uiso   1.00
C383   C     0.80728   0.35733   0.22259   0.00000  Uiso   1.00
C384   C     0.85940   0.64267   0.27740   0.00000  Uiso   1.00
C385   C     0.83577   0.50005   0.16356   0.00000  Uiso   1.00
C386   C     0.83229   0.49995   0.33654   0.00000  Uiso   1.00
C387   C     0.86996   0.50114   0.40548   0.00000  Uiso   1.00
C388   C     0.80110   0.51318   0.09426   0.00000  Uiso   1.00
C389   C     0.83183   0.50015   0.38435   0.00000  Uiso   1.00
C390   C     0.83739   0.50061   0.11578   0.00000  Uiso   1.00
C391   C     0.79457   0.50240   0.40839   0.00000  Uiso   1.00
C392   C     0.87440   0.49247   0.09220   0.00000  Uiso   1.00
C393   C     0.79657   0.51102   0.45451   0.00000  Uiso   1.00
C394   C     0.87428   0.50010   0.04570   0.00000  Uiso   1.00
C395   C     0.83518   0.50793   0.47658   0.00000  Uiso   1.00
C396   C     0.83638   0.50846   0.02344   0.00000  Uiso   1.00
C397   C     0.87227   0.50237   0.45189   0.00000  Uiso   1.00
C398   C     0.79961   0.51637   0.04795   0.00000  Uiso   1.00
C399   C     0.76117   0.52298   0.47902   0.00000  Uiso   1.00
C400   C     0.91102   0.49933   0.02076   0.00000  Uiso   1.00
H401   H     0.89753   0.50006   0.38495   0.00000  Uiso   1.00
H402   H     0.77374   0.51859   0.11444   0.00000  Uiso   1.00
H403   H     0.73243   0.53022   0.46207   0.00000  Uiso   1.00
H404   H     0.94063   0.49931   0.03726   0.00000  Uiso   1.00
H405   H     0.88018   0.37554   0.29932   0.00000  Uiso   1.00
H406   H     0.78650   0.62446   0.20065   0.00000  Uiso   1.00
H407   H     0.78646   0.37555   0.20070   0.00000  Uiso   1.00
H408   H     0.88022   0.62445   0.29929   0.00000  Uiso   1.00
N409   N     0.83333   0.61907   0.25000   0.00000  Uiso   1.00
N410   N     0.83333   0.38093   0.25000   0.00000  Uiso   1.00
O411   O     0.77226   0.53821   0.25000   0.00000  Uiso   1.00
O412   O     0.89441   0.46179   0.25001   0.00000  Uiso   1.00
O413   O     0.89441   0.53821   0.25001   0.00000  Uiso   1.00
O414   O     0.77226   0.46179   0.25000   0.00000  Uiso   1.00
O415   O     0.83333   0.53823   0.18393   0.00000  Uiso   1.00
O416   O     0.83334   0.46177   0.31608   0.00000  Uiso   1.00
O417   O     0.83334   0.53823   0.31608   0.00000  Uiso   1.00
O418   O     0.83333   0.46177   0.18393   0.00000  Uiso   1.00
Zn419  Zn    0.83333   0.55104   0.25000   0.00000  Uiso   1.00
Zn420  Zn    0.83333   0.44896   0.25000   0.00000  Uiso   1.00
S421   S     0.74658   0.48873   0.38239   0.00000  Uiso   1.00
O422   O     0.72476   0.53167   0.36929   0.00000  Uiso   1.00
O423   O     0.75283   0.46001   0.34171   0.00000  Uiso   1.00
O424   O     0.71688   0.45895   0.41805   0.00000  Uiso   1.00
H425   H     0.73358   0.43201   0.42604   0.00000  Uiso   1.00
S426   S     0.91979   0.47118   0.11969   0.00000  Uiso   1.00
O427   O     0.94726   0.51057   0.13134   0.00000  Uiso   1.00
O428   O     0.90976   0.44533   0.16159   0.00000  Uiso   1.00
O429   O     0.94610   0.43565   0.08613   0.00000  Uiso   1.00
H430   H     0.92598   0.41154   0.07833   0.00000  Uiso   1.00
S431   S     0.71711   0.54551   0.05358   0.00000  Uiso   1.00
O432   O     0.69786   0.50578   0.07743   0.00000  Uiso   1.00
O433   O     0.72788   0.58133   0.08737   0.00000  Uiso   1.00
O434   O     0.68252   0.56707   0.01733   0.00000  Uiso   1.00
H435   H     0.69542   0.59534   0.00591   0.00000  Uiso   1.00
S436   S     0.95812   0.49075   0.44609   0.00000  Uiso   1.00
O437   O     0.99202   0.48162   0.47924   0.00000  Uiso   1.00
O438   O     0.95458   0.45072   0.41521   0.00000  Uiso   1.00
O439   O     0.96981   0.53772   0.41647   0.00000  Uiso   1.00
H440   H     0.97246   0.52766   0.38499   0.00000  Uiso   1.00
F441   F     0.70733   0.42209   0.27493   0.00000  Uiso   1.00
F442   F     0.95874   0.57563   0.21806   0.00000  Uiso   1.00
F443   F     0.95856   0.42391   0.27944   0.00000  Uiso   1.00
F444   F     0.70819   0.57519   0.21680   0.00000  Uiso   1.00
C445   C     0.08661   0.83323   0.24882   0.00000  Uiso   1.00
C446   C     0.24671   0.83340   0.25019   0.00000  Uiso   1.00
C447   C     0.09582   0.86041   0.02539   0.00000  Uiso   1.00
C448   C     0.24382   0.83224   0.47429   0.00000  Uiso   1.00
C449   C     0.02098   0.79389   0.26185   0.00000  Uiso   1.00
C450   C     0.31214   0.87168   0.23363   0.00000  Uiso   1.00
C451   C     0.31197   0.79449   0.26342   0.00000  Uiso   1.00
C452   C     0.02129   0.87143   0.23290   0.00000  Uiso   1.00
C453   C     0.29082   0.83337   0.24939   0.00000  Uiso   1.00
C454   C     0.04244   0.83281   0.24771   0.00000  Uiso   1.00
C455   C     0.19272   0.69066   0.27741   0.00000  Uiso   1.00
C456   C     0.14062   0.97601   0.22258   0.00000  Uiso   1.00
C457   C     0.14061   0.69067   0.22259   0.00000  Uiso   1.00
C458   C     0.19273   0.97600   0.27740   0.00000  Uiso   1.00
C459   C     0.16911   0.83338   0.16356   0.00000  Uiso   1.00
C460   C     0.16562   0.83329   0.33654   0.00000  Uiso   1.00
C461   C     0.20330   0.83448   0.40548   0.00000  Uiso   1.00
C462   C     0.13444   0.84651   0.09426   0.00000  Uiso   1.00
C463   C     0.16516   0.83349   0.38435   0.00000  Uiso   1.00
C464   C     0.17072   0.83394   0.11578   0.00000  Uiso   1.00
C465   C     0.12791   0.83574   0.40839   0.00000  Uiso   1.00
C466   C     0.20774   0.82581   0.09220   0.00000  Uiso   1.00
C467   C     0.12990   0.84436   0.45451   0.00000  Uiso   1.00
C468   C     0.20762   0.83343   0.04570   0.00000  Uiso   1.00
C469   C     0.16851   0.84126   0.47658   0.00000  Uiso   1.00
C470   C     0.16972   0.84179   0.02344   0.00000  Uiso   1.00
C471   C     0.20560   0.83570   0.45189   0.00000  Uiso   1.00
C472   C     0.13295   0.84971   0.04795   0.00000  Uiso   1.00
C473   C     0.09450   0.85631   0.47902   0.00000  Uiso   1.00
C474   C     0.24435   0.83266   0.02076   0.00000  Uiso   1.00
H475   H     0.23086   0.83339   0.38495   0.00000  Uiso   1.00
H476   H     0.10707   0.85192   0.11444   0.00000  Uiso   1.00
H477   H     0.06577   0.86355   0.46207   0.00000  Uiso   1.00
H478   H     0.27396   0.83264   0.03726   0.00000  Uiso   1.00
H479   H     0.21352   0.70888   0.29932   0.00000  Uiso   1.00
H480   H     0.11984   0.95780   0.20065   0.00000  Uiso   1.00
H481   H     0.11979   0.70889   0.20070   0.00000  Uiso   1.00
H482   H     0.21355   0.95779   0.29929   0.00000  Uiso   1.00
N483   N     0.16667   0.95240   0.25000   0.00000  Uiso   1.00
N484   N     0.16667   0.71427   0.25000   0.00000  Uiso   1.00
O485   O     0.10559   0.87154   0.25000   0.00000  Uiso   1.00
O486   O     0.22774   0.79513   0.25001   0.00000  Uiso   1.00
O487   O     0.22774   0.87154   0.25001   0.00000  Uiso   1.00
O488   O     0.10559   0.79513   0.25000   0.00000  Uiso   1.00
O489   O     0.16666   0.87156   0.18393   0.00000  Uiso   1.00
O490   O     0.16667   0.79511   0.31608   0.00000  Uiso   1.00
O491   O     0.16667   0.87156   0.31608   0.00000  Uiso   1.00
O492   O     0.16666   0.79511   0.18393   0.00000  Uiso   1.00
Zn493  Zn    0.16667   0.88437   0.25000   0.00000  Uiso   1.00
Zn494  Zn    0.16667   0.78229   0.25000   0.00000  Uiso   1.00
S495   S     0.07992   0.82207   0.38239   0.00000  Uiso   1.00
O496   O     0.05809   0.86500   0.36929   0.00000  Uiso   1.00
O497   O     0.08617   0.79334   0.34171   0.00000  Uiso   1.00
O498   O     0.05021   0.79229   0.41805   0.00000  Uiso   1.00
H499   H     0.06691   0.76535   0.42604   0.00000  Uiso   1.00
S500   S     0.25313   0.80451   0.11969   0.00000  Uiso   1.00
O501   O     0.28059   0.84390   0.13134   0.00000  Uiso   1.00
O502   O     0.24309   0.77867   0.16159   0.00000  Uiso   1.00
O503   O     0.27943   0.76899   0.08613   0.00000  Uiso   1.00
H504   H     0.25932   0.74488   0.07833   0.00000  Uiso   1.00
S505   S     0.05045   0.87884   0.05358   0.00000  Uiso   1.00
O506   O     0.03119   0.83912   0.07743   0.00000  Uiso   1.00
O507   O     0.06121   0.91466   0.08737   0.00000  Uiso   1.00
O508   O     0.01586   0.90040   0.01733   0.00000  Uiso   1.00
H509   H     0.02875   0.92867   0.00591   0.00000  Uiso   1.00
S510   S     0.29145   0.82408   0.44609   0.00000  Uiso   1.00
O511   O     0.32535   0.81495   0.47924   0.00000  Uiso   1.00
O512   O     0.28791   0.78405   0.41521   0.00000  Uiso   1.00
O513   O     0.30315   0.87105   0.41647   0.00000  Uiso   1.00
H514   H     0.30579   0.86099   0.38499   0.00000  Uiso   1.00
F515   F     0.04066   0.75542   0.27493   0.00000  Uiso   1.00
F516   F     0.29208   0.90896   0.21806   0.00000  Uiso   1.00
F517   F     0.29190   0.75725   0.27944   0.00000  Uiso   1.00
F518   F     0.04152   0.90852   0.21680   0.00000  Uiso   1.00
C519   C     0.41995   0.83323   0.24882   0.00000  Uiso   1.00
C520   C     0.58004   0.83340   0.25019   0.00000  Uiso   1.00
C521   C     0.42916   0.86041   0.02539   0.00000  Uiso   1.00
C522   C     0.57715   0.83224   0.47429   0.00000  Uiso   1.00
C523   C     0.35432   0.79389   0.26185   0.00000  Uiso   1.00
C524   C     0.64548   0.87168   0.23363   0.00000  Uiso   1.00
C525   C     0.64530   0.79449   0.26342   0.00000  Uiso   1.00
C526   C     0.35463   0.87143   0.23290   0.00000  Uiso   1.00
C527   C     0.62415   0.83337   0.24939   0.00000  Uiso   1.00
C528   C     0.37578   0.83281   0.24771   0.00000  Uiso   1.00
C529   C     0.52605   0.69066   0.27741   0.00000  Uiso   1.00
C530   C     0.47396   0.97601   0.22258   0.00000  Uiso   1.00
C531   C     0.47394   0.69067   0.22259   0.00000  Uiso   1.00
C532   C     0.52606   0.97600   0.27740   0.00000  Uiso   1.00
C533   C     0.50244   0.83338   0.16356   0.00000  Uiso   1.00
C534   C     0.49896   0.83329   0.33654   0.00000  Uiso   1.00
C535   C     0.53663   0.83448   0.40548   0.00000  Uiso   1.00
C536   C     0.46777   0.84651   0.09426   0.00000  Uiso   1.00
C537   C     0.49849   0.83349   0.38435   0.00000  Uiso   1.00
C538   C     0.50406   0.83394   0.11578   0.00000  Uiso   1.00
C539   C     0.46124   0.83574   0.40839   0.00000  Uiso   1.00
C540   C     0.54107   0.82581   0.09220   0.00000  Uiso   1.00
C541   C     0.46323   0.84436   0.45451   0.00000  Uiso   1.00
C542   C     0.54095   0.83343   0.04570   0.00000  Uiso   1.00
C543   C     0.50184   0.84126   0.47658   0.00000  Uiso   1.00
C544   C     0.50305   0.84179   0.02344   0.00000  Uiso   1.00
C545   C     0.53893   0.83570   0.45189   0.00000  Uiso   1.00
C546   C     0.46628   0.84971   0.04795   0.00000  Uiso   1.00
C547   C     0.42783   0.85631   0.47902   0.00000  Uiso   1.00
C548   C     0.57768   0.83266   0.02076   0.00000  Uiso   1.00
H549   H     0.56420   0.83339   0.38495   0.00000  Uiso   1.00
H550   H     0.44040   0.85192   0.11444   0.00000  Uiso   1.00
H551   H     0.39910   0.86355   0.46207   0.00000  Uiso   1.00
H552   H     0.60730   0.83264   0.03726   0.00000  Uiso   1.00
H553   H     0.54685   0.70888   0.29932   0.00000  Uiso   1.00
H554   H     0.45317   0.95780   0.20065   0.00000  Uiso   1.00
H555   H     0.45312   0.70889   0.20070   0.00000  Uiso   1.00
H556   H     0.54689   0.95779   0.29929   0.00000  Uiso   1.00
N557   N     0.50000   0.95240   0.25000   0.00000  Uiso   1.00
N558   N     0.50000   0.71427   0.25000   0.00000  Uiso   1.00
O559   O     0.43892   0.87154   0.25000   0.00000  Uiso   1.00
O560   O     0.56108   0.79513   0.25001   0.00000  Uiso   1.00
O561   O     0.56108   0.87154   0.25001   0.00000  Uiso   1.00
O562   O     0.43892   0.79513   0.25000   0.00000  Uiso   1.00
O563   O     0.49999   0.87156   0.18393   0.00000  Uiso   1.00
O564   O     0.50001   0.79511   0.31608   0.00000  Uiso   1.00
O565   O     0.50001   0.87156   0.31608   0.00000  Uiso   1.00
O566   O     0.49999   0.79511   0.18393   0.00000  Uiso   1.00
Zn567  Zn    0.50000   0.88437   0.25000   0.00000  Uiso   1.00
Zn568  Zn    0.50000   0.78229   0.25000   0.00000  Uiso   1.00
S569   S     0.41325   0.82207   0.38239   0.00000  Uiso   1.00
O570   O     0.39143   0.86500   0.36929   0.00000  Uiso   1.00
O571   O     0.41950   0.79334   0.34171   0.00000  Uiso   1.00
O572   O     0.38354   0.79229   0.41805   0.00000  Uiso   1.00
H573   H     0.40025   0.76535   0.42604   0.00000  Uiso   1.00
S574   S     0.58646   0.80451   0.11969   0.00000  Uiso   1.00
O575   O     0.61393   0.84390   0.13134   0.00000  Uiso   1.00
O576   O     0.57643   0.77867   0.16159   0.00000  Uiso   1.00
O577   O     0.61276   0.76899   0.08613   0.00000  Uiso   1.00
H578   H     0.59265   0.74488   0.07833   0.00000  Uiso   1.00
S579   S     0.38378   0.87884   0.05358   0.00000  Uiso   1.00
O580   O     0.36453   0.83912   0.07743   0.00000  Uiso   1.00
O581   O     0.39454   0.91466   0.08737   0.00000  Uiso   1.00
O582   O     0.34919   0.90040   0.01733   0.00000  Uiso   1.00
H583   H     0.36209   0.92867   0.00591   0.00000  Uiso   1.00
S584   S     0.62479   0.82408   0.44609   0.00000  Uiso   1.00
O585   O     0.65868   0.81495   0.47924   0.00000  Uiso   1.00
O586   O     0.62124   0.78405   0.41521   0.00000  Uiso   1.00
O587   O     0.63648   0.87105   0.41647   0.00000  Uiso   1.00
H588   H     0.63913   0.86099   0.38499   0.00000  Uiso   1.00
F589   F     0.37399   0.75542   0.27493   0.00000  Uiso   1.00
F590   F     0.62541   0.90896   0.21806   0.00000  Uiso   1.00
F591   F     0.62523   0.75725   0.27944   0.00000  Uiso   1.00
F592   F     0.37486   0.90852   0.21680   0.00000  Uiso   1.00
C593   C     0.75328   0.83323   0.24882   0.00000  Uiso   1.00
C594   C     0.91338   0.83340   0.25019   0.00000  Uiso   1.00
C595   C     0.76249   0.86041   0.02539   0.00000  Uiso   1.00
C596   C     0.91048   0.83224   0.47429   0.00000  Uiso   1.00
C597   C     0.68765   0.79389   0.26185   0.00000  Uiso   1.00
C598   C     0.97881   0.87168   0.23363   0.00000  Uiso   1.00
C599   C     0.97864   0.79449   0.26342   0.00000  Uiso   1.00
C600   C     0.68796   0.87143   0.23290   0.00000  Uiso   1.00
C601   C     0.95748   0.83337   0.24939   0.00000  Uiso   1.00
C602   C     0.70911   0.83281   0.24771   0.00000  Uiso   1.00
C603   C     0.85939   0.69066   0.27741   0.00000  Uiso   1.00
C604   C     0.80729   0.97601   0.22258   0.00000  Uiso   1.00
C605   C     0.80728   0.69067   0.22259   0.00000  Uiso   1.00
C606   C     0.85940   0.97600   0.27740   0.00000  Uiso   1.00
C607   C     0.83577   0.83338   0.16356   0.00000  Uiso   1.00
C608   C     0.83229   0.83329   0.33654   0.00000  Uiso   1.00
C609   C     0.86996   0.83448   0.40548   0.00000  Uiso   1.00
C610   C     0.80110   0.84651   0.09426   0.00000  Uiso   1.00
C611   C     0.83183   0.83349   0.38435   0.00000  Uiso   1.00
C612   C     0.83739   0.83394   0.11578   0.00000  Uiso   1.00
C613   C     0.79457   0.83574   0.40839   0.00000  Uiso   1.00
C614   C     0.87440   0.82581   0.09220   0.00000  Uiso   1.00
C615   C     0.79657   0.84436   0.45451   0.00000  Uiso   1.00
C616   C     0.87428   0.83343   0.04570   0.00000  Uiso   1.00
C617   C     0.83518   0.84126   0.47658   0.00000  Uiso   1.00
C618   C     0.83638   0.84179   0.02344   0.00000  Uiso   1.00
C619   C     0.87227   0.83570   0.45189   0.00000  Uiso   1.00
C620   C     0.79961   0.84971   0.04795   0.00000  Uiso   1.00
C621   C     0.76117   0.85631   0.47902   0.00000  Uiso   1.00
C622   C     0.91102   0.83266   0.02076   0.00000  Uiso   1.00
H623   H     0.89753   0.83339   0.38495   0.00000  Uiso   1.00
H624   H     0.77374   0.85192   0.11444   0.00000  Uiso   1.00
H625   H     0.73243   0.86355   0.46207   0.00000  Uiso   1.00
H626   H     0.94063   0.83264   0.03726   0.00000  Uiso   1.00
H627   H     0.88018   0.70888   0.29932   0.00000  Uiso   1.00
H628   H     0.78650   0.95780   0.20065   0.00000  Uiso   1.00
H629   H     0.78646   0.70889   0.20070   0.00000  Uiso   1.00
H630   H     0.88022   0.95779   0.29929   0.00000  Uiso   1.00
N631   N     0.83333   0.95240   0.25000   0.00000  Uiso   1.00
N632   N     0.83333   0.71427   0.25000   0.00000  Uiso   1.00
O633   O     0.77226   0.87154   0.25000   0.00000  Uiso   1.00
O634   O     0.89441   0.79513   0.25001   0.00000  Uiso   1.00
O635   O     0.89441   0.87154   0.25001   0.00000  Uiso   1.00
O636   O     0.77226   0.79513   0.25000   0.00000  Uiso   1.00
O637   O     0.83333   0.87156   0.18393   0.00000  Uiso   1.00
O638   O     0.83334   0.79511   0.31608   0.00000  Uiso   1.00
O639   O     0.83334   0.87156   0.31608   0.00000  Uiso   1.00
O640   O     0.83333   0.79511   0.18393   0.00000  Uiso   1.00
Zn641  Zn    0.83333   0.88437   0.25000   0.00000  Uiso   1.00
Zn642  Zn    0.83333   0.78229   0.25000   0.00000  Uiso   1.00
S643   S     0.74658   0.82207   0.38239   0.00000  Uiso   1.00
O644   O     0.72476   0.86500   0.36929   0.00000  Uiso   1.00
O645   O     0.75283   0.79334   0.34171   0.00000  Uiso   1.00
O646   O     0.71688   0.79229   0.41805   0.00000  Uiso   1.00
H647   H     0.73358   0.76535   0.42604   0.00000  Uiso   1.00
S648   S     0.91979   0.80451   0.11969   0.00000  Uiso   1.00
O649   O     0.94726   0.84390   0.13134   0.00000  Uiso   1.00
O650   O     0.90976   0.77867   0.16159   0.00000  Uiso   1.00
O651   O     0.94610   0.76899   0.08613   0.00000  Uiso   1.00
H652   H     0.92598   0.74488   0.07833   0.00000  Uiso   1.00
S653   S     0.71711   0.87884   0.05358   0.00000  Uiso   1.00
O654   O     0.69786   0.83912   0.07743   0.00000  Uiso   1.00
O655   O     0.72788   0.91466   0.08737   0.00000  Uiso   1.00
O656   O     0.68252   0.90040   0.01733   0.00000  Uiso   1.00
H657   H     0.69542   0.92867   0.00591   0.00000  Uiso   1.00
S658   S     0.95812   0.82408   0.44609   0.00000  Uiso   1.00
O659   O     0.99202   0.81495   0.47924   0.00000  Uiso   1.00
O660   O     0.95458   0.78405   0.41521   0.00000  Uiso   1.00
O661   O     0.96981   0.87105   0.41647   0.00000  Uiso   1.00
H662   H     0.97246   0.86099   0.38499   0.00000  Uiso   1.00
F663   F     0.70733   0.75542   0.27493   0.00000  Uiso   1.00
F664   F     0.95874   0.90896   0.21806   0.00000  Uiso   1.00
F665   F     0.95856   0.75725   0.27944   0.00000  Uiso   1.00
F666   F     0.70819   0.90852   0.21680   0.00000  Uiso   1.00
C667   C     0.08661   0.16656   0.74882   0.00000  Uiso   1.00
C668   C     0.24671   0.16673   0.75019   0.00000  Uiso   1.00
C669   C     0.09582   0.19375   0.52539   0.00000  Uiso   1.00
C670   C     0.24382   0.16557   0.97429   0.00000  Uiso   1.00
C671   C     0.02098   0.12723   0.76185   0.00000  Uiso   1.00
C672   C     0.31214   0.20502   0.73363   0.00000  Uiso   1.00
C673   C     0.31197   0.12782   0.76342   0.00000  Uiso   1.00
C674   C     0.02129   0.20477   0.73290   0.00000  Uiso   1.00
C675   C     0.29082   0.16671   0.74939   0.00000  Uiso   1.00
C676   C     0.04244   0.16614   0.74771   0.00000  Uiso   1.00
C677   C     0.19272   0.02400   0.77741   0.00000  Uiso   1.00
C678   C     0.14062   0.30934   0.72258   0.00000  Uiso   1.00
C679   C     0.14061   0.02400   0.72259   0.00000  Uiso   1.00
C680   C     0.19273   0.30934   0.77740   0.00000  Uiso   1.00
C681   C     0.16911   0.16671   0.66356   0.00000  Uiso   1.00
C682   C     0.16562   0.16662   0.83654   0.00000  Uiso   1.00
C683   C     0.20330   0.16781   0.90548   0.00000  Uiso   1.00
C684   C     0.13444   0.17985   0.59426   0.00000  Uiso   1.00
C685   C     0.16516   0.16682   0.88435   0.00000  Uiso   1.00
C686   C     0.17072   0.16727   0.61578   0.00000  Uiso   1.00
C687   C     0.12791   0.16907   0.90839   0.00000  Uiso   1.00
C688   C     0.20774   0.15914   0.59220   0.00000  Uiso   1.00
C689   C     0.12990   0.17769   0.95451   0.00000  Uiso   1.00
C690   C     0.20762   0.16677   0.54570   0.00000  Uiso   1.00
C691   C     0.16851   0.17460   0.97658   0.00000  Uiso   1.00
C692   C     0.16972   0.17512   0.52344   0.00000  Uiso   1.00
C693   C     0.20560   0.16904   0.95189   0.00000  Uiso   1.00
C694   C     0.13295   0.18304   0.54795   0.00000  Uiso   1.00
C695   C     0.09450   0.18964   0.97902   0.00000  Uiso   1.00
C696   C     0.24435   0.16599   0.52076   0.00000  Uiso   1.00
H697   H     0.23086   0.16673   0.88495   0.00000  Uiso   1.00
H698   H     0.10707   0.18525   0.61444   0.00000  Uiso   1.00
H699   H     0.06577   0.19688   0.96207   0.00000  Uiso   1.00
H700   H     0.27396   0.16597   0.53726   0.00000  Uiso   1.00
H701   H     0.21352   0.04221   0.79932   0.00000  Uiso   1.00
H702   H     0.11984   0.29113   0.70065   0.00000  Uiso   1.00
H703   H     0.11979   0.04222   0.70070   0.00000  Uiso   1.00
H704   H     0.21355   0.29112   0.79929   0.00000  Uiso   1.00
N705   N     0.16667   0.28573   0.75000   0.00000  Uiso   1.00
N706   N     0.16667   0.04760   0.75000   0.00000  Uiso   1.00
O707   O     0.10559   0.20487   0.75000   0.00000  Uiso   1.00
O708   O     0.22774   0.12846   0.75001   0.00000  Uiso   1.00
O709   O     0.22774   0.20487   0.75001   0.00000  Uiso   1.00
O710   O     0.10559   0.12846   0.75000   0.00000  Uiso   1.00
O711   O     0.16666   0.20489   0.68393   0.00000  Uiso   1.00
O712   O     0.16667   0.12844   0.81608   0.00000  Uiso   1.00
O713   O     0.16667   0.20489   0.81608   0.00000  Uiso   1.00
O714   O     0.16666   0.12844   0.68393   0.00000  Uiso   1.00
Zn715  Zn    0.16667   0.21771   0.75000   0.00000  Uiso   1.00
Zn716  Zn    0.16667   0.11563   0.75000   0.00000  Uiso   1.00
S717   S     0.07992   0.15540   0.88239   0.00000  Uiso   1.00
O718   O     0.05809   0.19833   0.86929   0.00000  Uiso   1.00
O719   O     0.08617   0.12667   0.84171   0.00000  Uiso   1.00
O720   O     0.05021   0.12562   0.91805   0.00000  Uiso   1.00
H721   H     0.06691   0.09868   0.92604   0.00000  Uiso   1.00
S722   S     0.25313   0.13784   0.61969   0.00000  Uiso   1.00
O723   O     0.28059   0.17724   0.63134   0.00000  Uiso   1.00
O724   O     0.24309   0.11200   0.66159   0.00000  Uiso   1.00
O725   O     0.27943   0.10232   0.58613   0.00000  Uiso   1.00
H726   H     0.25932   0.07821   0.57833   0.00000  Uiso   1.00
S727   S     0.05045   0.21218   0.55358   0.00000  Uiso   1.00
O728   O     0.03119   0.17245   0.57743   0.00000  Uiso   1.00
O729   O     0.06121   0.24800   0.58737   0.00000  Uiso   1.00
O730   O     0.01586   0.23374   0.51733   0.00000  Uiso   1.00
H731   H     0.02875   0.26201   0.50591   0.00000  Uiso   1.00
S732   S     0.29145   0.15742   0.94609   0.00000  Uiso   1.00
O733   O     0.32535   0.14829   0.97924   0.00000  Uiso   1.00
O734   O     0.28791   0.11738   0.91521   0.00000  Uiso   1.00
O735   O     0.30315   0.20439   0.91647   0.00000  Uiso   1.00
H736   H     0.30579   0.19432   0.88499   0.00000  Uiso   1.00
F737   F     0.04066   0.08875   0.77493   0.00000  Uiso   1.00
F738   F     0.29208   0.24230   0.71806   0.00000  Uiso   1.00
F739   F     0.29190   0.09058   0.77944   0.00000  Uiso   1.00
F740   F     0.04152   0.24186   0.71680   0.00000  Uiso   1.00
C741   C     0.41995   0.16656   0.74882   0.00000  Uiso   1.00
C742   C     0.58004   0.16673   0.75019   0.00000  Uiso   1.00
C743   C     0.42916   0.19375   0.52539   0.00000  Uiso   1.00
C744   C     0.57715   0.16557   0.97429   0.00000  Uiso   1.00
C745   C     0.35432   0.12723   0.76185   0.00000  Uiso   1.00
C746   C     0.64548   0.20502   0.73363   0.00000  Uiso   1.00
C747   C     0.64530   0.12782   0.76342   0.00000  Uiso   1.00
C748   C     0.35463   0.20477   0.73290   0.00000  Uiso   1.00
C749   C     0.62415   0.16671   0.74939   0.00000  Uiso   1.00
C750   C     0.37578   0.16614   0.74771   0.00000  Uiso   1.00
C751   C     0.52605   0.02400   0.77741   0.00000  Uiso   1.00
C752   C     0.47396   0.30934   0.72258   0.00000  Uiso   1.00
C753   C     0.47394   0.02400   0.72259   0.00000  Uiso   1.00
C754   C     0.52606   0.30934   0.77740   0.00000  Uiso   1.00
C755   C     0.50244   0.16671   0.66356   0.00000  Uiso   1.00
C756   C     0.49896   0.16662   0.83654   0.00000  Uiso   1.00
C757   C     0.53663   0.16781   0.90548   0.00000  Uiso   1.00
C758   C     0.46777   0.17985   0.59426   0.00000  Uiso   1.00
C759   C     0.49849   0.16682   0.88435   0.00000  Uiso   1.00
C760   C     0.50406   0.16727   0.61578   0.00000  Uiso   1.00
C761   C     0.46124   0.16907   0.90839   0.00000  Uiso   1.00
C762   C     0.54107   0.15914   0.59220   0.00000  Uiso   1.00
C763   C     0.46323   0.17769   0.95451   0.00000  Uiso   1.00
C764   C     0.54095   0.16677   0.54570   0.00000  Uiso   1.00
C765   C     0.50184   0.17460   0.97658   0.00000  Uiso   1.00
C766   C     0.50305   0.17512   0.52344   0.00000  Uiso   1.00
C767   C     0.53893   0.16904   0.95189   0.00000  Uiso   1.00
C768   C     0.46628   0.18304   0.54795   0.00000  Uiso   1.00
C769   C     0.42783   0.18964   0.97902   0.00000  Uiso   1.00
C770   C     0.57768   0.16599   0.52076   0.00000  Uiso   1.00
H771   H     0.56420   0.16673   0.88495   0.00000  Uiso   1.00
H772   H     0.44040   0.18525   0.61444   0.00000  Uiso   1.00
H773   H     0.39910   0.19688   0.96207   0.00000  Uiso   1.00
H774   H     0.60730   0.16597   0.53726   0.00000  Uiso   1.00
H775   H     0.54685   0.04221   0.79932   0.00000  Uiso   1.00
H776   H     0.45317   0.29113   0.70065   0.00000  Uiso   1.00
H777   H     0.45312   0.04222   0.70070   0.00000  Uiso   1.00
H778   H     0.54689   0.29112   0.79929   0.00000  Uiso   1.00
N779   N     0.50000   0.28573   0.75000   0.00000  Uiso   1.00
N780   N     0.50000   0.04760   0.75000   0.00000  Uiso   1.00
O781   O     0.43892   0.20487   0.75000   0.00000  Uiso   1.00
O782   O     0.56108   0.12846   0.75001   0.00000  Uiso   1.00
O783   O     0.56108   0.20487   0.75001   0.00000  Uiso   1.00
O784   O     0.43892   0.12846   0.75000   0.00000  Uiso   1.00
O785   O     0.49999   0.20489   0.68393   0.00000  Uiso   1.00
O786   O     0.50001   0.12844   0.81608   0.00000  Uiso   1.00
O787   O     0.50001   0.20489   0.81608   0.00000  Uiso   1.00
O788   O     0.49999   0.12844   0.68393   0.00000  Uiso   1.00
Zn789  Zn    0.50000   0.21771   0.75000   0.00000  Uiso   1.00
Zn790  Zn    0.50000   0.11563   0.75000   0.00000  Uiso   1.00
S791   S     0.41325   0.15540   0.88239   0.00000  Uiso   1.00
O792   O     0.39143   0.19833   0.86929   0.00000  Uiso   1.00
O793   O     0.41950   0.12667   0.84171   0.00000  Uiso   1.00
O794   O     0.38354   0.12562   0.91805   0.00000  Uiso   1.00
H795   H     0.40025   0.09868   0.92604   0.00000  Uiso   1.00
S796   S     0.58646   0.13784   0.61969   0.00000  Uiso   1.00
O797   O     0.61393   0.17724   0.63134   0.00000  Uiso   1.00
O798   O     0.57643   0.11200   0.66159   0.00000  Uiso   1.00
O799   O     0.61276   0.10232   0.58613   0.00000  Uiso   1.00
H800   H     0.59265   0.07821   0.57833   0.00000  Uiso   1.00
S801   S     0.38378   0.21218   0.55358   0.00000  Uiso   1.00
O802   O     0.36453   0.17245   0.57743   0.00000  Uiso   1.00
O803   O     0.39454   0.24800   0.58737   0.00000  Uiso   1.00
O804   O     0.34919   0.23374   0.51733   0.00000  Uiso   1.00
H805   H     0.36209   0.26201   0.50591   0.00000  Uiso   1.00
S806   S     0.62479   0.15742   0.94609   0.00000  Uiso   1.00
O807   O     0.65868   0.14829   0.97924   0.00000  Uiso   1.00
O808   O     0.62124   0.11738   0.91521   0.00000  Uiso   1.00
O809   O     0.63648   0.20439   0.91647   0.00000  Uiso   1.00
H810   H     0.63913   0.19432   0.88499   0.00000  Uiso   1.00
F811   F     0.37399   0.08875   0.77493   0.00000  Uiso   1.00
F812   F     0.62541   0.24230   0.71806   0.00000  Uiso   1.00
F813   F     0.62523   0.09058   0.77944   0.00000  Uiso   1.00
F814   F     0.37486   0.24186   0.71680   0.00000  Uiso   1.00
C815   C     0.75328   0.16656   0.74882   0.00000  Uiso   1.00
C816   C     0.91338   0.16673   0.75019   0.00000  Uiso   1.00
C817   C     0.76249   0.19375   0.52539   0.00000  Uiso   1.00
C818   C     0.91048   0.16557   0.97429   0.00000  Uiso   1.00
C819   C     0.68765   0.12723   0.76185   0.00000  Uiso   1.00
C820   C     0.97881   0.20502   0.73363   0.00000  Uiso   1.00
C821   C     0.97864   0.12782   0.76342   0.00000  Uiso   1.00
C822   C     0.68796   0.20477   0.73290   0.00000  Uiso   1.00
C823   C     0.95748   0.16671   0.74939   0.00000  Uiso   1.00
C824   C     0.70911   0.16614   0.74771   0.00000  Uiso   1.00
C825   C     0.85939   0.02400   0.77741   0.00000  Uiso   1.00
C826   C     0.80729   0.30934   0.72258   0.00000  Uiso   1.00
C827   C     0.80728   0.02400   0.72259   0.00000  Uiso   1.00
C828   C     0.85940   0.30934   0.77740   0.00000  Uiso   1.00
C829   C     0.83577   0.16671   0.66356   0.00000  Uiso   1.00
C830   C     0.83229   0.16662   0.83654   0.00000  Uiso   1.00
C831   C     0.86996   0.16781   0.90548   0.00000  Uiso   1.00
C832   C     0.80110   0.17985   0.59426   0.00000  Uiso   1.00
C833   C     0.83183   0.16682   0.88435   0.00000  Uiso   1.00
C834   C     0.83739   0.16727   0.61578   0.00000  Uiso   1.00
C835   C     0.79457   0.16907   0.90839   0.00000  Uiso   1.00
C836   C     0.87440   0.15914   0.59220   0.00000  Uiso   1.00
C837   C     0.79657   0.17769   0.95451   0.00000  Uiso   1.00
C838   C     0.87428   0.16677   0.54570   0.00000  Uiso   1.00
C839   C     0.83518   0.17460   0.97658   0.00000  Uiso   1.00
C840   C     0.83638   0.17512   0.52344   0.00000  Uiso   1.00
C841   C     0.87227   0.16904   0.95189   0.00000  Uiso   1.00
C842   C     0.79961   0.18304   0.54795   0.00000  Uiso   1.00
C843   C     0.76117   0.18964   0.97902   0.00000  Uiso   1.00
C844   C     0.91102   0.16599   0.52076   0.00000  Uiso   1.00
H845   H     0.89753   0.16673   0.88495   0.00000  Uiso   1.00
H846   H     0.77374   0.18525   0.61444   0.00000  Uiso   1.00
H847   H     0.73243   0.19688   0.96207   0.00000  Uiso   1.00
H848   H     0.94063   0.16597   0.53726   0.00000  Uiso   1.00
H849   H     0.88018   0.04221   0.79932   0.00000  Uiso   1.00
H850   H     0.78650   0.29113   0.70065   0.00000  Uiso   1.00
H851   H     0.78646   0.04222   0.70070   0.00000  Uiso   1.00
H852   H     0.88022   0.29112   0.79929   0.00000  Uiso   1.00
N853   N     0.83333   0.28573   0.75000   0.00000  Uiso   1.00
N854   N     0.83333   0.04760   0.75000   0.00000  Uiso   1.00
O855   O     0.77226   0.20487   0.75000   0.00000  Uiso   1.00
O856   O     0.89441   0.12846   0.75001   0.00000  Uiso   1.00
O857   O     0.89441   0.20487   0.75001   0.00000  Uiso   1.00
O858   O     0.77226   0.12846   0.75000   0.00000  Uiso   1.00
O859   O     0.83333   0.20489   0.68393   0.00000  Uiso   1.00
O860   O     0.83334   0.12844   0.81608   0.00000  Uiso   1.00
O861   O     0.83334   0.20489   0.81608   0.00000  Uiso   1.00
O862   O     0.83333   0.12844   0.68393   0.00000  Uiso   1.00
Zn863  Zn    0.83333   0.21771   0.75000   0.00000  Uiso   1.00
Zn864  Zn    0.83333   0.11563   0.75000   0.00000  Uiso   1.00
S865   S     0.74658   0.15540   0.88239   0.00000  Uiso   1.00
O866   O     0.72476   0.19833   0.86929   0.00000  Uiso   1.00
O867   O     0.75283   0.12667   0.84171   0.00000  Uiso   1.00
O868   O     0.71688   0.12562   0.91805   0.00000  Uiso   1.00
H869   H     0.73358   0.09868   0.92604   0.00000  Uiso   1.00
S870   S     0.91979   0.13784   0.61969   0.00000  Uiso   1.00
O871   O     0.94726   0.17724   0.63134   0.00000  Uiso   1.00
O872   O     0.90976   0.11200   0.66159   0.00000  Uiso   1.00
O873   O     0.94610   0.10232   0.58613   0.00000  Uiso   1.00
H874   H     0.92598   0.07821   0.57833   0.00000  Uiso   1.00
S875   S     0.71711   0.21218   0.55358   0.00000  Uiso   1.00
O876   O     0.69786   0.17245   0.57743   0.00000  Uiso   1.00
O877   O     0.72788   0.24800   0.58737   0.00000  Uiso   1.00
O878   O     0.68252   0.23374   0.51733   0.00000  Uiso   1.00
H879   H     0.69542   0.26201   0.50591   0.00000  Uiso   1.00
S880   S     0.95812   0.15742   0.94609   0.00000  Uiso   1.00
O881   O     0.99202   0.14829   0.97924   0.00000  Uiso   1.00
O882   O     0.95458   0.11738   0.91521   0.00000  Uiso   1.00
O883   O     0.96981   0.20439   0.91647   0.00000  Uiso   1.00
H884   H     0.97246   0.19432   0.88499   0.00000  Uiso   1.00
F885   F     0.70733   0.08875   0.77493   0.00000  Uiso   1.00
F886   F     0.95874   0.24230   0.71806   0.00000  Uiso   1.00
F887   F     0.95856   0.09058   0.77944   0.00000  Uiso   1.00
F888   F     0.70819   0.24186   0.71680   0.00000  Uiso   1.00
C889   C     0.08661   0.49989   0.74882   0.00000  Uiso   1.00
C890   C     0.24671   0.50007   0.75019   0.00000  Uiso   1.00
C891   C     0.09582   0.52708   0.52539   0.00000  Uiso   1.00
C892   C     0.24382   0.49890   0.97429   0.00000  Uiso   1.00
C893   C     0.02098   0.46056   0.76185   0.00000  Uiso   1.00
C894   C     0.31214   0.53835   0.73363   0.00000  Uiso   1.00
C895   C     0.31197   0.46116   0.76342   0.00000  Uiso   1.00
C896   C     0.02129   0.53810   0.73290   0.00000  Uiso   1.00
C897   C     0.29082   0.50004   0.74939   0.00000  Uiso   1.00
C898   C     0.04244   0.49947   0.74771   0.00000  Uiso   1.00
C899   C     0.19272   0.35733   0.77741   0.00000  Uiso   1.00
C900   C     0.14062   0.64267   0.72258   0.00000  Uiso   1.00
C901   C     0.14061   0.35733   0.72259   0.00000  Uiso   1.00
C902   C     0.19273   0.64267   0.77740   0.00000  Uiso   1.00
C903   C     0.16911   0.50005   0.66356   0.00000  Uiso   1.00
C904   C     0.16562   0.49995   0.83654   0.00000  Uiso   1.00
C905   C     0.20330   0.50114   0.90548   0.00000  Uiso   1.00
C906   C     0.13444   0.51318   0.59426   0.00000  Uiso   1.00
C907   C     0.16516   0.50015   0.88435   0.00000  Uiso   1.00
C908   C     0.17072   0.50061   0.61578   0.00000  Uiso   1.00
C909   C     0.12791   0.50240   0.90839   0.00000  Uiso   1.00
C910   C     0.20774   0.49247   0.59220   0.00000  Uiso   1.00
C911   C     0.12990   0.51102   0.95451   0.00000  Uiso   1.00
C912   C     0.20762   0.50010   0.54570   0.00000  Uiso   1.00
C913   C     0.16851   0.50793   0.97658   0.00000  Uiso   1.00
C914   C     0.16972   0.50846   0.52344   0.00000  Uiso   1.00
C915   C     0.20560   0.50237   0.95189   0.00000  Uiso   1.00
C916   C     0.13295   0.51637   0.54795   0.00000  Uiso   1.00
C917   C     0.09450   0.52298   0.97902   0.00000  Uiso   1.00
C918   C     0.24435   0.49933   0.52076   0.00000  Uiso   1.00
H919   H     0.23086   0.50006   0.88495   0.00000  Uiso   1.00
H920   H     0.10707   0.51859   0.61444   0.00000  Uiso   1.00
H921   H     0.06577   0.53022   0.96207   0.00000  Uiso   1.00
H922   H     0.27396   0.49931   0.53726   0.00000  Uiso   1.00
H923   H     0.21352   0.37554   0.79932   0.00000  Uiso   1.00
H924   H     0.11984   0.62446   0.70065   0.00000  Uiso   1.00
H925   H     0.11979   0.37555   0.70070   0.00000  Uiso   1.00
H926   H     0.21355   0.62445   0.79929   0.00000  Uiso   1.00
N927   N     0.16667   0.61907   0.75000   0.00000  Uiso   1.00
N928   N     0.16667   0.38093   0.75000   0.00000  Uiso   1.00
O929   O     0.10559   0.53821   0.75000   0.00000  Uiso   1.00
O930   O     0.22774   0.46179   0.75001   0.00000  Uiso   1.00
O931   O     0.22774   0.53821   0.75001   0.00000  Uiso   1.00
O932   O     0.10559   0.46179   0.75000   0.00000  Uiso   1.00
O933   O     0.16666   0.53823   0.68393   0.00000  Uiso   1.00
O934   O     0.16667   0.46177   0.81608   0.00000  Uiso   1.00
O935   O     0.16667   0.53823   0.81608   0.00000  Uiso   1.00
O936   O     0.16666   0.46177   0.68393   0.00000  Uiso   1.00
Zn937  Zn    0.16667   0.55104   0.75000   0.00000  Uiso   1.00
Zn938  Zn    0.16667   0.44896   0.75000   0.00000  Uiso   1.00
S939   S     0.07992   0.48873   0.88239   0.00000  Uiso   1.00
O940   O     0.05809   0.53167   0.86929   0.00000  Uiso   1.00
O941   O     0.08617   0.46001   0.84171   0.00000  Uiso   1.00
O942   O     0.05021   0.45895   0.91805   0.00000  Uiso   1.00
H943   H     0.06691   0.43201   0.92604   0.00000  Uiso   1.00
S944   S     0.25313   0.47118   0.61969   0.00000  Uiso   1.00
O945   O     0.28059   0.51057   0.63134   0.00000  Uiso   1.00
O946   O     0.24309   0.44533   0.66159   0.00000  Uiso   1.00
O947   O     0.27943   0.43565   0.58613   0.00000  Uiso   1.00
H948   H     0.25932   0.41154   0.57833   0.00000  Uiso   1.00
S949   S     0.05045   0.54551   0.55358   0.00000  Uiso   1.00
O950   O     0.03119   0.50578   0.57743   0.00000  Uiso   1.00
O951   O     0.06121   0.58133   0.58737   0.00000  Uiso   1.00
O952   O     0.01586   0.56707   0.51733   0.00000  Uiso   1.00
H953   H     0.02875   0.59534   0.50591   0.00000  Uiso   1.00
S954   S     0.29145   0.49075   0.94609   0.00000  Uiso   1.00
O955   O     0.32535   0.48162   0.97924   0.00000  Uiso   1.00
O956   O     0.28791   0.45072   0.91521   0.00000  Uiso   1.00
O957   O     0.30315   0.53772   0.91647   0.00000  Uiso   1.00
H958   H     0.30579   0.52766   0.88499   0.00000  Uiso   1.00
F959   F     0.04066   0.42209   0.77493   0.00000  Uiso   1.00
F960   F     0.29208   0.57563   0.71806   0.00000  Uiso   1.00
F961   F     0.29190   0.42391   0.77944   0.00000  Uiso   1.00
F962   F     0.04152   0.57519   0.71680   0.00000  Uiso   1.00
C963   C     0.41995   0.49989   0.74882   0.00000  Uiso   1.00
C964   C     0.58004   0.50007   0.75019   0.00000  Uiso   1.00
C965   C     0.42916   0.52708   0.52539   0.00000  Uiso   1.00
C966   C     0.57715   0.49890   0.97429   0.00000  Uiso   1.00
C967   C     0.35432   0.46056   0.76185   0.00000  Uiso   1.00
C968   C     0.64548   0.53835   0.73363   0.00000  Uiso   1.00
C969   C     0.64530   0.46116   0.76342   0.00000  Uiso   1.00
C970   C     0.35463   0.53810   0.73290   0.00000  Uiso   1.00
C971   C     0.62415   0.50004   0.74939   0.00000  Uiso   1.00
C972   C     0.37578   0.49947   0.74771   0.00000  Uiso   1.00
C973   C     0.52605   0.35733   0.77741   0.00000  Uiso   1.00
C974   C     0.47396   0.64267   0.72258   0.00000  Uiso   1.00
C975   C     0.47394   0.35733   0.72259   0.00000  Uiso   1.00
C976   C     0.52606   0.64267   0.77740   0.00000  Uiso   1.00
C977   C     0.50244   0.50005   0.66356   0.00000  Uiso   1.00
C978   C     0.49896   0.49995   0.83654   0.00000  Uiso   1.00
C979   C     0.53663   0.50114   0.90548   0.00000  Uiso   1.00
C980   C     0.46777   0.51318   0.59426   0.00000  Uiso   1.00
C981   C     0.49849   0.50015   0.88435   0.00000  Uiso   1.00
C982   C     0.50406   0.50061   0.61578   0.00000  Uiso   1.00
C983   C     0.46124   0.50240   0.90839   0.00000  Uiso   1.00
C984   C     0.54107   0.49247   0.59220   0.00000  Uiso   1.00
C985   C     0.46323   0.51102   0.95451   0.00000  Uiso   1.00
C986   C     0.54095   0.50010   0.54570   0.00000  Uiso   1.00
C987   C     0.50184   0.50793   0.97658   0.00000  Uiso   1.00
C988   C     0.50305   0.50846   0.52344   0.00000  Uiso   1.00
C989   C     0.53893   0.50237   0.95189   0.00000  Uiso   1.00
C990   C     0.46628   0.51637   0.54795   0.00000  Uiso   1.00
C991   C     0.42783   0.52298   0.97902   0.00000  Uiso   1.00
C992   C     0.57768   0.49933   0.52076   0.00000  Uiso   1.00
H993   H     0.56420   0.50006   0.88495   0.00000  Uiso   1.00
H994   H     0.44040   0.51859   0.61444   0.00000  Uiso   1.00
H995   H     0.39910   0.53022   0.96207   0.00000  Uiso   1.00
H996   H     0.60730   0.49931   0.53726   0.00000  Uiso   1.00
H997   H     0.54685   0.37554   0.79932   0.00000  Uiso   1.00
H998   H     0.45317   0.62446   0.70065   0.00000  Uiso   1.00
H999   H     0.45312   0.37555   0.70070   0.00000  Uiso   1.00
H1000  H     0.54689   0.62445   0.79929   0.00000  Uiso   1.00
N1001  N     0.50000   0.61907   0.75000   0.00000  Uiso   1.00
N1002  N     0.50000   0.38093   0.75000   0.00000  Uiso   1.00
O1003  O     0.43892   0.53821   0.75000   0.00000  Uiso   1.00
O1004  O     0.56108   0.46179   0.75001   0.00000  Uiso   1.00
O1005  O     0.56108   0.53821   0.75001   0.00000  Uiso   1.00
O1006  O     0.43892   0.46179   0.75000   0.00000  Uiso   1.00
O1007  O     0.49999   0.53823   0.68393   0.00000  Uiso   1.00
O1008  O     0.50001   0.46177   0.81608   0.00000  Uiso   1.00
O1009  O     0.50001   0.53823   0.81608   0.00000  Uiso   1.00
O1010  O     0.49999   0.46177   0.68393   0.00000  Uiso   1.00
Zn1011 Zn    0.50000   0.55104   0.75000   0.00000  Uiso   1.00
Zn1012 Zn    0.50000   0.44896   0.75000   0.00000  Uiso   1.00
S1013  S     0.41325   0.48873   0.88239   0.00000  Uiso   1.00
O1014  O     0.39143   0.53167   0.86929   0.00000  Uiso   1.00
O1015  O     0.41950   0.46001   0.84171   0.00000  Uiso   1.00
O1016  O     0.38354   0.45895   0.91805   0.00000  Uiso   1.00
H1017  H     0.40025   0.43201   0.92604   0.00000  Uiso   1.00
S1018  S     0.58646   0.47118   0.61969   0.00000  Uiso   1.00
O1019  O     0.61393   0.51057   0.63134   0.00000  Uiso   1.00
O1020  O     0.57643   0.44533   0.66159   0.00000  Uiso   1.00
O1021  O     0.61276   0.43565   0.58613   0.00000  Uiso   1.00
H1022  H     0.59265   0.41154   0.57833   0.00000  Uiso   1.00
S1023  S     0.38378   0.54551   0.55358   0.00000  Uiso   1.00
O1024  O     0.36453   0.50578   0.57743   0.00000  Uiso   1.00
O1025  O     0.39454   0.58133   0.58737   0.00000  Uiso   1.00
O1026  O     0.34919   0.56707   0.51733   0.00000  Uiso   1.00
H1027  H     0.36209   0.59534   0.50591   0.00000  Uiso   1.00
S1028  S     0.62479   0.49075   0.94609   0.00000  Uiso   1.00
O1029  O     0.65868   0.48162   0.97924   0.00000  Uiso   1.00
O1030  O     0.62124   0.45072   0.91521   0.00000  Uiso   1.00
O1031  O     0.63648   0.53772   0.91647   0.00000  Uiso   1.00
H1032  H     0.63913   0.52766   0.88499   0.00000  Uiso   1.00
F1033  F     0.37399   0.42209   0.77493   0.00000  Uiso   1.00
F1034  F     0.62541   0.57563   0.71806   0.00000  Uiso   1.00
F1035  F     0.62523   0.42391   0.77944   0.00000  Uiso   1.00
F1036  F     0.37486   0.57519   0.71680   0.00000  Uiso   1.00
C1037  C     0.75328   0.49989   0.74882   0.00000  Uiso   1.00
C1038  C     0.91338   0.50007   0.75019   0.00000  Uiso   1.00
C1039  C     0.76249   0.52708   0.52539   0.00000  Uiso   1.00
C1040  C     0.91048   0.49890   0.97429   0.00000  Uiso   1.00
C1041  C     0.68765   0.46056   0.76185   0.00000  Uiso   1.00
C1042  C     0.97881   0.53835   0.73363   0.00000  Uiso   1.00
C1043  C     0.97864   0.46116   0.76342   0.00000  Uiso   1.00
C1044  C     0.68796   0.53810   0.73290   0.00000  Uiso   1.00
C1045  C     0.95748   0.50004   0.74939   0.00000  Uiso   1.00
C1046  C     0.70911   0.49947   0.74771   0.00000  Uiso   1.00
C1047  C     0.85939   0.35733   0.77741   0.00000  Uiso   1.00
C1048  C     0.80729   0.64267   0.72258   0.00000  Uiso   1.00
C1049  C     0.80728   0.35733   0.72259   0.00000  Uiso   1.00
C1050  C     0.85940   0.64267   0.77740   0.00000  Uiso   1.00
C1051  C     0.83577   0.50005   0.66356   0.00000  Uiso   1.00
C1052  C     0.83229   0.49995   0.83654   0.00000  Uiso   1.00
C1053  C     0.86996   0.50114   0.90548   0.00000  Uiso   1.00
C1054  C     0.80110   0.51318   0.59426   0.00000  Uiso   1.00
C1055  C     0.83183   0.50015   0.88435   0.00000  Uiso   1.00
C1056  C     0.83739   0.50061   0.61578   0.00000  Uiso   1.00
C1057  C     0.79457   0.50240   0.90839   0.00000  Uiso   1.00
C1058  C     0.87440   0.49247   0.59220   0.00000  Uiso   1.00
C1059  C     0.79657   0.51102   0.95451   0.00000  Uiso   1.00
C1060  C     0.87428   0.50010   0.54570   0.00000  Uiso   1.00
C1061  C     0.83518   0.50793   0.97658   0.00000  Uiso   1.00
C1062  C     0.83638   0.50846   0.52344   0.00000  Uiso   1.00
C1063  C     0.87227   0.50237   0.95189   0.00000  Uiso   1.00
C1064  C     0.79961   0.51637   0.54795   0.00000  Uiso   1.00
C1065  C     0.76117   0.52298   0.97902   0.00000  Uiso   1.00
C1066  C     0.91102   0.49933   0.52076   0.00000  Uiso   1.00
H1067  H     0.89753   0.50006   0.88495   0.00000  Uiso   1.00
H1068  H     0.77374   0.51859   0.61444   0.00000  Uiso   1.00
H1069  H     0.73243   0.53022   0.96207   0.00000  Uiso   1.00
H1070  H     0.94063   0.49931   0.53726   0.00000  Uiso   1.00
H1071  H     0.88018   0.37554   0.79932   0.00000  Uiso   1.00
H1072  H     0.78650   0.62446   0.70065   0.00000  Uiso   1.00
H1073  H     0.78646   0.37555   0.70070   0.00000  Uiso   1.00
H1074  H     0.88022   0.62445   0.79929   0.00000  Uiso   1.00
N1075  N     0.83333   0.61907   0.75000   0.00000  Uiso   1.00
N1076  N     0.83333   0.38093   0.75000   0.00000  Uiso   1.00
O1077  O     0.77226   0.53821   0.75000   0.00000  Uiso   1.00
O1078  O     0.89441   0.46179   0.75001   0.00000  Uiso   1.00
O1079  O     0.89441   0.53821   0.75001   0.00000  Uiso   1.00
O1080  O     0.77226   0.46179   0.75000   0.00000  Uiso   1.00
O1081  O     0.83333   0.53823   0.68393   0.00000  Uiso   1.00
O1082  O     0.83334   0.46177   0.81608   0.00000  Uiso   1.00
O1083  O     0.83334   0.53823   0.81608   0.00000  Uiso   1.00
O1084  O     0.83333   0.46177   0.68393   0.00000  Uiso   1.00
Zn1085 Zn    0.83333   0.55104   0.75000   0.00000  Uiso   1.00
Zn1086 Zn    0.83333   0.44896   0.75000   0.00000  Uiso   1.00
S1087  S     0.74658   0.48873   0.88239   0.00000  Uiso   1.00
O1088  O     0.72476   0.53167   0.86929   0.00000  Uiso   1.00
O1089  O     0.75283   0.46001   0.84171   0.00000  Uiso   1.00
O1090  O     0.71688   0.45895   0.91805   0.00000  Uiso   1.00
H1091  H     0.73358   0.43201   0.92604   0.00000  Uiso   1.00
S1092  S     0.91979   0.47118   0.61969   0.00000  Uiso   1.00
O1093  O     0.94726   0.51057   0.63134   0.00000  Uiso   1.00
O1094  O     0.90976   0.44533   0.66159   0.00000  Uiso   1.00
O1095  O     0.94610   0.43565   0.58613   0.00000  Uiso   1.00
H1096  H     0.92598   0.41154   0.57833   0.00000  Uiso   1.00
S1097  S     0.71711   0.54551   0.55358   0.00000  Uiso   1.00
O1098  O     0.69786   0.50578   0.57743   0.00000  Uiso   1.00
O1099  O     0.72788   0.58133   0.58737   0.00000  Uiso   1.00
O1100  O     0.68252   0.56707   0.51733   0.00000  Uiso   1.00
H1101  H     0.69542   0.59534   0.50591   0.00000  Uiso   1.00
S1102  S     0.95812   0.49075   0.94609   0.00000  Uiso   1.00
O1103  O     0.99202   0.48162   0.97924   0.00000  Uiso   1.00
O1104  O     0.95458   0.45072   0.91521   0.00000  Uiso   1.00
O1105  O     0.96981   0.53772   0.91647   0.00000  Uiso   1.00
H1106  H     0.97246   0.52766   0.88499   0.00000  Uiso   1.00
F1107  F     0.70733   0.42209   0.77493   0.00000  Uiso   1.00
F1108  F     0.95874   0.57563   0.71806   0.00000  Uiso   1.00
F1109  F     0.95856   0.42391   0.77944   0.00000  Uiso   1.00
F1110  F     0.70819   0.57519   0.71680   0.00000  Uiso   1.00
C1111  C     0.08661   0.83323   0.74882   0.00000  Uiso   1.00
C1112  C     0.24671   0.83340   0.75019   0.00000  Uiso   1.00
C1113  C     0.09582   0.86041   0.52539   0.00000  Uiso   1.00
C1114  C     0.24382   0.83224   0.97429   0.00000  Uiso   1.00
C1115  C     0.02098   0.79389   0.76185   0.00000  Uiso   1.00
C1116  C     0.31214   0.87168   0.73363   0.00000  Uiso   1.00
C1117  C     0.31197   0.79449   0.76342   0.00000  Uiso   1.00
C1118  C     0.02129   0.87143   0.73290   0.00000  Uiso   1.00
C1119  C     0.29082   0.83337   0.74939   0.00000  Uiso   1.00
C1120  C     0.04244   0.83281   0.74771   0.00000  Uiso   1.00
C1121  C     0.19272   0.69066   0.77741   0.00000  Uiso   1.00
C1122  C     0.14062   0.97601   0.72258   0.00000  Uiso   1.00
C1123  C     0.14061   0.69067   0.72259   0.00000  Uiso   1.00
C1124  C     0.19273   0.97600   0.77740   0.00000  Uiso   1.00
C1125  C     0.16911   0.83338   0.66356   0.00000  Uiso   1.00
C1126  C     0.16562   0.83329   0.83654   0.00000  Uiso   1.00
C1127  C     0.20330   0.83448   0.90548   0.00000  Uiso   1.00
C1128  C     0.13444   0.84651   0.59426   0.00000  Uiso   1.00
C1129  C     0.16516   0.83349   0.88435   0.00000  Uiso   1.00
C1130  C     0.17072   0.83394   0.61578   0.00000  Uiso   1.00
C1131  C     0.12791   0.83574   0.90839   0.00000  Uiso   1.00
C1132  C     0.20774   0.82581   0.59220   0.00000  Uiso   1.00
C1133  C     0.12990   0.84436   0.95451   0.00000  Uiso   1.00
C1134  C     0.20762   0.83343   0.54570   0.00000  Uiso   1.00
C1135  C     0.16851   0.84126   0.97658   0.00000  Uiso   1.00
C1136  C     0.16972   0.84179   0.52344   0.00000  Uiso   1.00
C1137  C     0.20560   0.83570   0.95189   0.00000  Uiso   1.00
C1138  C     0.13295   0.84971   0.54795   0.00000  Uiso   1.00
C1139  C     0.09450   0.85631   0.97902   0.00000  Uiso   1.00
C1140  C     0.24435   0.83266   0.52076   0.00000  Uiso   1.00
H1141  H     0.23086   0.83339   0.88495   0.00000  Uiso   1.00
H1142  H     0.10707   0.85192   0.61444   0.00000  Uiso   1.00
H1143  H     0.06577   0.86355   0.96207   0.00000  Uiso   1.00
H1144  H     0.27396   0.83264   0.53726   0.00000  Uiso   1.00
H1145  H     0.21352   0.70888   0.79932   0.00000  Uiso   1.00
H1146  H     0.11984   0.95780   0.70065   0.00000  Uiso   1.00
H1147  H     0.11979   0.70889   0.70070   0.00000  Uiso   1.00
H1148  H     0.21355   0.95779   0.79929   0.00000  Uiso   1.00
N1149  N     0.16667   0.95240   0.75000   0.00000  Uiso   1.00
N1150  N     0.16667   0.71427   0.75000   0.00000  Uiso   1.00
O1151  O     0.10559   0.87154   0.75000   0.00000  Uiso   1.00
O1152  O     0.22774   0.79513   0.75001   0.00000  Uiso   1.00
O1153  O     0.22774   0.87154   0.75001   0.00000  Uiso   1.00
O1154  O     0.10559   0.79513   0.75000   0.00000  Uiso   1.00
O1155  O     0.16666   0.87156   0.68393   0.00000  Uiso   1.00
O1156  O     0.16667   0.79511   0.81608   0.00000  Uiso   1.00
O1157  O     0.16667   0.87156   0.81608   0.00000  Uiso   1.00
O1158  O     0.16666   0.79511   0.68393   0.00000  Uiso   1.00
Zn1159 Zn    0.16667   0.88437   0.75000   0.00000  Uiso   1.00
Zn1160 Zn    0.16667   0.78229   0.75000   0.00000  Uiso   1.00
S1161  S     0.07992   0.82207   0.88239   0.00000  Uiso   1.00
O1162  O     0.05809   0.86500   0.86929   0.00000  Uiso   1.00
O1163  O     0.08617   0.79334   0.84171   0.00000  Uiso   1.00
O1164  O     0.05021   0.79229   0.91805   0.00000  Uiso   1.00
H1165  H     0.06691   0.76535   0.92604   0.00000  Uiso   1.00
S1166  S     0.25313   0.80451   0.61969   0.00000  Uiso   1.00
O1167  O     0.28059   0.84390   0.63134   0.00000  Uiso   1.00
O1168  O     0.24309   0.77867   0.66159   0.00000  Uiso   1.00
O1169  O     0.27943   0.76899   0.58613   0.00000  Uiso   1.00
H1170  H     0.25932   0.74488   0.57833   0.00000  Uiso   1.00
S1171  S     0.05045   0.87884   0.55358   0.00000  Uiso   1.00
O1172  O     0.03119   0.83912   0.57743   0.00000  Uiso   1.00
O1173  O     0.06121   0.91466   0.58737   0.00000  Uiso   1.00
O1174  O     0.01586   0.90040   0.51733   0.00000  Uiso   1.00
H1175  H     0.02875   0.92867   0.50591   0.00000  Uiso   1.00
S1176  S     0.29145   0.82408   0.94609   0.00000  Uiso   1.00
O1177  O     0.32535   0.81495   0.97924   0.00000  Uiso   1.00
O1178  O     0.28791   0.78405   0.91521   0.00000  Uiso   1.00
O1179  O     0.30315   0.87105   0.91647   0.00000  Uiso   1.00
H1180  H     0.30579   0.86099   0.88499   0.00000  Uiso   1.00
F1181  F     0.04066   0.75542   0.77493   0.00000  Uiso   1.00
F1182  F     0.29208   0.90896   0.71806   0.00000  Uiso   1.00
F1183  F     0.29190   0.75725   0.77944   0.00000  Uiso   1.00
F1184  F     0.04152   0.90852   0.71680   0.00000  Uiso   1.00
C1185  C     0.41995   0.83323   0.74882   0.00000  Uiso   1.00
C1186  C     0.58004   0.83340   0.75019   0.00000  Uiso   1.00
C1187  C     0.42916   0.86041   0.52539   0.00000  Uiso   1.00
C1188  C     0.57715   0.83224   0.97429   0.00000  Uiso   1.00
C1189  C     0.35432   0.79389   0.76185   0.00000  Uiso   1.00
C1190  C     0.64548   0.87168   0.73363   0.00000  Uiso   1.00
C1191  C     0.64530   0.79449   0.76342   0.00000  Uiso   1.00
C1192  C     0.35463   0.87143   0.73290   0.00000  Uiso   1.00
C1193  C     0.62415   0.83337   0.74939   0.00000  Uiso   1.00
C1194  C     0.37578   0.83281   0.74771   0.00000  Uiso   1.00
C1195  C     0.52605   0.69066   0.77741   0.00000  Uiso   1.00
C1196  C     0.47396   0.97601   0.72258   0.00000  Uiso   1.00
C1197  C     0.47394   0.69067   0.72259   0.00000  Uiso   1.00
C1198  C     0.52606   0.97600   0.77740   0.00000  Uiso   1.00
C1199  C     0.50244   0.83338   0.66356   0.00000  Uiso   1.00
C1200  C     0.49896   0.83329   0.83654   0.00000  Uiso   1.00
C1201  C     0.53663   0.83448   0.90548   0.00000  Uiso   1.00
C1202  C     0.46777   0.84651   0.59426   0.00000  Uiso   1.00
C1203  C     0.49849   0.83349   0.88435   0.00000  Uiso   1.00
C1204  C     0.50406   0.83394   0.61578   0.00000  Uiso   1.00
C1205  C     0.46124   0.83574   0.90839   0.00000  Uiso   1.00
C1206  C     0.54107   0.82581   0.59220   0.00000  Uiso   1.00
C1207  C     0.46323   0.84436   0.95451   0.00000  Uiso   1.00
C1208  C     0.54095   0.83343   0.54570   0.00000  Uiso   1.00
C1209  C     0.50184   0.84126   0.97658   0.00000  Uiso   1.00
C1210  C     0.50305   0.84179   0.52344   0.00000  Uiso   1.00
C1211  C     0.53893   0.83570   0.95189   0.00000  Uiso   1.00
C1212  C     0.46628   0.84971   0.54795   0.00000  Uiso   1.00
C1213  C     0.42783   0.85631   0.97902   0.00000  Uiso   1.00
C1214  C     0.57768   0.83266   0.52076   0.00000  Uiso   1.00
H1215  H     0.56420   0.83339   0.88495   0.00000  Uiso   1.00
H1216  H     0.44040   0.85192   0.61444   0.00000  Uiso   1.00
H1217  H     0.39910   0.86355   0.96207   0.00000  Uiso   1.00
H1218  H     0.60730   0.83264   0.53726   0.00000  Uiso   1.00
H1219  H     0.54685   0.70888   0.79932   0.00000  Uiso   1.00
H1220  H     0.45317   0.95780   0.70065   0.00000  Uiso   1.00
H1221  H     0.45312   0.70889   0.70070   0.00000  Uiso   1.00
H1222  H     0.54689   0.95779   0.79929   0.00000  Uiso   1.00
N1223  N     0.50000   0.95240   0.75000   0.00000  Uiso   1.00
N1224  N     0.50000   0.71427   0.75000   0.00000  Uiso   1.00
O1225  O     0.43892   0.87154   0.75000   0.00000  Uiso   1.00
O1226  O     0.56108   0.79513   0.75001   0.00000  Uiso   1.00
O1227  O     0.56108   0.87154   0.75001   0.00000  Uiso   1.00
O1228  O     0.43892   0.79513   0.75000   0.00000  Uiso   1.00
O1229  O     0.49999   0.87156   0.68393   0.00000  Uiso   1.00
O1230  O     0.50001   0.79511   0.81608   0.00000  Uiso   1.00
O1231  O     0.50001   0.87156   0.81608   0.00000  Uiso   1.00
O1232  O     0.49999   0.79511   0.68393   0.00000  Uiso   1.00
Zn1233 Zn    0.50000   0.88437   0.75000   0.00000  Uiso   1.00
Zn1234 Zn    0.50000   0.78229   0.75000   0.00000  Uiso   1.00
S1235  S     0.41325   0.82207   0.88239   0.00000  Uiso   1.00
O1236  O     0.39143   0.86500   0.86929   0.00000  Uiso   1.00
O1237  O     0.41950   0.79334   0.84171   0.00000  Uiso   1.00
O1238  O     0.38354   0.79229   0.91805   0.00000  Uiso   1.00
H1239  H     0.40025   0.76535   0.92604   0.00000  Uiso   1.00
S1240  S     0.58646   0.80451   0.61969   0.00000  Uiso   1.00
O1241  O     0.61393   0.84390   0.63134   0.00000  Uiso   1.00
O1242  O     0.57643   0.77867   0.66159   0.00000  Uiso   1.00
O1243  O     0.61276   0.76899   0.58613   0.00000  Uiso   1.00
H1244  H     0.59265   0.74488   0.57833   0.00000  Uiso   1.00
S1245  S     0.38378   0.87884   0.55358   0.00000  Uiso   1.00
O1246  O     0.36453   0.83912   0.57743   0.00000  Uiso   1.00
O1247  O     0.39454   0.91466   0.58737   0.00000  Uiso   1.00
O1248  O     0.34919   0.90040   0.51733   0.00000  Uiso   1.00
H1249  H     0.36209   0.92867   0.50591   0.00000  Uiso   1.00
S1250  S     0.62479   0.82408   0.94609   0.00000  Uiso   1.00
O1251  O     0.65868   0.81495   0.97924   0.00000  Uiso   1.00
O1252  O     0.62124   0.78405   0.91521   0.00000  Uiso   1.00
O1253  O     0.63648   0.87105   0.91647   0.00000  Uiso   1.00
H1254  H     0.63913   0.86099   0.88499   0.00000  Uiso   1.00
F1255  F     0.37399   0.75542   0.77493   0.00000  Uiso   1.00
F1256  F     0.62541   0.90896   0.71806   0.00000  Uiso   1.00
F1257  F     0.62523   0.75725   0.77944   0.00000  Uiso   1.00
F1258  F     0.37486   0.90852   0.71680   0.00000  Uiso   1.00
C1259  C     0.75328   0.83323   0.74882   0.00000  Uiso   1.00
C1260  C     0.91338   0.83340   0.75019   0.00000  Uiso   1.00
C1261  C     0.76249   0.86041   0.52539   0.00000  Uiso   1.00
C1262  C     0.91048   0.83224   0.97429   0.00000  Uiso   1.00
C1263  C     0.68765   0.79389   0.76185   0.00000  Uiso   1.00
C1264  C     0.97881   0.87168   0.73363   0.00000  Uiso   1.00
C1265  C     0.97864   0.79449   0.76342   0.00000  Uiso   1.00
C1266  C     0.68796   0.87143   0.73290   0.00000  Uiso   1.00
C1267  C     0.95748   0.83337   0.74939   0.00000  Uiso   1.00
C1268  C     0.70911   0.83281   0.74771   0.00000  Uiso   1.00
C1269  C     0.85939   0.69066   0.77741   0.00000  Uiso   1.00
C1270  C     0.80729   0.97601   0.72258   0.00000  Uiso   1.00
C1271  C     0.80728   0.69067   0.72259   0.00000  Uiso   1.00
C1272  C     0.85940   0.97600   0.77740   0.00000  Uiso   1.00
C1273  C     0.83577   0.83338   0.66356   0.00000  Uiso   1.00
C1274  C     0.83229   0.83329   0.83654   0.00000  Uiso   1.00
C1275  C     0.86996   0.83448   0.90548   0.00000  Uiso   1.00
C1276  C     0.80110   0.84651   0.59426   0.00000  Uiso   1.00
C1277  C     0.83183   0.83349   0.88435   0.00000  Uiso   1.00
C1278  C     0.83739   0.83394   0.61578   0.00000  Uiso   1.00
C1279  C     0.79457   0.83574   0.90839   0.00000  Uiso   1.00
C1280  C     0.87440   0.82581   0.59220   0.00000  Uiso   1.00
C1281  C     0.79657   0.84436   0.95451   0.00000  Uiso   1.00
C1282  C     0.87428   0.83343   0.54570   0.00000  Uiso   1.00
C1283  C     0.83518   0.84126   0.97658   0.00000  Uiso   1.00
C1284  C     0.83638   0.84179   0.52344   0.00000  Uiso   1.00
C1285  C     0.87227   0.83570   0.95189   0.00000  Uiso   1.00
C1286  C     0.79961   0.84971   0.54795   0.00000  Uiso   1.00
C1287  C     0.76117   0.85631   0.97902   0.00000  Uiso   1.00
C1288  C     0.91102   0.83266   0.52076   0.00000  Uiso   1.00
H1289  H     0.89753   0.83339   0.88495   0.00000  Uiso   1.00
H1290  H     0.77374   0.85192   0.61444   0.00000  Uiso   1.00
H1291  H     0.73243   0.86355   0.96207   0.00000  Uiso   1.00
H1292  H     0.94063   0.83264   0.53726   0.00000  Uiso   1.00
H1293  H     0.88018   0.70888   0.79932   0.00000  Uiso   1.00
H1294  H     0.78650   0.95780   0.70065   0.00000  Uiso   1.00
H1295  H     0.78646   0.70889   0.70070   0.00000  Uiso   1.00
H1296  H     0.88022   0.95779   0.79929   0.00000  Uiso   1.00
N1297  N     0.83333   0.95240   0.75000   0.00000  Uiso   1.00
N1298  N     0.83333   0.71427   0.75000   0.00000  Uiso   1.00
O1299  O     0.77226   0.87154   0.75000   0.00000  Uiso   1.00
O1300  O     0.89441   0.79513   0.75001   0.00000  Uiso   1.00
O1301  O     0.89441   0.87154   0.75001   0.00000  Uiso   1.00
O1302  O     0.77226   0.79513   0.75000   0.00000  Uiso   1.00
O1303  O     0.83333   0.87156   0.68393   0.00000  Uiso   1.00
O1304  O     0.83334   0.79511   0.81608   0.00000  Uiso   1.00
O1305  O     0.83334   0.87156   0.81608   0.00000  Uiso   1.00
O1306  O     0.83333   0.79511   0.68393   0.00000  Uiso   1.00
Zn1307 Zn    0.83333   0.88437   0.75000   0.00000  Uiso   1.00
Zn1308 Zn    0.83333   0.78229   0.75000   0.00000  Uiso   1.00
S1309  S     0.74658   0.82207   0.88239   0.00000  Uiso   1.00
O1310  O     0.72476   0.86500   0.86929   0.00000  Uiso   1.00
O1311  O     0.75283   0.79334   0.84171   0.00000  Uiso   1.00
O1312  O     0.71688   0.79229   0.91805   0.00000  Uiso   1.00
H1313  H     0.73358   0.76535   0.92604   0.00000  Uiso   1.00
S1314  S     0.91979   0.80451   0.61969   0.00000  Uiso   1.00
O1315  O     0.94726   0.84390   0.63134   0.00000  Uiso   1.00
O1316  O     0.90976   0.77867   0.66159   0.00000  Uiso   1.00
O1317  O     0.94610   0.76899   0.58613   0.00000  Uiso   1.00
H1318  H     0.92598   0.74488   0.57833   0.00000  Uiso   1.00
S1319  S     0.71711   0.87884   0.55358   0.00000  Uiso   1.00
O1320  O     0.69786   0.83912   0.57743   0.00000  Uiso   1.00
O1321  O     0.72788   0.91466   0.58737   0.00000  Uiso   1.00
O1322  O     0.68252   0.90040   0.51733   0.00000  Uiso   1.00
H1323  H     0.69542   0.92867   0.50591   0.00000  Uiso   1.00
S1324  S     0.95812   0.82408   0.94609   0.00000  Uiso   1.00
O1325  O     0.99202   0.81495   0.97924   0.00000  Uiso   1.00
O1326  O     0.95458   0.78405   0.91521   0.00000  Uiso   1.00
O1327  O     0.96981   0.87105   0.91647   0.00000  Uiso   1.00
H1328  H     0.97246   0.86099   0.88499   0.00000  Uiso   1.00
F1329  F     0.70733   0.75542   0.77493   0.00000  Uiso   1.00
F1330  F     0.95874   0.90896   0.71806   0.00000  Uiso   1.00
F1331  F     0.95856   0.75725   0.77944   0.00000  Uiso   1.00
F1332  F     0.70819   0.90852   0.71680   0.00000  Uiso   1.00
loop_
_geom_bond_atom_site_label_1
_geom_bond_atom_site_label_2
_geom_bond_distance
_geom_bond_site_symmetry_2
_ccdc_geom_bond_type
C1     O44     1.282   .     A
C1     C10     1.428   .     S
C1     O41     1.285   .     A
C2     O43     1.282   .     A
C2     O42     1.283   .     A
C2     C9      1.426   .     S
C3     C28     1.413   .     A
C3     S61     1.777   .     S
C3     C695    1.392   1_554 S
C4     C27     1.409   .     A
C4     S66     1.771   .     S
C4     C696    1.389   .     S
C5     F71     1.359   .     S
C5     C10     1.403   .     A
C5     C155    1.369   1_455 S
C6     F72     1.359   .     S
C6     C9      1.402   .     A
C6     C82     1.373   .     S
C7     C9      1.400   .     A
C7     F73     1.359   .     S
C7     C79     1.369   .     S
C8     F74     1.359   .     S
C8     C10     1.401   .     A
C8     C154    1.373   1_455 S
C11    H35     1.082   .     S
C11    N40     1.366   .     A
C11    C458    1.415   1_545 S
C12    N39     1.366   .     A
C12    H36     1.082   .     S
C12    C235    1.415   .     S
C13    H37     1.082   .     S
C13    N40     1.366   .     A
C13    C456    1.415   1_545 S
C14    H38     1.082   .     S
C14    N39     1.366   .     A
C14    C233    1.415   .     S
C15    O48     1.283   .     A
C15    O45     1.284   .     A
C15    C20     1.428   .     S
C16    C19     1.428   .     S
C16    O47     1.282   .     A
C16    O46     1.283   .     A
C17    H31     1.081   .     S
C17    C27     1.389   .     A
C17    C19     1.386   .     A
C18    H32     1.082   .     S
C18    C20     1.389   .     A
C18    C28     1.387   .     A
C19    C21     1.403   .     A
C20    C22     1.409   .     A
C21    C23     1.403   .     A
C21    S51     1.781   .     S
C22    S56     1.796   .     S
C22    C24     1.407   .     A
C23    C29     1.404   .     A
C23    C25     1.415   .     A
C24    C30     1.401   .     A
C24    C26     1.416   .     A
C25    C27     1.417   .     A
C25    C692    1.401   .     S
C26    C28     1.415   .     A
C26    C691    1.401   1_554 S
C29    H33     1.080   .     S
C29    C669    1.392   .     S
C30    H34     1.077   .     S
C30    C670    1.389   1_554 S
N39    Zn49    2.006   .     S
N40    Zn50    2.006   .     S
O41    Zn49    2.009   .     S
O42    Zn50    2.009   .     S
O43    Zn49    2.011   .     S
O44    Zn50    2.011   .     S
O45    Zn49    2.011   .     S
O46    Zn50    2.011   .     S
O47    Zn49    2.009   .     S
O48    Zn50    2.009   .     S
S51    O54     1.678   .     S
S51    O52     1.502   .     D
S51    O53     1.497   .     D
O54    H55     0.991   .     S
S56    O59     1.683   .     S
S56    O57     1.502   .     D
S56    O58     1.498   .     D
O59    H60     0.991   .     S
S61    O64     1.682   .     S
S61    O62     1.503   .     D
S61    O63     1.504   .     D
O64    H65     0.991   .     S
S66    O68     1.505   .     D
S66    O67     1.502   .     D
S66    O69     1.683   .     S
O69    H70     0.990   .     S
C75    O118    1.282   .     A
C75    C84     1.428   .     S
C75    O115    1.285   .     A
C76    O117    1.282   .     A
C76    O116    1.283   .     A
C76    C83     1.426   .     S
C77    C102    1.413   .     A
C77    S135    1.777   .     S
C77    C769    1.392   1_554 S
C78    C101    1.409   .     A
C78    S140    1.771   .     S
C78    C770    1.389   .     S
C79    F145    1.359   .     S
C79    C84     1.403   .     A
C80    F146    1.359   .     S
C80    C83     1.402   .     A
C80    C156    1.373   .     S
C81    C83     1.400   .     A
C81    F147    1.359   .     S
C81    C153    1.369   .     S
C82    F148    1.359   .     S
C82    C84     1.401   .     A
C85    H109    1.082   .     S
C85    N114    1.366   .     A
C85    C532    1.415   1_545 S
C86    N113    1.366   .     A
C86    H110    1.082   .     S
C86    C309    1.415   .     S
C87    H111    1.082   .     S
C87    N114    1.366   .     A
C87    C530    1.415   1_545 S
C88    H112    1.082   .     S
C88    N113    1.366   .     A
C88    C307    1.415   .     S
C89    O122    1.283   .     A
C89    O119    1.284   .     A
C89    C94     1.428   .     S
C90    C93     1.428   .     S
C90    O121    1.282   .     A
C90    O120    1.283   .     A
C91    H105    1.081   .     S
C91    C101    1.389   .     A
C91    C93     1.386   .     A
C92    H106    1.082   .     S
C92    C94     1.389   .     A
C92    C102    1.387   .     A
C93    C95     1.403   .     A
C94    C96     1.409   .     A
C95    C97     1.403   .     A
C95    S125    1.781   .     S
C96    S130    1.796   .     S
C96    C98     1.407   .     A
C97    C103    1.404   .     A
C97    C99     1.415   .     A
C98    C104    1.401   .     A
C98    C100    1.416   .     A
C99    C101    1.417   .     A
C99    C766    1.401   .     S
C100   C102    1.415   .     A
C100   C765    1.401   1_554 S
C103   H107    1.080   .     S
C103   C743    1.392   .     S
C104   H108    1.077   .     S
C104   C744    1.389   1_554 S
N113   Zn123   2.006   .     S
N114   Zn124   2.006   .     S
O115   Zn123   2.009   .     S
O116   Zn124   2.009   .     S
O117   Zn123   2.011   .     S
O118   Zn124   2.011   .     S
O119   Zn123   2.011   .     S
O120   Zn124   2.011   .     S
O121   Zn123   2.009   .     S
O122   Zn124   2.009   .     S
S125   O128    1.678   .     S
S125   O126    1.502   .     D
S125   O127    1.497   .     D
O128   H129    0.991   .     S
S130   O133    1.683   .     S
S130   O131    1.502   .     D
S130   O132    1.498   .     D
O133   H134    0.991   .     S
S135   O138    1.682   .     S
S135   O136    1.503   .     D
S135   O137    1.504   .     D
O138   H139    0.991   .     S
S140   O142    1.505   .     D
S140   O141    1.502   .     D
S140   O143    1.683   .     S
O143   H144    0.990   .     S
C149   O192    1.282   .     A
C149   C158    1.428   .     S
C149   O189    1.285   .     A
C150   O191    1.282   .     A
C150   O190    1.283   .     A
C150   C157    1.426   .     S
C151   C176    1.413   .     A
C151   S209    1.777   .     S
C151   C843    1.392   1_554 S
C152   C175    1.409   .     A
C152   S214    1.771   .     S
C152   C844    1.389   .     S
C153   F219    1.359   .     S
C153   C158    1.403   .     A
C154   F220    1.359   .     S
C154   C157    1.402   .     A
C154   C8      1.373   1_655 S
C155   C157    1.400   .     A
C155   F221    1.359   .     S
C155   C5      1.369   1_655 S
C156   F222    1.359   .     S
C156   C158    1.401   .     A
C159   H183    1.082   .     S
C159   N188    1.366   .     A
C159   C606    1.415   1_545 S
C160   N187    1.366   .     A
C160   H184    1.082   .     S
C160   C383    1.415   .     S
C161   H185    1.082   .     S
C161   N188    1.366   .     A
C161   C604    1.415   1_545 S
C162   H186    1.082   .     S
C162   N187    1.366   .     A
C162   C381    1.415   .     S
C163   O196    1.283   .     A
C163   O193    1.284   .     A
C163   C168    1.428   .     S
C164   C167    1.428   .     S
C164   O195    1.282   .     A
C164   O194    1.283   .     A
C165   H179    1.081   .     S
C165   C175    1.389   .     A
C165   C167    1.386   .     A
C166   H180    1.082   .     S
C166   C168    1.389   .     A
C166   C176    1.387   .     A
C167   C169    1.403   .     A
C168   C170    1.409   .     A
C169   C171    1.403   .     A
C169   S199    1.781   .     S
C170   S204    1.796   .     S
C170   C172    1.407   .     A
C171   C177    1.404   .     A
C171   C173    1.415   .     A
C172   C178    1.401   .     A
C172   C174    1.416   .     A
C173   C175    1.417   .     A
C173   C840    1.401   .     S
C174   C176    1.415   .     A
C174   C839    1.401   1_554 S
C177   H181    1.080   .     S
C177   C817    1.392   .     S
C178   H182    1.077   .     S
C178   C818    1.389   1_554 S
N187   Zn197   2.006   .     S
N188   Zn198   2.006   .     S
O189   Zn197   2.009   .     S
O190   Zn198   2.009   .     S
O191   Zn197   2.011   .     S
O192   Zn198   2.011   .     S
O193   Zn197   2.011   .     S
O194   Zn198   2.011   .     S
O195   Zn197   2.009   .     S
O196   Zn198   2.009   .     S
S199   O202    1.678   .     S
S199   O200    1.502   .     D
S199   O201    1.497   .     D
O202   H203    0.991   .     S
S204   O207    1.683   .     S
S204   O205    1.502   .     D
S204   O206    1.498   .     D
O207   H208    0.991   .     S
S209   O212    1.682   .     S
S209   O210    1.503   .     D
S209   O211    1.504   .     D
O212   H213    0.991   .     S
S214   O216    1.505   .     D
S214   O215    1.502   .     D
S214   O217    1.683   .     S
O217   H218    0.990   .     S
C223   O266    1.282   .     A
C223   C232    1.428   .     S
C223   O263    1.285   .     A
C224   O265    1.282   .     A
C224   O264    1.283   .     A
C224   C231    1.426   .     S
C225   C250    1.413   .     A
C225   S283    1.777   .     S
C225   C917    1.392   1_554 S
C226   C249    1.409   .     A
C226   S288    1.771   .     S
C226   C918    1.389   .     S
C227   F293    1.359   .     S
C227   C232    1.403   .     A
C227   C377    1.369   1_455 S
C228   F294    1.359   .     S
C228   C231    1.402   .     A
C228   C304    1.373   .     S
C229   C231    1.400   .     A
C229   F295    1.359   .     S
C229   C301    1.369   .     S
C230   F296    1.359   .     S
C230   C232    1.401   .     A
C230   C376    1.373   1_455 S
C233   H257    1.082   .     S
C233   N262    1.366   .     A
C234   N261    1.366   .     A
C234   H258    1.082   .     S
C234   C457    1.415   .     S
C235   H259    1.082   .     S
C235   N262    1.366   .     A
C236   H260    1.082   .     S
C236   N261    1.366   .     A
C236   C455    1.415   .     S
C237   O270    1.283   .     A
C237   O267    1.284   .     A
C237   C242    1.428   .     S
C238   C241    1.428   .     S
C238   O269    1.282   .     A
C238   O268    1.283   .     A
C239   H253    1.081   .     S
C239   C249    1.389   .     A
C239   C241    1.386   .     A
C240   H254    1.082   .     S
C240   C242    1.389   .     A
C240   C250    1.387   .     A
C241   C243    1.403   .     A
C242   C244    1.409   .     A
C243   C245    1.403   .     A
C243   S273    1.781   .     S
C244   S278    1.796   .     S
C244   C246    1.407   .     A
C245   C251    1.404   .     A
C245   C247    1.415   .     A
C246   C252    1.401   .     A
C246   C248    1.416   .     A
C247   C249    1.417   .     A
C247   C914    1.401   .     S
C248   C250    1.415   .     A
C248   C913    1.401   1_554 S
C251   H255    1.080   .     S
C251   C891    1.392   .     S
C252   H256    1.077   .     S
C252   C892    1.389   1_554 S
N261   Zn271   2.006   .     S
N262   Zn272   2.006   .     S
O263   Zn271   2.009   .     S
O264   Zn272   2.009   .     S
O265   Zn271   2.011   .     S
O266   Zn272   2.011   .     S
O267   Zn271   2.011   .     S
O268   Zn272   2.011   .     S
O269   Zn271   2.009   .     S
O270   Zn272   2.009   .     S
S273   O276    1.678   .     S
S273   O274    1.502   .     D
S273   O275    1.497   .     D
O276   H277    0.991   .     S
S278   O281    1.683   .     S
S278   O279    1.502   .     D
S278   O280    1.498   .     D
O281   H282    0.991   .     S
S283   O286    1.682   .     S
S283   O284    1.503   .     D
S283   O285    1.504   .     D
O286   H287    0.991   .     S
S288   O290    1.505   .     D
S288   O289    1.502   .     D
S288   O291    1.683   .     S
O291   H292    0.990   .     S
C297   O340    1.282   .     A
C297   C306    1.428   .     S
C297   O337    1.285   .     A
C298   O339    1.282   .     A
C298   O338    1.283   .     A
C298   C305    1.426   .     S
C299   C324    1.413   .     A
C299   S357    1.777   .     S
C299   C991    1.392   1_554 S
C300   C323    1.409   .     A
C300   S362    1.771   .     S
C300   C992    1.389   .     S
C301   F367    1.359   .     S
C301   C306    1.403   .     A
C302   F368    1.359   .     S
C302   C305    1.402   .     A
C302   C378    1.373   .     S
C303   C305    1.400   .     A
C303   F369    1.359   .     S
C303   C375    1.369   .     S
C304   F370    1.359   .     S
C304   C306    1.401   .     A
C307   H331    1.082   .     S
C307   N336    1.366   .     A
C308   N335    1.366   .     A
C308   H332    1.082   .     S
C308   C531    1.415   .     S
C309   H333    1.082   .     S
C309   N336    1.366   .     A
C310   H334    1.082   .     S
C310   N335    1.366   .     A
C310   C529    1.415   .     S
C311   O344    1.283   .     A
C311   O341    1.284   .     A
C311   C316    1.428   .     S
C312   C315    1.428   .     S
C312   O343    1.282   .     A
C312   O342    1.283   .     A
C313   H327    1.081   .     S
C313   C323    1.389   .     A
C313   C315    1.386   .     A
C314   H328    1.082   .     S
C314   C316    1.389   .     A
C314   C324    1.387   .     A
C315   C317    1.403   .     A
C316   C318    1.409   .     A
C317   C319    1.403   .     A
C317   S347    1.781   .     S
C318   S352    1.796   .     S
C318   C320    1.407   .     A
C319   C325    1.404   .     A
C319   C321    1.415   .     A
C320   C326    1.401   .     A
C320   C322    1.416   .     A
C321   C323    1.417   .     A
C321   C988    1.401   .     S
C322   C324    1.415   .     A
C322   C987    1.401   1_554 S
C325   H329    1.080   .     S
C325   C965    1.392   .     S
C326   H330    1.077   .     S
C326   C966    1.389   1_554 S
N335   Zn345   2.006   .     S
N336   Zn346   2.006   .     S
O337   Zn345   2.009   .     S
O338   Zn346   2.009   .     S
O339   Zn345   2.011   .     S
O340   Zn346   2.011   .     S
O341   Zn345   2.011   .     S
O342   Zn346   2.011   .     S
O343   Zn345   2.009   .     S
O344   Zn346   2.009   .     S
S347   O350    1.678   .     S
S347   O348    1.502   .     D
S347   O349    1.497   .     D
O350   H351    0.991   .     S
S352   O355    1.683   .     S
S352   O353    1.502   .     D
S352   O354    1.498   .     D
O355   H356    0.991   .     S
S357   O360    1.682   .     S
S357   O358    1.503   .     D
S357   O359    1.504   .     D
O360   H361    0.991   .     S
S362   O364    1.505   .     D
S362   O363    1.502   .     D
S362   O365    1.683   .     S
O365   H366    0.990   .     S
C371   O414    1.282   .     A
C371   C380    1.428   .     S
C371   O411    1.285   .     A
C372   O413    1.282   .     A
C372   O412    1.283   .     A
C372   C379    1.426   .     S
C373   C398    1.413   .     A
C373   S431    1.777   .     S
C373   C1065   1.392   1_554 S
C374   C397    1.409   .     A
C374   S436    1.771   .     S
C374   C1066   1.389   .     S
C375   F441    1.359   .     S
C375   C380    1.403   .     A
C376   F442    1.359   .     S
C376   C379    1.402   .     A
C376   C230    1.373   1_655 S
C377   C379    1.400   .     A
C377   F443    1.359   .     S
C377   C227    1.369   1_655 S
C378   F444    1.359   .     S
C378   C380    1.401   .     A
C381   H405    1.082   .     S
C381   N410    1.366   .     A
C382   N409    1.366   .     A
C382   H406    1.082   .     S
C382   C605    1.415   .     S
C383   H407    1.082   .     S
C383   N410    1.366   .     A
C384   H408    1.082   .     S
C384   N409    1.366   .     A
C384   C603    1.415   .     S
C385   O418    1.283   .     A
C385   O415    1.284   .     A
C385   C390    1.428   .     S
C386   C389    1.428   .     S
C386   O417    1.282   .     A
C386   O416    1.283   .     A
C387   H401    1.081   .     S
C387   C397    1.389   .     A
C387   C389    1.386   .     A
C388   H402    1.082   .     S
C388   C390    1.389   .     A
C388   C398    1.387   .     A
C389   C391    1.403   .     A
C390   C392    1.409   .     A
C391   C393    1.403   .     A
C391   S421    1.781   .     S
C392   S426    1.796   .     S
C392   C394    1.407   .     A
C393   C399    1.404   .     A
C393   C395    1.415   .     A
C394   C400    1.401   .     A
C394   C396    1.416   .     A
C395   C397    1.417   .     A
C395   C1062   1.401   .     S
C396   C398    1.415   .     A
C396   C1061   1.401   1_554 S
C399   H403    1.080   .     S
C399   C1039   1.392   .     S
C400   H404    1.077   .     S
C400   C1040   1.389   1_554 S
N409   Zn419   2.006   .     S
N410   Zn420   2.006   .     S
O411   Zn419   2.009   .     S
O412   Zn420   2.009   .     S
O413   Zn419   2.011   .     S
O414   Zn420   2.011   .     S
O415   Zn419   2.011   .     S
O416   Zn420   2.011   .     S
O417   Zn419   2.009   .     S
O418   Zn420   2.009   .     S
S421   O424    1.678   .     S
S421   O422    1.502   .     D
S421   O423    1.497   .     D
O424   H425    0.991   .     S
S426   O429    1.683   .     S
S426   O427    1.502   .     D
S426   O428    1.498   .     D
O429   H430    0.991   .     S
S431   O434    1.682   .     S
S431   O432    1.503   .     D
S431   O433    1.504   .     D
O434   H435    0.991   .     S
S436   O438    1.505   .     D
S436   O437    1.502   .     D
S436   O439    1.683   .     S
O439   H440    0.990   .     S
C445   O488    1.282   .     A
C445   C454    1.428   .     S
C445   O485    1.285   .     A
C446   O487    1.282   .     A
C446   O486    1.283   .     A
C446   C453    1.426   .     S
C447   C472    1.413   .     A
C447   S505    1.777   .     S
C447   C1139   1.392   1_554 S
C448   C471    1.409   .     A
C448   S510    1.771   .     S
C448   C1140   1.389   .     S
C449   F515    1.359   .     S
C449   C454    1.403   .     A
C449   C599    1.369   1_455 S
C450   F516    1.359   .     S
C450   C453    1.402   .     A
C450   C526    1.373   .     S
C451   C453    1.400   .     A
C451   F517    1.359   .     S
C451   C523    1.369   .     S
C452   F518    1.359   .     S
C452   C454    1.401   .     A
C452   C598    1.373   1_455 S
C455   H479    1.082   .     S
C455   N484    1.366   .     A
C456   N483    1.366   .     A
C456   H480    1.082   .     S
C456   C13     1.415   1_565 S
C457   H481    1.082   .     S
C457   N484    1.366   .     A
C458   H482    1.082   .     S
C458   N483    1.366   .     A
C458   C11     1.415   1_565 S
C459   O492    1.283   .     A
C459   O489    1.284   .     A
C459   C464    1.428   .     S
C460   C463    1.428   .     S
C460   O491    1.282   .     A
C460   O490    1.283   .     A
C461   H475    1.081   .     S
C461   C471    1.389   .     A
C461   C463    1.386   .     A
C462   H476    1.082   .     S
C462   C464    1.389   .     A
C462   C472    1.387   .     A
C463   C465    1.403   .     A
C464   C466    1.409   .     A
C465   C467    1.403   .     A
C465   S495    1.781   .     S
C466   S500    1.796   .     S
C466   C468    1.407   .     A
C467   C473    1.404   .     A
C467   C469    1.415   .     A
C468   C474    1.401   .     A
C468   C470    1.416   .     A
C469   C471    1.417   .     A
C469   C1136   1.401   .     S
C470   C472    1.415   .     A
C470   C1135   1.401   1_554 S
C473   H477    1.080   .     S
C473   C1113   1.392   .     S
C474   H478    1.077   .     S
C474   C1114   1.389   1_554 S
N483   Zn493   2.006   .     S
N484   Zn494   2.006   .     S
O485   Zn493   2.009   .     S
O486   Zn494   2.009   .     S
O487   Zn493   2.011   .     S
O488   Zn494   2.011   .     S
O489   Zn493   2.011   .     S
O490   Zn494   2.011   .     S
O491   Zn493   2.009   .     S
O492   Zn494   2.009   .     S
S495   O498    1.678   .     S
S495   O496    1.502   .     D
S495   O497    1.497   .     D
O498   H499    0.991   .     S
S500   O503    1.683   .     S
S500   O501    1.502   .     D
S500   O502    1.498   .     D
O503   H504    0.991   .     S
S505   O508    1.682   .     S
S505   O506    1.503   .     D
S505   O507    1.504   .     D
O508   H509    0.991   .     S
S510   O512    1.505   .     D
S510   O511    1.502   .     D
S510   O513    1.683   .     S
O513   H514    0.990   .     S
C519   O562    1.282   .     A
C519   C528    1.428   .     S
C519   O559    1.285   .     A
C520   O561    1.282   .     A
C520   O560    1.283   .     A
C520   C527    1.426   .     S
C521   C546    1.413   .     A
C521   S579    1.777   .     S
C521   C1213   1.392   1_554 S
C522   C545    1.409   .     A
C522   S584    1.771   .     S
C522   C1214   1.389   .     S
C523   F589    1.359   .     S
C523   C528    1.403   .     A
C524   F590    1.359   .     S
C524   C527    1.402   .     A
C524   C600    1.373   .     S
C525   C527    1.400   .     A
C525   F591    1.359   .     S
C525   C597    1.369   .     S
C526   F592    1.359   .     S
C526   C528    1.401   .     A
C529   H553    1.082   .     S
C529   N558    1.366   .     A
C530   N557    1.366   .     A
C530   H554    1.082   .     S
C530   C87     1.415   1_565 S
C531   H555    1.082   .     S
C531   N558    1.366   .     A
C532   H556    1.082   .     S
C532   N557    1.366   .     A
C532   C85     1.415   1_565 S
C533   O566    1.283   .     A
C533   O563    1.284   .     A
C533   C538    1.428   .     S
C534   C537    1.428   .     S
C534   O565    1.282   .     A
C534   O564    1.283   .     A
C535   H549    1.081   .     S
C535   C545    1.389   .     A
C535   C537    1.386   .     A
C536   H550    1.082   .     S
C536   C538    1.389   .     A
C536   C546    1.387   .     A
C537   C539    1.403   .     A
C538   C540    1.409   .     A
C539   C541    1.403   .     A
C539   S569    1.781   .     S
C540   S574    1.796   .     S
C540   C542    1.407   .     A
C541   C547    1.404   .     A
C541   C543    1.415   .     A
C542   C548    1.401   .     A
C542   C544    1.416   .     A
C543   C545    1.417   .     A
C543   C1210   1.401   .     S
C544   C546    1.415   .     A
C544   C1209   1.401   1_554 S
C547   H551    1.080   .     S
C547   C1187   1.392   .     S
C548   H552    1.077   .     S
C548   C1188   1.389   1_554 S
N557   Zn567   2.006   .     S
N558   Zn568   2.006   .     S
O559   Zn567   2.009   .     S
O560   Zn568   2.009   .     S
O561   Zn567   2.011   .     S
O562   Zn568   2.011   .     S
O563   Zn567   2.011   .     S
O564   Zn568   2.011   .     S
O565   Zn567   2.009   .     S
O566   Zn568   2.009   .     S
S569   O572    1.678   .     S
S569   O570    1.502   .     D
S569   O571    1.497   .     D
O572   H573    0.991   .     S
S574   O577    1.683   .     S
S574   O575    1.502   .     D
S574   O576    1.498   .     D
O577   H578    0.991   .     S
S579   O582    1.682   .     S
S579   O580    1.503   .     D
S579   O581    1.504   .     D
O582   H583    0.991   .     S
S584   O586    1.505   .     D
S584   O585    1.502   .     D
S584   O587    1.683   .     S
O587   H588    0.990   .     S
C593   O636    1.282   .     A
C593   C602    1.428   .     S
C593   O633    1.285   .     A
C594   O635    1.282   .     A
C594   O634    1.283   .     A
C594   C601    1.426   .     S
C595   C620    1.413   .     A
C595   S653    1.777   .     S
C595   C1287   1.392   1_554 S
C596   C619    1.409   .     A
C596   S658    1.771   .     S
C596   C1288   1.389   .     S
C597   F663    1.359   .     S
C597   C602    1.403   .     A
C598   F664    1.359   .     S
C598   C601    1.402   .     A
C598   C452    1.373   1_655 S
C599   C601    1.400   .     A
C599   F665    1.359   .     S
C599   C449    1.369   1_655 S
C600   F666    1.359   .     S
C600   C602    1.401   .     A
C603   H627    1.082   .     S
C603   N632    1.366   .     A
C604   N631    1.366   .     A
C604   H628    1.082   .     S
C604   C161    1.415   1_565 S
C605   H629    1.082   .     S
C605   N632    1.366   .     A
C606   H630    1.082   .     S
C606   N631    1.366   .     A
C606   C159    1.415   1_565 S
C607   O640    1.283   .     A
C607   O637    1.284   .     A
C607   C612    1.428   .     S
C608   C611    1.428   .     S
C608   O639    1.282   .     A
C608   O638    1.283   .     A
C609   H623    1.081   .     S
C609   C619    1.389   .     A
C609   C611    1.386   .     A
C610   H624    1.082   .     S
C610   C612    1.389   .     A
C610   C620    1.387   .     A
C611   C613    1.403   .     A
C612   C614    1.409   .     A
C613   C615    1.403   .     A
C613   S643    1.781   .     S
C614   S648    1.796   .     S
C614   C616    1.407   .     A
C615   C621    1.404   .     A
C615   C617    1.415   .     A
C616   C622    1.401   .     A
C616   C618    1.416   .     A
C617   C619    1.417   .     A
C617   C1284   1.401   .     S
C618   C620    1.415   .     A
C618   C1283   1.401   1_554 S
C621   H625    1.080   .     S
C621   C1261   1.392   .     S
C622   H626    1.077   .     S
C622   C1262   1.389   1_554 S
N631   Zn641   2.006   .     S
N632   Zn642   2.006   .     S
O633   Zn641   2.009   .     S
O634   Zn642   2.009   .     S
O635   Zn641   2.011   .     S
O636   Zn642   2.011   .     S
O637   Zn641   2.011   .     S
O638   Zn642   2.011   .     S
O639   Zn641   2.009   .     S
O640   Zn642   2.009   .     S
S643   O646    1.678   .     S
S643   O644    1.502   .     D
S643   O645    1.497   .     D
O646   H647    0.991   .     S
S648   O651    1.683   .     S
S648   O649    1.502   .     D
S648   O650    1.498   .     D
O651   H652    0.991   .     S
S653   O656    1.682   .     S
S653   O654    1.503   .     D
S653   O655    1.504   .     D
O656   H657    0.991   .     S
S658   O660    1.505   .     D
S658   O659    1.502   .     D
S658   O661    1.683   .     S
O661   H662    0.990   .     S
C667   O710    1.282   .     A
C667   C676    1.428   .     S
C667   O707    1.285   .     A
C668   O709    1.282   .     A
C668   O708    1.283   .     A
C668   C675    1.426   .     S
C669   C694    1.413   .     A
C669   S727    1.777   .     S
C670   C693    1.409   .     A
C670   S732    1.771   .     S
C670   C30     1.389   1_556 S
C671   F737    1.359   .     S
C671   C676    1.403   .     A
C671   C821    1.369   1_455 S
C672   F738    1.359   .     S
C672   C675    1.402   .     A
C672   C748    1.373   .     S
C673   C675    1.400   .     A
C673   F739    1.359   .     S
C673   C745    1.369   .     S
C674   F740    1.359   .     S
C674   C676    1.401   .     A
C674   C820    1.373   1_455 S
C677   H701    1.082   .     S
C677   N706    1.366   .     A
C677   C1124   1.415   1_545 S
C678   N705    1.366   .     A
C678   H702    1.082   .     S
C678   C901    1.415   .     S
C679   H703    1.082   .     S
C679   N706    1.366   .     A
C679   C1122   1.415   1_545 S
C680   H704    1.082   .     S
C680   N705    1.366   .     A
C680   C899    1.415   .     S
C681   O714    1.283   .     A
C681   O711    1.284   .     A
C681   C686    1.428   .     S
C682   C685    1.428   .     S
C682   O713    1.282   .     A
C682   O712    1.283   .     A
C683   H697    1.081   .     S
C683   C693    1.389   .     A
C683   C685    1.386   .     A
C684   H698    1.082   .     S
C684   C686    1.389   .     A
C684   C694    1.387   .     A
C685   C687    1.403   .     A
C686   C688    1.409   .     A
C687   C689    1.403   .     A
C687   S717    1.781   .     S
C688   S722    1.796   .     S
C688   C690    1.407   .     A
C689   C695    1.404   .     A
C689   C691    1.415   .     A
C690   C696    1.401   .     A
C690   C692    1.416   .     A
C691   C693    1.417   .     A
C691   C26     1.401   1_556 S
C692   C694    1.415   .     A
C695   H699    1.080   .     S
C695   C3      1.392   1_556 S
C696   H700    1.077   .     S
N705   Zn715   2.006   .     S
N706   Zn716   2.006   .     S
O707   Zn715   2.009   .     S
O708   Zn716   2.009   .     S
O709   Zn715   2.011   .     S
O710   Zn716   2.011   .     S
O711   Zn715   2.011   .     S
O712   Zn716   2.011   .     S
O713   Zn715   2.009   .     S
O714   Zn716   2.009   .     S
S717   O720    1.678   .     S
S717   O718    1.502   .     D
S717   O719    1.497   .     D
O720   H721    0.991   .     S
S722   O725    1.683   .     S
S722   O723    1.502   .     D
S722   O724    1.498   .     D
O725   H726    0.991   .     S
S727   O730    1.682   .     S
S727   O728    1.503   .     D
S727   O729    1.504   .     D
O730   H731    0.991   .     S
S732   O734    1.505   .     D
S732   O733    1.502   .     D
S732   O735    1.683   .     S
O735   H736    0.990   .     S
C741   O784    1.282   .     A
C741   C750    1.428   .     S
C741   O781    1.285   .     A
C742   O783    1.282   .     A
C742   O782    1.283   .     A
C742   C749    1.426   .     S
C743   C768    1.413   .     A
C743   S801    1.777   .     S
C744   C767    1.409   .     A
C744   S806    1.771   .     S
C744   C104    1.389   1_556 S
C745   F811    1.359   .     S
C745   C750    1.403   .     A
C746   F812    1.359   .     S
C746   C749    1.402   .     A
C746   C822    1.373   .     S
C747   C749    1.400   .     A
C747   F813    1.359   .     S
C747   C819    1.369   .     S
C748   F814    1.359   .     S
C748   C750    1.401   .     A
C751   H775    1.082   .     S
C751   N780    1.366   .     A
C751   C1198   1.415   1_545 S
C752   N779    1.366   .     A
C752   H776    1.082   .     S
C752   C975    1.415   .     S
C753   H777    1.082   .     S
C753   N780    1.366   .     A
C753   C1196   1.415   1_545 S
C754   H778    1.082   .     S
C754   N779    1.366   .     A
C754   C973    1.415   .     S
C755   O788    1.283   .     A
C755   O785    1.284   .     A
C755   C760    1.428   .     S
C756   C759    1.428   .     S
C756   O787    1.282   .     A
C756   O786    1.283   .     A
C757   H771    1.081   .     S
C757   C767    1.389   .     A
C757   C759    1.386   .     A
C758   H772    1.082   .     S
C758   C760    1.389   .     A
C758   C768    1.387   .     A
C759   C761    1.403   .     A
C760   C762    1.409   .     A
C761   C763    1.403   .     A
C761   S791    1.781   .     S
C762   S796    1.796   .     S
C762   C764    1.407   .     A
C763   C769    1.404   .     A
C763   C765    1.415   .     A
C764   C770    1.401   .     A
C764   C766    1.416   .     A
C765   C767    1.417   .     A
C765   C100    1.401   1_556 S
C766   C768    1.415   .     A
C769   H773    1.080   .     S
C769   C77     1.392   1_556 S
C770   H774    1.077   .     S
N779   Zn789   2.006   .     S
N780   Zn790   2.006   .     S
O781   Zn789   2.009   .     S
O782   Zn790   2.009   .     S
O783   Zn789   2.011   .     S
O784   Zn790   2.011   .     S
O785   Zn789   2.011   .     S
O786   Zn790   2.011   .     S
O787   Zn789   2.009   .     S
O788   Zn790   2.009   .     S
S791   O794    1.678   .     S
S791   O792    1.502   .     D
S791   O793    1.497   .     D
O794   H795    0.991   .     S
S796   O799    1.683   .     S
S796   O797    1.502   .     D
S796   O798    1.498   .     D
O799   H800    0.991   .     S
S801   O804    1.682   .     S
S801   O802    1.503   .     D
S801   O803    1.504   .     D
O804   H805    0.991   .     S
S806   O808    1.505   .     D
S806   O807    1.502   .     D
S806   O809    1.683   .     S
O809   H810    0.990   .     S
C815   O858    1.282   .     A
C815   C824    1.428   .     S
C815   O855    1.285   .     A
C816   O857    1.282   .     A
C816   O856    1.283   .     A
C816   C823    1.426   .     S
C817   C842    1.413   .     A
C817   S875    1.777   .     S
C818   C841    1.409   .     A
C818   S880    1.771   .     S
C818   C178    1.389   1_556 S
C819   F885    1.359   .     S
C819   C824    1.403   .     A
C820   F886    1.359   .     S
C820   C823    1.402   .     A
C820   C674    1.373   1_655 S
C821   C823    1.400   .     A
C821   F887    1.359   .     S
C821   C671    1.369   1_655 S
C822   F888    1.359   .     S
C822   C824    1.401   .     A
C825   H849    1.082   .     S
C825   N854    1.366   .     A
C825   C1272   1.415   1_545 S
C826   N853    1.366   .     A
C826   H850    1.082   .     S
C826   C1049   1.415   .     S
C827   H851    1.082   .     S
C827   N854    1.366   .     A
C827   C1270   1.415   1_545 S
C828   H852    1.082   .     S
C828   N853    1.366   .     A
C828   C1047   1.415   .     S
C829   O862    1.283   .     A
C829   O859    1.284   .     A
C829   C834    1.428   .     S
C830   C833    1.428   .     S
C830   O861    1.282   .     A
C830   O860    1.283   .     A
C831   H845    1.081   .     S
C831   C841    1.389   .     A
C831   C833    1.386   .     A
C832   H846    1.082   .     S
C832   C834    1.389   .     A
C832   C842    1.387   .     A
C833   C835    1.403   .     A
C834   C836    1.409   .     A
C835   C837    1.403   .     A
C835   S865    1.781   .     S
C836   S870    1.796   .     S
C836   C838    1.407   .     A
C837   C843    1.404   .     A
C837   C839    1.415   .     A
C838   C844    1.401   .     A
C838   C840    1.416   .     A
C839   C841    1.417   .     A
C839   C174    1.401   1_556 S
C840   C842    1.415   .     A
C843   H847    1.080   .     S
C843   C151    1.392   1_556 S
C844   H848    1.077   .     S
N853   Zn863   2.006   .     S
N854   Zn864   2.006   .     S
O855   Zn863   2.009   .     S
O856   Zn864   2.009   .     S
O857   Zn863   2.011   .     S
O858   Zn864   2.011   .     S
O859   Zn863   2.011   .     S
O860   Zn864   2.011   .     S
O861   Zn863   2.009   .     S
O862   Zn864   2.009   .     S
S865   O868    1.678   .     S
S865   O866    1.502   .     D
S865   O867    1.497   .     D
O868   H869    0.991   .     S
S870   O873    1.683   .     S
S870   O871    1.502   .     D
S870   O872    1.498   .     D
O873   H874    0.991   .     S
S875   O878    1.682   .     S
S875   O876    1.503   .     D
S875   O877    1.504   .     D
O878   H879    0.991   .     S
S880   O882    1.505   .     D
S880   O881    1.502   .     D
S880   O883    1.683   .     S
O883   H884    0.990   .     S
C889   O932    1.282   .     A
C889   C898    1.428   .     S
C889   O929    1.285   .     A
C890   O931    1.282   .     A
C890   O930    1.283   .     A
C890   C897    1.426   .     S
C891   C916    1.413   .     A
C891   S949    1.777   .     S
C892   C915    1.409   .     A
C892   S954    1.771   .     S
C892   C252    1.389   1_556 S
C893   F959    1.359   .     S
C893   C898    1.403   .     A
C893   C1043   1.369   1_455 S
C894   F960    1.359   .     S
C894   C897    1.402   .     A
C894   C970    1.373   .     S
C895   C897    1.400   .     A
C895   F961    1.359   .     S
C895   C967    1.369   .     S
C896   F962    1.359   .     S
C896   C898    1.401   .     A
C896   C1042   1.373   1_455 S
C899   H923    1.082   .     S
C899   N928    1.366   .     A
C900   N927    1.366   .     A
C900   H924    1.082   .     S
C900   C1123   1.415   .     S
C901   H925    1.082   .     S
C901   N928    1.366   .     A
C902   H926    1.082   .     S
C902   N927    1.366   .     A
C902   C1121   1.415   .     S
C903   O936    1.283   .     A
C903   O933    1.284   .     A
C903   C908    1.428   .     S
C904   C907    1.428   .     S
C904   O935    1.282   .     A
C904   O934    1.283   .     A
C905   H919    1.081   .     S
C905   C915    1.389   .     A
C905   C907    1.386   .     A
C906   H920    1.082   .     S
C906   C908    1.389   .     A
C906   C916    1.387   .     A
C907   C909    1.403   .     A
C908   C910    1.409   .     A
C909   C911    1.403   .     A
C909   S939    1.781   .     S
C910   S944    1.796   .     S
C910   C912    1.407   .     A
C911   C917    1.404   .     A
C911   C913    1.415   .     A
C912   C918    1.401   .     A
C912   C914    1.416   .     A
C913   C915    1.417   .     A
C913   C248    1.401   1_556 S
C914   C916    1.415   .     A
C917   H921    1.080   .     S
C917   C225    1.392   1_556 S
C918   H922    1.077   .     S
N927   Zn937   2.006   .     S
N928   Zn938   2.006   .     S
O929   Zn937   2.009   .     S
O930   Zn938   2.009   .     S
O931   Zn937   2.011   .     S
O932   Zn938   2.011   .     S
O933   Zn937   2.011   .     S
O934   Zn938   2.011   .     S
O935   Zn937   2.009   .     S
O936   Zn938   2.009   .     S
S939   O942    1.678   .     S
S939   O940    1.502   .     D
S939   O941    1.497   .     D
O942   H943    0.991   .     S
S944   O947    1.683   .     S
S944   O945    1.502   .     D
S944   O946    1.498   .     D
O947   H948    0.991   .     S
S949   O952    1.682   .     S
S949   O950    1.503   .     D
S949   O951    1.504   .     D
O952   H953    0.991   .     S
S954   O956    1.505   .     D
S954   O955    1.502   .     D
S954   O957    1.683   .     S
O957   H958    0.990   .     S
C963   O1006   1.282   .     A
C963   C972    1.428   .     S
C963   O1003   1.285   .     A
C964   O1005   1.282   .     A
C964   O1004   1.283   .     A
C964   C971    1.426   .     S
C965   C990    1.413   .     A
C965   S1023   1.777   .     S
C966   C989    1.409   .     A
C966   S1028   1.771   .     S
C966   C326    1.389   1_556 S
C967   F1033   1.359   .     S
C967   C972    1.403   .     A
C968   F1034   1.359   .     S
C968   C971    1.402   .     A
C968   C1044   1.373   .     S
C969   C971    1.400   .     A
C969   F1035   1.359   .     S
C969   C1041   1.369   .     S
C970   F1036   1.359   .     S
C970   C972    1.401   .     A
C973   H997    1.082   .     S
C973   N1002   1.366   .     A
C974   N1001   1.366   .     A
C974   H998    1.082   .     S
C974   C1197   1.415   .     S
C975   H999    1.082   .     S
C975   N1002   1.366   .     A
C976   H1000   1.082   .     S
C976   N1001   1.366   .     A
C976   C1195   1.415   .     S
C977   O1010   1.283   .     A
C977   O1007   1.284   .     A
C977   C982    1.428   .     S
C978   C981    1.428   .     S
C978   O1009   1.282   .     A
C978   O1008   1.283   .     A
C979   H993    1.081   .     S
C979   C989    1.389   .     A
C979   C981    1.386   .     A
C980   H994    1.082   .     S
C980   C982    1.389   .     A
C980   C990    1.387   .     A
C981   C983    1.403   .     A
C982   C984    1.409   .     A
C983   C985    1.403   .     A
C983   S1013   1.781   .     S
C984   S1018   1.796   .     S
C984   C986    1.407   .     A
C985   C991    1.404   .     A
C985   C987    1.415   .     A
C986   C992    1.401   .     A
C986   C988    1.416   .     A
C987   C989    1.417   .     A
C987   C322    1.401   1_556 S
C988   C990    1.415   .     A
C991   H995    1.080   .     S
C991   C299    1.392   1_556 S
C992   H996    1.077   .     S
N1001  Zn1011  2.006   .     S
N1002  Zn1012  2.006   .     S
O1003  Zn1011  2.009   .     S
O1004  Zn1012  2.009   .     S
O1005  Zn1011  2.011   .     S
O1006  Zn1012  2.011   .     S
O1007  Zn1011  2.011   .     S
O1008  Zn1012  2.011   .     S
O1009  Zn1011  2.009   .     S
O1010  Zn1012  2.009   .     S
S1013  O1016   1.678   .     S
S1013  O1014   1.502   .     D
S1013  O1015   1.497   .     D
O1016  H1017   0.991   .     S
S1018  O1021   1.683   .     S
S1018  O1019   1.502   .     D
S1018  O1020   1.498   .     D
O1021  H1022   0.991   .     S
S1023  O1026   1.682   .     S
S1023  O1024   1.503   .     D
S1023  O1025   1.504   .     D
O1026  H1027   0.991   .     S
S1028  O1030   1.505   .     D
S1028  O1029   1.502   .     D
S1028  O1031   1.683   .     S
O1031  H1032   0.990   .     S
C1037  O1080   1.282   .     A
C1037  C1046   1.428   .     S
C1037  O1077   1.285   .     A
C1038  O1079   1.282   .     A
C1038  O1078   1.283   .     A
C1038  C1045   1.426   .     S
C1039  C1064   1.413   .     A
C1039  S1097   1.777   .     S
C1040  C1063   1.409   .     A
C1040  S1102   1.771   .     S
C1040  C400    1.389   1_556 S
C1041  F1107   1.359   .     S
C1041  C1046   1.403   .     A
C1042  F1108   1.359   .     S
C1042  C1045   1.402   .     A
C1042  C896    1.373   1_655 S
C1043  C1045   1.400   .     A
C1043  F1109   1.359   .     S
C1043  C893    1.369   1_655 S
C1044  F1110   1.359   .     S
C1044  C1046   1.401   .     A
C1047  H1071   1.082   .     S
C1047  N1076   1.366   .     A
C1048  N1075   1.366   .     A
C1048  H1072   1.082   .     S
C1048  C1271   1.415   .     S
C1049  H1073   1.082   .     S
C1049  N1076   1.366   .     A
C1050  H1074   1.082   .     S
C1050  N1075   1.366   .     A
C1050  C1269   1.415   .     S
C1051  O1084   1.283   .     A
C1051  O1081   1.284   .     A
C1051  C1056   1.428   .     S
C1052  C1055   1.428   .     S
C1052  O1083   1.282   .     A
C1052  O1082   1.283   .     A
C1053  H1067   1.081   .     S
C1053  C1063   1.389   .     A
C1053  C1055   1.386   .     A
C1054  H1068   1.082   .     S
C1054  C1056   1.389   .     A
C1054  C1064   1.387   .     A
C1055  C1057   1.403   .     A
C1056  C1058   1.409   .     A
C1057  C1059   1.403   .     A
C1057  S1087   1.781   .     S
C1058  S1092   1.796   .     S
C1058  C1060   1.407   .     A
C1059  C1065   1.404   .     A
C1059  C1061   1.415   .     A
C1060  C1066   1.401   .     A
C1060  C1062   1.416   .     A
C1061  C1063   1.417   .     A
C1061  C396    1.401   1_556 S
C1062  C1064   1.415   .     A
C1065  H1069   1.080   .     S
C1065  C373    1.392   1_556 S
C1066  H1070   1.077   .     S
N1075  Zn1085  2.006   .     S
N1076  Zn1086  2.006   .     S
O1077  Zn1085  2.009   .     S
O1078  Zn1086  2.009   .     S
O1079  Zn1085  2.011   .     S
O1080  Zn1086  2.011   .     S
O1081  Zn1085  2.011   .     S
O1082  Zn1086  2.011   .     S
O1083  Zn1085  2.009   .     S
O1084  Zn1086  2.009   .     S
S1087  O1090   1.678   .     S
S1087  O1088   1.502   .     D
S1087  O1089   1.497   .     D
O1090  H1091   0.991   .     S
S1092  O1095   1.683   .     S
S1092  O1093   1.502   .     D
S1092  O1094   1.498   .     D
O1095  H1096   0.991   .     S
S1097  O1100   1.682   .     S
S1097  O1098   1.503   .     D
S1097  O1099   1.504   .     D
O1100  H1101   0.991   .     S
S1102  O1104   1.505   .     D
S1102  O1103   1.502   .     D
S1102  O1105   1.683   .     S
O1105  H1106   0.990   .     S
C1111  O1154   1.282   .     A
C1111  C1120   1.428   .     S
C1111  O1151   1.285   .     A
C1112  O1153   1.282   .     A
C1112  O1152   1.283   .     A
C1112  C1119   1.426   .     S
C1113  C1138   1.413   .     A
C1113  S1171   1.777   .     S
C1114  C1137   1.409   .     A
C1114  S1176   1.771   .     S
C1114  C474    1.389   1_556 S
C1115  F1181   1.359   .     S
C1115  C1120   1.403   .     A
C1115  C1265   1.369   1_455 S
C1116  F1182   1.359   .     S
C1116  C1119   1.402   .     A
C1116  C1192   1.373   .     S
C1117  C1119   1.400   .     A
C1117  F1183   1.359   .     S
C1117  C1189   1.369   .     S
C1118  F1184   1.359   .     S
C1118  C1120   1.401   .     A
C1118  C1264   1.373   1_455 S
C1121  H1145   1.082   .     S
C1121  N1150   1.366   .     A
C1122  N1149   1.366   .     A
C1122  H1146   1.082   .     S
C1122  C679    1.415   1_565 S
C1123  H1147   1.082   .     S
C1123  N1150   1.366   .     A
C1124  H1148   1.082   .     S
C1124  N1149   1.366   .     A
C1124  C677    1.415   1_565 S
C1125  O1158   1.283   .     A
C1125  O1155   1.284   .     A
C1125  C1130   1.428   .     S
C1126  C1129   1.428   .     S
C1126  O1157   1.282   .     A
C1126  O1156   1.283   .     A
C1127  H1141   1.081   .     S
C1127  C1137   1.389   .     A
C1127  C1129   1.386   .     A
C1128  H1142   1.082   .     S
C1128  C1130   1.389   .     A
C1128  C1138   1.387   .     A
C1129  C1131   1.403   .     A
C1130  C1132   1.409   .     A
C1131  C1133   1.403   .     A
C1131  S1161   1.781   .     S
C1132  S1166   1.796   .     S
C1132  C1134   1.407   .     A
C1133  C1139   1.404   .     A
C1133  C1135   1.415   .     A
C1134  C1140   1.401   .     A
C1134  C1136   1.416   .     A
C1135  C1137   1.417   .     A
C1135  C470    1.401   1_556 S
C1136  C1138   1.415   .     A
C1139  H1143   1.080   .     S
C1139  C447    1.392   1_556 S
C1140  H1144   1.077   .     S
N1149  Zn1159  2.006   .     S
N1150  Zn1160  2.006   .     S
O1151  Zn1159  2.009   .     S
O1152  Zn1160  2.009   .     S
O1153  Zn1159  2.011   .     S
O1154  Zn1160  2.011   .     S
O1155  Zn1159  2.011   .     S
O1156  Zn1160  2.011   .     S
O1157  Zn1159  2.009   .     S
O1158  Zn1160  2.009   .     S
S1161  O1164   1.678   .     S
S1161  O1162   1.502   .     D
S1161  O1163   1.497   .     D
O1164  H1165   0.991   .     S
S1166  O1169   1.683   .     S
S1166  O1167   1.502   .     D
S1166  O1168   1.498   .     D
O1169  H1170   0.991   .     S
S1171  O1174   1.682   .     S
S1171  O1172   1.503   .     D
S1171  O1173   1.504   .     D
O1174  H1175   0.991   .     S
S1176  O1178   1.505   .     D
S1176  O1177   1.502   .     D
S1176  O1179   1.683   .     S
O1179  H1180   0.990   .     S
C1185  O1228   1.282   .     A
C1185  C1194   1.428   .     S
C1185  O1225   1.285   .     A
C1186  O1227   1.282   .     A
C1186  O1226   1.283   .     A
C1186  C1193   1.426   .     S
C1187  C1212   1.413   .     A
C1187  S1245   1.777   .     S
C1188  C1211   1.409   .     A
C1188  S1250   1.771   .     S
C1188  C548    1.389   1_556 S
C1189  F1255   1.359   .     S
C1189  C1194   1.403   .     A
C1190  F1256   1.359   .     S
C1190  C1193   1.402   .     A
C1190  C1266   1.373   .     S
C1191  C1193   1.400   .     A
C1191  F1257   1.359   .     S
C1191  C1263   1.369   .     S
C1192  F1258   1.359   .     S
C1192  C1194   1.401   .     A
C1195  H1219   1.082   .     S
C1195  N1224   1.366   .     A
C1196  N1223   1.366   .     A
C1196  H1220   1.082   .     S
C1196  C753    1.415   1_565 S
C1197  H1221   1.082   .     S
C1197  N1224   1.366   .     A
C1198  H1222   1.082   .     S
C1198  N1223   1.366   .     A
C1198  C751    1.415   1_565 S
C1199  O1232   1.283   .     A
C1199  O1229   1.284   .     A
C1199  C1204   1.428   .     S
C1200  C1203   1.428   .     S
C1200  O1231   1.282   .     A
C1200  O1230   1.283   .     A
C1201  H1215   1.081   .     S
C1201  C1211   1.389   .     A
C1201  C1203   1.386   .     A
C1202  H1216   1.082   .     S
C1202  C1204   1.389   .     A
C1202  C1212   1.387   .     A
C1203  C1205   1.403   .     A
C1204  C1206   1.409   .     A
C1205  C1207   1.403   .     A
C1205  S1235   1.781   .     S
C1206  S1240   1.796   .     S
C1206  C1208   1.407   .     A
C1207  C1213   1.404   .     A
C1207  C1209   1.415   .     A
C1208  C1214   1.401   .     A
C1208  C1210   1.416   .     A
C1209  C1211   1.417   .     A
C1209  C544    1.401   1_556 S
C1210  C1212   1.415   .     A
C1213  H1217   1.080   .     S
C1213  C521    1.392   1_556 S
C1214  H1218   1.077   .     S
N1223  Zn1233  2.006   .     S
N1224  Zn1234  2.006   .     S
O1225  Zn1233  2.009   .     S
O1226  Zn1234  2.009   .     S
O1227  Zn1233  2.011   .     S
O1228  Zn1234  2.011   .     S
O1229  Zn1233  2.011   .     S
O1230  Zn1234  2.011   .     S
O1231  Zn1233  2.009   .     S
O1232  Zn1234  2.009   .     S
S1235  O1238   1.678   .     S
S1235  O1236   1.502   .     D
S1235  O1237   1.497   .     D
O1238  H1239   0.991   .     S
S1240  O1243   1.683   .     S
S1240  O1241   1.502   .     D
S1240  O1242   1.498   .     D
O1243  H1244   0.991   .     S
S1245  O1248   1.682   .     S
S1245  O1246   1.503   .     D
S1245  O1247   1.504   .     D
O1248  H1249   0.991   .     S
S1250  O1252   1.505   .     D
S1250  O1251   1.502   .     D
S1250  O1253   1.683   .     S
O1253  H1254   0.990   .     S
C1259  O1302   1.282   .     A
C1259  C1268   1.428   .     S
C1259  O1299   1.285   .     A
C1260  O1301   1.282   .     A
C1260  O1300   1.283   .     A
C1260  C1267   1.426   .     S
C1261  C1286   1.413   .     A
C1261  S1319   1.777   .     S
C1262  C1285   1.409   .     A
C1262  S1324   1.771   .     S
C1262  C622    1.389   1_556 S
C1263  F1329   1.359   .     S
C1263  C1268   1.403   .     A
C1264  F1330   1.359   .     S
C1264  C1267   1.402   .     A
C1264  C1118   1.373   1_655 S
C1265  C1267   1.400   .     A
C1265  F1331   1.359   .     S
C1265  C1115   1.369   1_655 S
C1266  F1332   1.359   .     S
C1266  C1268   1.401   .     A
C1269  H1293   1.082   .     S
C1269  N1298   1.366   .     A
C1270  N1297   1.366   .     A
C1270  H1294   1.082   .     S
C1270  C827    1.415   1_565 S
C1271  H1295   1.082   .     S
C1271  N1298   1.366   .     A
C1272  H1296   1.082   .     S
C1272  N1297   1.366   .     A
C1272  C825    1.415   1_565 S
C1273  O1306   1.283   .     A
C1273  O1303   1.284   .     A
C1273  C1278   1.428   .     S
C1274  C1277   1.428   .     S
C1274  O1305   1.282   .     A
C1274  O1304   1.283   .     A
C1275  H1289   1.081   .     S
C1275  C1285   1.389   .     A
C1275  C1277   1.386   .     A
C1276  H1290   1.082   .     S
C1276  C1278   1.389   .     A
C1276  C1286   1.387   .     A
C1277  C1279   1.403   .     A
C1278  C1280   1.409   .     A
C1279  C1281   1.403   .     A
C1279  S1309   1.781   .     S
C1280  S1314   1.796   .     S
C1280  C1282   1.407   .     A
C1281  C1287   1.404   .     A
C1281  C1283   1.415   .     A
C1282  C1288   1.401   .     A
C1282  C1284   1.416   .     A
C1283  C1285   1.417   .     A
C1283  C618    1.401   1_556 S
C1284  C1286   1.415   .     A
C1287  H1291   1.080   .     S
C1287  C595    1.392   1_556 S
C1288  H1292   1.077   .     S
N1297  Zn1307  2.006   .     S
N1298  Zn1308  2.006   .     S
O1299  Zn1307  2.009   .     S
O1300  Zn1308  2.009   .     S
O1301  Zn1307  2.011   .     S
O1302  Zn1308  2.011   .     S
O1303  Zn1307  2.011   .     S
O1304  Zn1308  2.011   .     S
O1305  Zn1307  2.009   .     S
O1306  Zn1308  2.009   .     S
S1309  O1312   1.678   .     S
S1309  O1310   1.502   .     D
S1309  O1311   1.497   .     D
O1312  H1313   0.991   .     S
S1314  O1317   1.683   .     S
S1314  O1315   1.502   .     D
S1314  O1316   1.498   .     D
O1317  H1318   0.991   .     S
S1319  O1322   1.682   .     S
S1319  O1320   1.503   .     D
S1319  O1321   1.504   .     D
O1322  H1323   0.991   .     S
S1324  O1326   1.505   .     D
S1324  O1325   1.502   .     D
S1324  O1327   1.683   .     S
O1327  H1328   0.990   .     S
