data_str_m2_o10_o16_pcu_sym.110
_audit_creation_date              2020-01-03
_audit_creation_method            'Materials Studio'
_symmetry_space_group_name_H-M    'P1'
_symmetry_Int_Tables_number       1
_symmetry_cell_setting            triclinic
loop_
_symmetry_equiv_pos_as_xyz
  x,y,z
_cell_length_a                    22.4953
_cell_length_b                    26.0698
_cell_length_c                    27.1828
_cell_angle_alpha                 95.1902
_cell_angle_beta                  79.0684
_cell_angle_gamma                 102.9684
loop_
_atom_site_label
_atom_site_type_symbol
_atom_site_fract_x
_atom_site_fract_y
_atom_site_fract_z
_atom_site_U_iso_or_equiv
_atom_site_adp_type
_atom_site_occupancy
C1     C     0.18159   0.26666   0.25189   0.00000  Uiso   1.00
C2     C     0.14251   0.14817   0.48491   0.00000  Uiso   1.00
C3     C     0.16270   0.15261   0.43232   0.00000  Uiso   1.00
C4     C     0.18728   0.16358   0.01750   0.00000  Uiso   1.00
C5     C     0.25020   0.18427   0.49718   0.00000  Uiso   1.00
C6     C     0.26934   0.18366   0.44602   0.00000  Uiso   1.00
C7     C     0.22748   0.16342   0.41464   0.00000  Uiso   1.00
C8     C     0.17218   0.15906   0.06952   0.00000  Uiso   1.00
C9     C     0.27874   0.19645   0.07918   0.00000  Uiso   1.00
C10    C     0.11760   0.14523   0.39975   0.00000  Uiso   1.00
C11    C     0.18960   0.32267   0.25351   0.00000  Uiso   1.00
C12    C     0.13411   0.15899   0.34619   0.00000  Uiso   1.00
C13    C     0.14337   0.01066   0.24714   0.00000  Uiso   1.00
C14    C     0.15164   0.06667   0.24834   0.00000  Uiso   1.00
C15    C     0.19942   0.17028   0.15380   0.00000  Uiso   1.00
C16    C     0.29484   0.20173   0.02797   0.00000  Uiso   1.00
C17    C     0.21760   0.17471   0.09996   0.00000  Uiso   1.00
C18    C     0.05569   0.12353   0.41884   0.00000  Uiso   1.00
C19    C     0.03702   0.11351   0.46937   0.00000  Uiso   1.00
C20    C     0.07893   0.12748   0.00244   0.00000  Uiso   1.00
Cu21   Cu    0.10710   0.16105   0.24435   0.00000  Uiso   1.00
Cu22   Cu    0.22623   0.17228   0.25565   0.00000  Uiso   1.00
H23    H     0.09895   0.32022   0.24073   0.00000  Uiso   1.00
H24    H     0.31794   0.19577   0.43035   0.00000  Uiso   1.00
H25    H     0.00936   0.21801   0.01219   0.00000  Uiso   1.00
H26    H     0.12562   0.14278   0.08731   0.00000  Uiso   1.00
H27    H     0.02129   0.11434   0.39456   0.00000  Uiso   1.00
H28    H     0.05988   0.12100   0.04135   0.00000  Uiso   1.00
H29    H     0.32223   0.09659   0.48347   0.00000  Uiso   1.00
H30    H     0.24895   0.15331   0.37750   0.00000  Uiso   1.00
H31    H     0.23386   0.01315   0.26015   0.00000  Uiso   1.00
N32    N     0.31574   0.18074   0.26416   0.00000  Uiso   1.00
N33    N     0.01759   0.15259   0.23584   0.00000  Uiso   1.00
O34    O     0.12797   0.23807   0.24633   0.00000  Uiso   1.00
O35    O     0.22858   0.24755   0.25587   0.00000  Uiso   1.00
O36    O     0.09181   0.15960   0.31839   0.00000  Uiso   1.00
O37    O     0.19242   0.16908   0.32793   0.00000  Uiso   1.00
O38    O     0.10476   0.08578   0.24413   0.00000  Uiso   1.00
O39    O     0.20536   0.09526   0.25367   0.00000  Uiso   1.00
O40    O     0.14092   0.16425   0.17207   0.00000  Uiso   1.00
O41    O     0.24152   0.17373   0.18161   0.00000  Uiso   1.00
H42    H     0.31396   0.20948   0.10246   0.00000  Uiso   1.00
O43    O     0.01329   0.23003   0.27358   0.00000  Uiso   1.00
C44    C     0.32815   0.24367   0.32428   0.00000  Uiso   1.00
H45    H     0.27848   0.24529   0.33304   0.00000  Uiso   1.00
H46    H     0.02160   0.28366   0.33280   0.00000  Uiso   1.00
H47    H     0.00611   0.21634   0.34825   0.00000  Uiso   1.00
O48    O     0.32279   0.12377   0.19962   0.00000  Uiso   1.00
C49    C     0.01149   0.07728   0.18781   0.00000  Uiso   1.00
H50    H     0.00426   0.05418   0.22161   0.00000  Uiso   1.00
H51    H     0.06005   0.08519   0.16791   0.00000  Uiso   1.00
H52    H     0.31693   0.05241   0.16147   0.00000  Uiso   1.00
C53    C     0.51492   0.26666   0.25189   0.00000  Uiso   1.00
C54    C     0.47584   0.14817   0.48491   0.00000  Uiso   1.00
C55    C     0.49604   0.15261   0.43232   0.00000  Uiso   1.00
C56    C     0.52061   0.16358   0.01750   0.00000  Uiso   1.00
C57    C     0.58354   0.18427   0.49718   0.00000  Uiso   1.00
C58    C     0.60267   0.18366   0.44602   0.00000  Uiso   1.00
C59    C     0.56082   0.16342   0.41464   0.00000  Uiso   1.00
C60    C     0.50551   0.15906   0.06952   0.00000  Uiso   1.00
C61    C     0.61208   0.19645   0.07918   0.00000  Uiso   1.00
C62    C     0.45093   0.14523   0.39975   0.00000  Uiso   1.00
C63    C     0.52293   0.32267   0.25351   0.00000  Uiso   1.00
C64    C     0.46745   0.15899   0.34619   0.00000  Uiso   1.00
C65    C     0.47670   0.01066   0.24714   0.00000  Uiso   1.00
C66    C     0.48498   0.06667   0.24834   0.00000  Uiso   1.00
C67    C     0.53275   0.17028   0.15380   0.00000  Uiso   1.00
C68    C     0.62817   0.20173   0.02797   0.00000  Uiso   1.00
C69    C     0.55093   0.17471   0.09996   0.00000  Uiso   1.00
C70    C     0.38902   0.12353   0.41884   0.00000  Uiso   1.00
C71    C     0.37036   0.11351   0.46937   0.00000  Uiso   1.00
C72    C     0.41226   0.12748   0.00244   0.00000  Uiso   1.00
Cu73   Cu    0.44043   0.16105   0.24435   0.00000  Uiso   1.00
Cu74   Cu    0.55957   0.17228   0.25565   0.00000  Uiso   1.00
H75    H     0.43228   0.32022   0.24073   0.00000  Uiso   1.00
H76    H     0.65127   0.19577   0.43035   0.00000  Uiso   1.00
H77    H     0.34270   0.21801   0.01219   0.00000  Uiso   1.00
H78    H     0.45895   0.14278   0.08731   0.00000  Uiso   1.00
H79    H     0.35463   0.11434   0.39456   0.00000  Uiso   1.00
H80    H     0.39322   0.12100   0.04135   0.00000  Uiso   1.00
H81    H     0.65556   0.09659   0.48347   0.00000  Uiso   1.00
H82    H     0.58228   0.15331   0.37750   0.00000  Uiso   1.00
H83    H     0.56719   0.01315   0.26015   0.00000  Uiso   1.00
N84    N     0.64908   0.18074   0.26416   0.00000  Uiso   1.00
N85    N     0.35092   0.15259   0.23584   0.00000  Uiso   1.00
O86    O     0.46131   0.23807   0.24633   0.00000  Uiso   1.00
O87    O     0.56191   0.24755   0.25587   0.00000  Uiso   1.00
O88    O     0.42515   0.15960   0.31839   0.00000  Uiso   1.00
O89    O     0.52575   0.16908   0.32793   0.00000  Uiso   1.00
O90    O     0.43809   0.08578   0.24413   0.00000  Uiso   1.00
O91    O     0.53869   0.09526   0.25367   0.00000  Uiso   1.00
O92    O     0.47425   0.16425   0.17207   0.00000  Uiso   1.00
O93    O     0.57485   0.17373   0.18161   0.00000  Uiso   1.00
H94    H     0.64730   0.20948   0.10246   0.00000  Uiso   1.00
O95    O     0.34663   0.23003   0.27358   0.00000  Uiso   1.00
C96    C     0.66149   0.24367   0.32428   0.00000  Uiso   1.00
H97    H     0.61181   0.24529   0.33304   0.00000  Uiso   1.00
H98    H     0.35494   0.28366   0.33280   0.00000  Uiso   1.00
H99    H     0.33944   0.21634   0.34825   0.00000  Uiso   1.00
O100   O     0.65613   0.12377   0.19962   0.00000  Uiso   1.00
C101   C     0.34482   0.07728   0.18781   0.00000  Uiso   1.00
H102   H     0.33759   0.05418   0.22161   0.00000  Uiso   1.00
H103   H     0.39338   0.08519   0.16791   0.00000  Uiso   1.00
H104   H     0.65026   0.05241   0.16147   0.00000  Uiso   1.00
C105   C     0.84825   0.26666   0.25189   0.00000  Uiso   1.00
C106   C     0.80918   0.14817   0.48491   0.00000  Uiso   1.00
C107   C     0.82937   0.15261   0.43232   0.00000  Uiso   1.00
C108   C     0.85394   0.16358   0.01750   0.00000  Uiso   1.00
C109   C     0.91687   0.18427   0.49718   0.00000  Uiso   1.00
C110   C     0.93601   0.18366   0.44602   0.00000  Uiso   1.00
C111   C     0.89415   0.16342   0.41464   0.00000  Uiso   1.00
C112   C     0.83885   0.15906   0.06952   0.00000  Uiso   1.00
C113   C     0.94541   0.19645   0.07918   0.00000  Uiso   1.00
C114   C     0.78427   0.14523   0.39975   0.00000  Uiso   1.00
C115   C     0.85627   0.32267   0.25351   0.00000  Uiso   1.00
C116   C     0.80078   0.15899   0.34619   0.00000  Uiso   1.00
C117   C     0.81004   0.01066   0.24714   0.00000  Uiso   1.00
C118   C     0.81831   0.06667   0.24834   0.00000  Uiso   1.00
C119   C     0.86608   0.17028   0.15380   0.00000  Uiso   1.00
C120   C     0.96150   0.20173   0.02797   0.00000  Uiso   1.00
C121   C     0.88427   0.17471   0.09996   0.00000  Uiso   1.00
C122   C     0.72235   0.12353   0.41884   0.00000  Uiso   1.00
C123   C     0.70369   0.11351   0.46937   0.00000  Uiso   1.00
C124   C     0.74560   0.12748   0.00244   0.00000  Uiso   1.00
Cu125  Cu    0.77377   0.16105   0.24435   0.00000  Uiso   1.00
Cu126  Cu    0.89290   0.17228   0.25565   0.00000  Uiso   1.00
H127   H     0.76561   0.32022   0.24073   0.00000  Uiso   1.00
H128   H     0.98461   0.19577   0.43035   0.00000  Uiso   1.00
H129   H     0.67603   0.21801   0.01219   0.00000  Uiso   1.00
H130   H     0.79228   0.14278   0.08731   0.00000  Uiso   1.00
H131   H     0.68796   0.11434   0.39456   0.00000  Uiso   1.00
H132   H     0.72655   0.12100   0.04135   0.00000  Uiso   1.00
H133   H     0.98890   0.09659   0.48347   0.00000  Uiso   1.00
H134   H     0.91561   0.15331   0.37750   0.00000  Uiso   1.00
H135   H     0.90052   0.01315   0.26015   0.00000  Uiso   1.00
N136   N     0.98241   0.18074   0.26416   0.00000  Uiso   1.00
N137   N     0.68426   0.15259   0.23584   0.00000  Uiso   1.00
O138   O     0.79464   0.23807   0.24633   0.00000  Uiso   1.00
O139   O     0.89524   0.24755   0.25587   0.00000  Uiso   1.00
O140   O     0.75848   0.15960   0.31839   0.00000  Uiso   1.00
O141   O     0.85908   0.16908   0.32793   0.00000  Uiso   1.00
O142   O     0.77142   0.08578   0.24413   0.00000  Uiso   1.00
O143   O     0.87203   0.09526   0.25367   0.00000  Uiso   1.00
O144   O     0.80758   0.16425   0.17207   0.00000  Uiso   1.00
O145   O     0.90819   0.17373   0.18161   0.00000  Uiso   1.00
H146   H     0.98063   0.20948   0.10246   0.00000  Uiso   1.00
O147   O     0.67996   0.23003   0.27358   0.00000  Uiso   1.00
C148   C     0.99482   0.24367   0.32428   0.00000  Uiso   1.00
H149   H     0.94514   0.24529   0.33304   0.00000  Uiso   1.00
H150   H     0.68827   0.28366   0.33280   0.00000  Uiso   1.00
H151   H     0.67278   0.21634   0.34825   0.00000  Uiso   1.00
O152   O     0.98946   0.12377   0.19962   0.00000  Uiso   1.00
C153   C     0.67816   0.07728   0.18781   0.00000  Uiso   1.00
H154   H     0.67093   0.05418   0.22161   0.00000  Uiso   1.00
H155   H     0.72671   0.08519   0.16791   0.00000  Uiso   1.00
H156   H     0.98359   0.05241   0.16147   0.00000  Uiso   1.00
C157   C     0.18159   0.60000   0.25189   0.00000  Uiso   1.00
C158   C     0.14251   0.48150   0.48491   0.00000  Uiso   1.00
C159   C     0.16270   0.48594   0.43232   0.00000  Uiso   1.00
C160   C     0.18728   0.49692   0.01750   0.00000  Uiso   1.00
C161   C     0.25020   0.51761   0.49718   0.00000  Uiso   1.00
C162   C     0.26934   0.51699   0.44602   0.00000  Uiso   1.00
C163   C     0.22748   0.49675   0.41464   0.00000  Uiso   1.00
C164   C     0.17218   0.49239   0.06952   0.00000  Uiso   1.00
C165   C     0.27874   0.52978   0.07918   0.00000  Uiso   1.00
C166   C     0.11760   0.47856   0.39975   0.00000  Uiso   1.00
C167   C     0.18960   0.65600   0.25351   0.00000  Uiso   1.00
C168   C     0.13411   0.49232   0.34619   0.00000  Uiso   1.00
C169   C     0.14337   0.34399   0.24714   0.00000  Uiso   1.00
C170   C     0.15164   0.40000   0.24834   0.00000  Uiso   1.00
C171   C     0.19942   0.50362   0.15380   0.00000  Uiso   1.00
C172   C     0.29484   0.53507   0.02797   0.00000  Uiso   1.00
C173   C     0.21760   0.50804   0.09996   0.00000  Uiso   1.00
C174   C     0.05569   0.45686   0.41884   0.00000  Uiso   1.00
C175   C     0.03702   0.44684   0.46937   0.00000  Uiso   1.00
C176   C     0.07893   0.46081   0.00244   0.00000  Uiso   1.00
Cu177  Cu    0.10710   0.49439   0.24435   0.00000  Uiso   1.00
Cu178  Cu    0.22623   0.50561   0.25565   0.00000  Uiso   1.00
H179   H     0.09895   0.65356   0.24073   0.00000  Uiso   1.00
H180   H     0.31794   0.52911   0.43035   0.00000  Uiso   1.00
H181   H     0.00936   0.55134   0.01219   0.00000  Uiso   1.00
H182   H     0.12562   0.47612   0.08731   0.00000  Uiso   1.00
H183   H     0.02129   0.44767   0.39456   0.00000  Uiso   1.00
H184   H     0.05988   0.45434   0.04135   0.00000  Uiso   1.00
H185   H     0.32223   0.42992   0.48347   0.00000  Uiso   1.00
H186   H     0.24895   0.48665   0.37750   0.00000  Uiso   1.00
H187   H     0.23386   0.34648   0.26015   0.00000  Uiso   1.00
N188   N     0.31574   0.51407   0.26416   0.00000  Uiso   1.00
N189   N     0.01759   0.48593   0.23584   0.00000  Uiso   1.00
O190   O     0.12797   0.57141   0.24633   0.00000  Uiso   1.00
O191   O     0.22858   0.58089   0.25587   0.00000  Uiso   1.00
O192   O     0.09181   0.49293   0.31839   0.00000  Uiso   1.00
O193   O     0.19242   0.50241   0.32793   0.00000  Uiso   1.00
O194   O     0.10476   0.41911   0.24413   0.00000  Uiso   1.00
O195   O     0.20536   0.42859   0.25367   0.00000  Uiso   1.00
O196   O     0.14092   0.49759   0.17207   0.00000  Uiso   1.00
O197   O     0.24152   0.50707   0.18161   0.00000  Uiso   1.00
H198   H     0.31396   0.54281   0.10246   0.00000  Uiso   1.00
O199   O     0.01329   0.56337   0.27358   0.00000  Uiso   1.00
C200   C     0.32815   0.57701   0.32428   0.00000  Uiso   1.00
H201   H     0.27848   0.57862   0.33304   0.00000  Uiso   1.00
H202   H     0.02160   0.61699   0.33280   0.00000  Uiso   1.00
H203   H     0.00611   0.54967   0.34825   0.00000  Uiso   1.00
O204   O     0.32279   0.45710   0.19962   0.00000  Uiso   1.00
C205   C     0.01149   0.41062   0.18781   0.00000  Uiso   1.00
H206   H     0.00426   0.38751   0.22161   0.00000  Uiso   1.00
H207   H     0.06005   0.41852   0.16791   0.00000  Uiso   1.00
H208   H     0.31693   0.38575   0.16147   0.00000  Uiso   1.00
C209   C     0.51492   0.60000   0.25189   0.00000  Uiso   1.00
C210   C     0.47584   0.48150   0.48491   0.00000  Uiso   1.00
C211   C     0.49604   0.48594   0.43232   0.00000  Uiso   1.00
C212   C     0.52061   0.49692   0.01750   0.00000  Uiso   1.00
C213   C     0.58354   0.51761   0.49718   0.00000  Uiso   1.00
C214   C     0.60267   0.51699   0.44602   0.00000  Uiso   1.00
C215   C     0.56082   0.49675   0.41464   0.00000  Uiso   1.00
C216   C     0.50551   0.49239   0.06952   0.00000  Uiso   1.00
C217   C     0.61208   0.52978   0.07918   0.00000  Uiso   1.00
C218   C     0.45093   0.47856   0.39975   0.00000  Uiso   1.00
C219   C     0.52293   0.65600   0.25351   0.00000  Uiso   1.00
C220   C     0.46745   0.49232   0.34619   0.00000  Uiso   1.00
C221   C     0.47670   0.34399   0.24714   0.00000  Uiso   1.00
C222   C     0.48498   0.40000   0.24834   0.00000  Uiso   1.00
C223   C     0.53275   0.50362   0.15380   0.00000  Uiso   1.00
C224   C     0.62817   0.53507   0.02797   0.00000  Uiso   1.00
C225   C     0.55093   0.50804   0.09996   0.00000  Uiso   1.00
C226   C     0.38902   0.45686   0.41884   0.00000  Uiso   1.00
C227   C     0.37036   0.44684   0.46937   0.00000  Uiso   1.00
C228   C     0.41226   0.46081   0.00244   0.00000  Uiso   1.00
Cu229  Cu    0.44043   0.49439   0.24435   0.00000  Uiso   1.00
Cu230  Cu    0.55957   0.50561   0.25565   0.00000  Uiso   1.00
H231   H     0.43228   0.65356   0.24073   0.00000  Uiso   1.00
H232   H     0.65127   0.52911   0.43035   0.00000  Uiso   1.00
H233   H     0.34270   0.55134   0.01219   0.00000  Uiso   1.00
H234   H     0.45895   0.47612   0.08731   0.00000  Uiso   1.00
H235   H     0.35463   0.44767   0.39456   0.00000  Uiso   1.00
H236   H     0.39322   0.45434   0.04135   0.00000  Uiso   1.00
H237   H     0.65556   0.42992   0.48347   0.00000  Uiso   1.00
H238   H     0.58228   0.48665   0.37750   0.00000  Uiso   1.00
H239   H     0.56719   0.34648   0.26015   0.00000  Uiso   1.00
N240   N     0.64908   0.51407   0.26416   0.00000  Uiso   1.00
N241   N     0.35092   0.48593   0.23584   0.00000  Uiso   1.00
O242   O     0.46131   0.57141   0.24633   0.00000  Uiso   1.00
O243   O     0.56191   0.58089   0.25587   0.00000  Uiso   1.00
O244   O     0.42515   0.49293   0.31839   0.00000  Uiso   1.00
O245   O     0.52575   0.50241   0.32793   0.00000  Uiso   1.00
O246   O     0.43809   0.41911   0.24413   0.00000  Uiso   1.00
O247   O     0.53869   0.42859   0.25367   0.00000  Uiso   1.00
O248   O     0.47425   0.49759   0.17207   0.00000  Uiso   1.00
O249   O     0.57485   0.50707   0.18161   0.00000  Uiso   1.00
H250   H     0.64730   0.54281   0.10246   0.00000  Uiso   1.00
O251   O     0.34663   0.56337   0.27358   0.00000  Uiso   1.00
C252   C     0.66149   0.57701   0.32428   0.00000  Uiso   1.00
H253   H     0.61181   0.57862   0.33304   0.00000  Uiso   1.00
H254   H     0.35494   0.61699   0.33280   0.00000  Uiso   1.00
H255   H     0.33944   0.54967   0.34825   0.00000  Uiso   1.00
O256   O     0.65613   0.45710   0.19962   0.00000  Uiso   1.00
C257   C     0.34482   0.41062   0.18781   0.00000  Uiso   1.00
H258   H     0.33759   0.38751   0.22161   0.00000  Uiso   1.00
H259   H     0.39338   0.41852   0.16791   0.00000  Uiso   1.00
H260   H     0.65026   0.38575   0.16147   0.00000  Uiso   1.00
C261   C     0.84825   0.60000   0.25189   0.00000  Uiso   1.00
C262   C     0.80918   0.48150   0.48491   0.00000  Uiso   1.00
C263   C     0.82937   0.48594   0.43232   0.00000  Uiso   1.00
C264   C     0.85394   0.49692   0.01750   0.00000  Uiso   1.00
C265   C     0.91687   0.51761   0.49718   0.00000  Uiso   1.00
C266   C     0.93601   0.51699   0.44602   0.00000  Uiso   1.00
C267   C     0.89415   0.49675   0.41464   0.00000  Uiso   1.00
C268   C     0.83885   0.49239   0.06952   0.00000  Uiso   1.00
C269   C     0.94541   0.52978   0.07918   0.00000  Uiso   1.00
C270   C     0.78427   0.47856   0.39975   0.00000  Uiso   1.00
C271   C     0.85627   0.65600   0.25351   0.00000  Uiso   1.00
C272   C     0.80078   0.49232   0.34619   0.00000  Uiso   1.00
C273   C     0.81004   0.34399   0.24714   0.00000  Uiso   1.00
C274   C     0.81831   0.40000   0.24834   0.00000  Uiso   1.00
C275   C     0.86608   0.50362   0.15380   0.00000  Uiso   1.00
C276   C     0.96150   0.53507   0.02797   0.00000  Uiso   1.00
C277   C     0.88427   0.50804   0.09996   0.00000  Uiso   1.00
C278   C     0.72235   0.45686   0.41884   0.00000  Uiso   1.00
C279   C     0.70369   0.44684   0.46937   0.00000  Uiso   1.00
C280   C     0.74560   0.46081   0.00244   0.00000  Uiso   1.00
Cu281  Cu    0.77377   0.49439   0.24435   0.00000  Uiso   1.00
Cu282  Cu    0.89290   0.50561   0.25565   0.00000  Uiso   1.00
H283   H     0.76561   0.65356   0.24073   0.00000  Uiso   1.00
H284   H     0.98461   0.52911   0.43035   0.00000  Uiso   1.00
H285   H     0.67603   0.55134   0.01219   0.00000  Uiso   1.00
H286   H     0.79228   0.47612   0.08731   0.00000  Uiso   1.00
H287   H     0.68796   0.44767   0.39456   0.00000  Uiso   1.00
H288   H     0.72655   0.45434   0.04135   0.00000  Uiso   1.00
H289   H     0.98890   0.42992   0.48347   0.00000  Uiso   1.00
H290   H     0.91561   0.48665   0.37750   0.00000  Uiso   1.00
H291   H     0.90052   0.34648   0.26015   0.00000  Uiso   1.00
N292   N     0.98241   0.51407   0.26416   0.00000  Uiso   1.00
N293   N     0.68426   0.48593   0.23584   0.00000  Uiso   1.00
O294   O     0.79464   0.57141   0.24633   0.00000  Uiso   1.00
O295   O     0.89524   0.58089   0.25587   0.00000  Uiso   1.00
O296   O     0.75848   0.49293   0.31839   0.00000  Uiso   1.00
O297   O     0.85908   0.50241   0.32793   0.00000  Uiso   1.00
O298   O     0.77142   0.41911   0.24413   0.00000  Uiso   1.00
O299   O     0.87203   0.42859   0.25367   0.00000  Uiso   1.00
O300   O     0.80758   0.49759   0.17207   0.00000  Uiso   1.00
O301   O     0.90819   0.50707   0.18161   0.00000  Uiso   1.00
H302   H     0.98063   0.54281   0.10246   0.00000  Uiso   1.00
O303   O     0.67996   0.56337   0.27358   0.00000  Uiso   1.00
C304   C     0.99482   0.57701   0.32428   0.00000  Uiso   1.00
H305   H     0.94514   0.57862   0.33304   0.00000  Uiso   1.00
H306   H     0.68827   0.61699   0.33280   0.00000  Uiso   1.00
H307   H     0.67278   0.54967   0.34825   0.00000  Uiso   1.00
O308   O     0.98946   0.45710   0.19962   0.00000  Uiso   1.00
C309   C     0.67816   0.41062   0.18781   0.00000  Uiso   1.00
H310   H     0.67093   0.38751   0.22161   0.00000  Uiso   1.00
H311   H     0.72671   0.41852   0.16791   0.00000  Uiso   1.00
H312   H     0.98359   0.38575   0.16147   0.00000  Uiso   1.00
C313   C     0.18159   0.93333   0.25189   0.00000  Uiso   1.00
C314   C     0.14251   0.81483   0.48491   0.00000  Uiso   1.00
C315   C     0.16270   0.81927   0.43232   0.00000  Uiso   1.00
C316   C     0.18728   0.83025   0.01750   0.00000  Uiso   1.00
C317   C     0.25020   0.85094   0.49718   0.00000  Uiso   1.00
C318   C     0.26934   0.85033   0.44602   0.00000  Uiso   1.00
C319   C     0.22748   0.83008   0.41464   0.00000  Uiso   1.00
C320   C     0.17218   0.82572   0.06952   0.00000  Uiso   1.00
C321   C     0.27874   0.86311   0.07918   0.00000  Uiso   1.00
C322   C     0.11760   0.81189   0.39975   0.00000  Uiso   1.00
C323   C     0.18960   0.98934   0.25351   0.00000  Uiso   1.00
C324   C     0.13411   0.82565   0.34619   0.00000  Uiso   1.00
C325   C     0.14337   0.67733   0.24714   0.00000  Uiso   1.00
C326   C     0.15164   0.73334   0.24834   0.00000  Uiso   1.00
C327   C     0.19942   0.83695   0.15380   0.00000  Uiso   1.00
C328   C     0.29484   0.86840   0.02797   0.00000  Uiso   1.00
C329   C     0.21760   0.84138   0.09996   0.00000  Uiso   1.00
C330   C     0.05569   0.79020   0.41884   0.00000  Uiso   1.00
C331   C     0.03702   0.78017   0.46937   0.00000  Uiso   1.00
C332   C     0.07893   0.79415   0.00244   0.00000  Uiso   1.00
Cu333  Cu    0.10710   0.82772   0.24435   0.00000  Uiso   1.00
Cu334  Cu    0.22623   0.83895   0.25565   0.00000  Uiso   1.00
H335   H     0.09895   0.98689   0.24073   0.00000  Uiso   1.00
H336   H     0.31794   0.86244   0.43035   0.00000  Uiso   1.00
H337   H     0.00936   0.88467   0.01219   0.00000  Uiso   1.00
H338   H     0.12562   0.80945   0.08731   0.00000  Uiso   1.00
H339   H     0.02129   0.78101   0.39456   0.00000  Uiso   1.00
H340   H     0.05988   0.78767   0.04135   0.00000  Uiso   1.00
H341   H     0.32223   0.76326   0.48347   0.00000  Uiso   1.00
H342   H     0.24895   0.81998   0.37750   0.00000  Uiso   1.00
H343   H     0.23386   0.67981   0.26015   0.00000  Uiso   1.00
N344   N     0.31574   0.84741   0.26416   0.00000  Uiso   1.00
N345   N     0.01759   0.81926   0.23584   0.00000  Uiso   1.00
O346   O     0.12797   0.90474   0.24633   0.00000  Uiso   1.00
O347   O     0.22858   0.91422   0.25587   0.00000  Uiso   1.00
O348   O     0.09181   0.82627   0.31839   0.00000  Uiso   1.00
O349   O     0.19242   0.83575   0.32793   0.00000  Uiso   1.00
O350   O     0.10476   0.75245   0.24413   0.00000  Uiso   1.00
O351   O     0.20536   0.76193   0.25367   0.00000  Uiso   1.00
O352   O     0.14092   0.83092   0.17207   0.00000  Uiso   1.00
O353   O     0.24152   0.84040   0.18161   0.00000  Uiso   1.00
H354   H     0.31396   0.87614   0.10246   0.00000  Uiso   1.00
O355   O     0.01329   0.89670   0.27358   0.00000  Uiso   1.00
C356   C     0.32815   0.91034   0.32428   0.00000  Uiso   1.00
H357   H     0.27848   0.91196   0.33304   0.00000  Uiso   1.00
H358   H     0.02160   0.95033   0.33280   0.00000  Uiso   1.00
H359   H     0.00611   0.88300   0.34825   0.00000  Uiso   1.00
O360   O     0.32279   0.79044   0.19962   0.00000  Uiso   1.00
C361   C     0.01149   0.74395   0.18781   0.00000  Uiso   1.00
H362   H     0.00426   0.72084   0.22161   0.00000  Uiso   1.00
H363   H     0.06005   0.75185   0.16791   0.00000  Uiso   1.00
H364   H     0.31693   0.71908   0.16147   0.00000  Uiso   1.00
C365   C     0.51492   0.93333   0.25189   0.00000  Uiso   1.00
C366   C     0.47584   0.81483   0.48491   0.00000  Uiso   1.00
C367   C     0.49604   0.81927   0.43232   0.00000  Uiso   1.00
C368   C     0.52061   0.83025   0.01750   0.00000  Uiso   1.00
C369   C     0.58354   0.85094   0.49718   0.00000  Uiso   1.00
C370   C     0.60267   0.85033   0.44602   0.00000  Uiso   1.00
C371   C     0.56082   0.83008   0.41464   0.00000  Uiso   1.00
C372   C     0.50551   0.82572   0.06952   0.00000  Uiso   1.00
C373   C     0.61208   0.86311   0.07918   0.00000  Uiso   1.00
C374   C     0.45093   0.81189   0.39975   0.00000  Uiso   1.00
C375   C     0.52293   0.98934   0.25351   0.00000  Uiso   1.00
C376   C     0.46745   0.82565   0.34619   0.00000  Uiso   1.00
C377   C     0.47670   0.67733   0.24714   0.00000  Uiso   1.00
C378   C     0.48498   0.73334   0.24834   0.00000  Uiso   1.00
C379   C     0.53275   0.83695   0.15380   0.00000  Uiso   1.00
C380   C     0.62817   0.86840   0.02797   0.00000  Uiso   1.00
C381   C     0.55093   0.84138   0.09996   0.00000  Uiso   1.00
C382   C     0.38902   0.79020   0.41884   0.00000  Uiso   1.00
C383   C     0.37036   0.78017   0.46937   0.00000  Uiso   1.00
C384   C     0.41226   0.79415   0.00244   0.00000  Uiso   1.00
Cu385  Cu    0.44043   0.82772   0.24435   0.00000  Uiso   1.00
Cu386  Cu    0.55957   0.83895   0.25565   0.00000  Uiso   1.00
H387   H     0.43228   0.98689   0.24073   0.00000  Uiso   1.00
H388   H     0.65127   0.86244   0.43035   0.00000  Uiso   1.00
H389   H     0.34270   0.88467   0.01219   0.00000  Uiso   1.00
H390   H     0.45895   0.80945   0.08731   0.00000  Uiso   1.00
H391   H     0.35463   0.78101   0.39456   0.00000  Uiso   1.00
H392   H     0.39322   0.78767   0.04135   0.00000  Uiso   1.00
H393   H     0.65556   0.76326   0.48347   0.00000  Uiso   1.00
H394   H     0.58228   0.81998   0.37750   0.00000  Uiso   1.00
H395   H     0.56719   0.67981   0.26015   0.00000  Uiso   1.00
N396   N     0.64908   0.84741   0.26416   0.00000  Uiso   1.00
N397   N     0.35092   0.81926   0.23584   0.00000  Uiso   1.00
O398   O     0.46131   0.90474   0.24633   0.00000  Uiso   1.00
O399   O     0.56191   0.91422   0.25587   0.00000  Uiso   1.00
O400   O     0.42515   0.82627   0.31839   0.00000  Uiso   1.00
O401   O     0.52575   0.83575   0.32793   0.00000  Uiso   1.00
O402   O     0.43809   0.75245   0.24413   0.00000  Uiso   1.00
O403   O     0.53869   0.76193   0.25367   0.00000  Uiso   1.00
O404   O     0.47425   0.83092   0.17207   0.00000  Uiso   1.00
O405   O     0.57485   0.84040   0.18161   0.00000  Uiso   1.00
H406   H     0.64730   0.87614   0.10246   0.00000  Uiso   1.00
O407   O     0.34663   0.89670   0.27358   0.00000  Uiso   1.00
C408   C     0.66149   0.91034   0.32428   0.00000  Uiso   1.00
H409   H     0.61181   0.91196   0.33304   0.00000  Uiso   1.00
H410   H     0.35494   0.95033   0.33280   0.00000  Uiso   1.00
H411   H     0.33944   0.88300   0.34825   0.00000  Uiso   1.00
O412   O     0.65613   0.79044   0.19962   0.00000  Uiso   1.00
C413   C     0.34482   0.74395   0.18781   0.00000  Uiso   1.00
H414   H     0.33759   0.72084   0.22161   0.00000  Uiso   1.00
H415   H     0.39338   0.75185   0.16791   0.00000  Uiso   1.00
H416   H     0.65026   0.71908   0.16147   0.00000  Uiso   1.00
C417   C     0.84825   0.93333   0.25189   0.00000  Uiso   1.00
C418   C     0.80918   0.81483   0.48491   0.00000  Uiso   1.00
C419   C     0.82937   0.81927   0.43232   0.00000  Uiso   1.00
C420   C     0.85394   0.83025   0.01750   0.00000  Uiso   1.00
C421   C     0.91687   0.85094   0.49718   0.00000  Uiso   1.00
C422   C     0.93601   0.85033   0.44602   0.00000  Uiso   1.00
C423   C     0.89415   0.83008   0.41464   0.00000  Uiso   1.00
C424   C     0.83885   0.82572   0.06952   0.00000  Uiso   1.00
C425   C     0.94541   0.86311   0.07918   0.00000  Uiso   1.00
C426   C     0.78427   0.81189   0.39975   0.00000  Uiso   1.00
C427   C     0.85627   0.98934   0.25351   0.00000  Uiso   1.00
C428   C     0.80078   0.82565   0.34619   0.00000  Uiso   1.00
C429   C     0.81004   0.67733   0.24714   0.00000  Uiso   1.00
C430   C     0.81831   0.73334   0.24834   0.00000  Uiso   1.00
C431   C     0.86608   0.83695   0.15380   0.00000  Uiso   1.00
C432   C     0.96150   0.86840   0.02797   0.00000  Uiso   1.00
C433   C     0.88427   0.84138   0.09996   0.00000  Uiso   1.00
C434   C     0.72235   0.79020   0.41884   0.00000  Uiso   1.00
C435   C     0.70369   0.78017   0.46937   0.00000  Uiso   1.00
C436   C     0.74560   0.79415   0.00244   0.00000  Uiso   1.00
Cu437  Cu    0.77377   0.82772   0.24435   0.00000  Uiso   1.00
Cu438  Cu    0.89290   0.83895   0.25565   0.00000  Uiso   1.00
H439   H     0.76561   0.98689   0.24073   0.00000  Uiso   1.00
H440   H     0.98461   0.86244   0.43035   0.00000  Uiso   1.00
H441   H     0.67603   0.88467   0.01219   0.00000  Uiso   1.00
H442   H     0.79228   0.80945   0.08731   0.00000  Uiso   1.00
H443   H     0.68796   0.78101   0.39456   0.00000  Uiso   1.00
H444   H     0.72655   0.78767   0.04135   0.00000  Uiso   1.00
H445   H     0.98890   0.76326   0.48347   0.00000  Uiso   1.00
H446   H     0.91561   0.81998   0.37750   0.00000  Uiso   1.00
H447   H     0.90052   0.67981   0.26015   0.00000  Uiso   1.00
N448   N     0.98241   0.84741   0.26416   0.00000  Uiso   1.00
N449   N     0.68426   0.81926   0.23584   0.00000  Uiso   1.00
O450   O     0.79464   0.90474   0.24633   0.00000  Uiso   1.00
O451   O     0.89524   0.91422   0.25587   0.00000  Uiso   1.00
O452   O     0.75848   0.82627   0.31839   0.00000  Uiso   1.00
O453   O     0.85908   0.83575   0.32793   0.00000  Uiso   1.00
O454   O     0.77142   0.75245   0.24413   0.00000  Uiso   1.00
O455   O     0.87203   0.76193   0.25367   0.00000  Uiso   1.00
O456   O     0.80758   0.83092   0.17207   0.00000  Uiso   1.00
O457   O     0.90819   0.84040   0.18161   0.00000  Uiso   1.00
H458   H     0.98063   0.87614   0.10246   0.00000  Uiso   1.00
O459   O     0.67996   0.89670   0.27358   0.00000  Uiso   1.00
C460   C     0.99482   0.91034   0.32428   0.00000  Uiso   1.00
H461   H     0.94514   0.91196   0.33304   0.00000  Uiso   1.00
H462   H     0.68827   0.95033   0.33280   0.00000  Uiso   1.00
H463   H     0.67278   0.88300   0.34825   0.00000  Uiso   1.00
O464   O     0.98946   0.79044   0.19962   0.00000  Uiso   1.00
C465   C     0.67816   0.74395   0.18781   0.00000  Uiso   1.00
H466   H     0.67093   0.72084   0.22161   0.00000  Uiso   1.00
H467   H     0.72671   0.75185   0.16791   0.00000  Uiso   1.00
H468   H     0.98359   0.71908   0.16147   0.00000  Uiso   1.00
C469   C     0.18159   0.26666   0.75189   0.00000  Uiso   1.00
C470   C     0.14251   0.14817   0.98491   0.00000  Uiso   1.00
C471   C     0.16270   0.15261   0.93232   0.00000  Uiso   1.00
C472   C     0.18728   0.16358   0.51750   0.00000  Uiso   1.00
C473   C     0.25020   0.18427   0.99718   0.00000  Uiso   1.00
C474   C     0.26934   0.18366   0.94602   0.00000  Uiso   1.00
C475   C     0.22748   0.16342   0.91464   0.00000  Uiso   1.00
C476   C     0.17218   0.15906   0.56952   0.00000  Uiso   1.00
C477   C     0.27874   0.19645   0.57918   0.00000  Uiso   1.00
C478   C     0.11760   0.14523   0.89975   0.00000  Uiso   1.00
C479   C     0.18960   0.32267   0.75351   0.00000  Uiso   1.00
C480   C     0.13411   0.15899   0.84619   0.00000  Uiso   1.00
C481   C     0.14337   0.01066   0.74714   0.00000  Uiso   1.00
C482   C     0.15164   0.06667   0.74834   0.00000  Uiso   1.00
C483   C     0.19942   0.17028   0.65380   0.00000  Uiso   1.00
C484   C     0.29484   0.20173   0.52797   0.00000  Uiso   1.00
C485   C     0.21760   0.17471   0.59996   0.00000  Uiso   1.00
C486   C     0.05569   0.12353   0.91884   0.00000  Uiso   1.00
C487   C     0.03702   0.11351   0.96937   0.00000  Uiso   1.00
C488   C     0.07893   0.12748   0.50244   0.00000  Uiso   1.00
Cu489  Cu    0.10710   0.16105   0.74435   0.00000  Uiso   1.00
Cu490  Cu    0.22623   0.17228   0.75565   0.00000  Uiso   1.00
H491   H     0.09895   0.32022   0.74073   0.00000  Uiso   1.00
H492   H     0.31794   0.19577   0.93035   0.00000  Uiso   1.00
H493   H     0.00936   0.21801   0.51219   0.00000  Uiso   1.00
H494   H     0.12562   0.14278   0.58731   0.00000  Uiso   1.00
H495   H     0.02129   0.11434   0.89456   0.00000  Uiso   1.00
H496   H     0.05988   0.12100   0.54135   0.00000  Uiso   1.00
H497   H     0.32223   0.09659   0.98347   0.00000  Uiso   1.00
H498   H     0.24895   0.15331   0.87750   0.00000  Uiso   1.00
H499   H     0.23386   0.01315   0.76015   0.00000  Uiso   1.00
N500   N     0.31574   0.18074   0.76416   0.00000  Uiso   1.00
N501   N     0.01759   0.15259   0.73584   0.00000  Uiso   1.00
O502   O     0.12797   0.23807   0.74633   0.00000  Uiso   1.00
O503   O     0.22858   0.24755   0.75587   0.00000  Uiso   1.00
O504   O     0.09181   0.15960   0.81839   0.00000  Uiso   1.00
O505   O     0.19242   0.16908   0.82793   0.00000  Uiso   1.00
O506   O     0.10476   0.08578   0.74413   0.00000  Uiso   1.00
O507   O     0.20536   0.09526   0.75367   0.00000  Uiso   1.00
O508   O     0.14092   0.16425   0.67207   0.00000  Uiso   1.00
O509   O     0.24152   0.17373   0.68161   0.00000  Uiso   1.00
H510   H     0.31396   0.20948   0.60246   0.00000  Uiso   1.00
O511   O     0.01329   0.23003   0.77358   0.00000  Uiso   1.00
C512   C     0.32815   0.24367   0.82428   0.00000  Uiso   1.00
H513   H     0.27848   0.24529   0.83304   0.00000  Uiso   1.00
H514   H     0.02160   0.28366   0.83280   0.00000  Uiso   1.00
H515   H     0.00611   0.21634   0.84825   0.00000  Uiso   1.00
O516   O     0.32279   0.12377   0.69962   0.00000  Uiso   1.00
C517   C     0.01149   0.07728   0.68781   0.00000  Uiso   1.00
H518   H     0.00426   0.05418   0.72161   0.00000  Uiso   1.00
H519   H     0.06005   0.08519   0.66791   0.00000  Uiso   1.00
H520   H     0.31693   0.05241   0.66147   0.00000  Uiso   1.00
C521   C     0.51492   0.26666   0.75189   0.00000  Uiso   1.00
C522   C     0.47584   0.14817   0.98491   0.00000  Uiso   1.00
C523   C     0.49604   0.15261   0.93232   0.00000  Uiso   1.00
C524   C     0.52061   0.16358   0.51750   0.00000  Uiso   1.00
C525   C     0.58354   0.18427   0.99718   0.00000  Uiso   1.00
C526   C     0.60267   0.18366   0.94602   0.00000  Uiso   1.00
C527   C     0.56082   0.16342   0.91464   0.00000  Uiso   1.00
C528   C     0.50551   0.15906   0.56952   0.00000  Uiso   1.00
C529   C     0.61208   0.19645   0.57918   0.00000  Uiso   1.00
C530   C     0.45093   0.14523   0.89975   0.00000  Uiso   1.00
C531   C     0.52293   0.32267   0.75351   0.00000  Uiso   1.00
C532   C     0.46745   0.15899   0.84619   0.00000  Uiso   1.00
C533   C     0.47670   0.01066   0.74714   0.00000  Uiso   1.00
C534   C     0.48498   0.06667   0.74834   0.00000  Uiso   1.00
C535   C     0.53275   0.17028   0.65380   0.00000  Uiso   1.00
C536   C     0.62817   0.20173   0.52797   0.00000  Uiso   1.00
C537   C     0.55093   0.17471   0.59996   0.00000  Uiso   1.00
C538   C     0.38902   0.12353   0.91884   0.00000  Uiso   1.00
C539   C     0.37036   0.11351   0.96937   0.00000  Uiso   1.00
C540   C     0.41226   0.12748   0.50244   0.00000  Uiso   1.00
Cu541  Cu    0.44043   0.16105   0.74435   0.00000  Uiso   1.00
Cu542  Cu    0.55957   0.17228   0.75565   0.00000  Uiso   1.00
H543   H     0.43228   0.32022   0.74073   0.00000  Uiso   1.00
H544   H     0.65127   0.19577   0.93035   0.00000  Uiso   1.00
H545   H     0.34270   0.21801   0.51219   0.00000  Uiso   1.00
H546   H     0.45895   0.14278   0.58731   0.00000  Uiso   1.00
H547   H     0.35463   0.11434   0.89456   0.00000  Uiso   1.00
H548   H     0.39322   0.12100   0.54135   0.00000  Uiso   1.00
H549   H     0.65556   0.09659   0.98347   0.00000  Uiso   1.00
H550   H     0.58228   0.15331   0.87750   0.00000  Uiso   1.00
H551   H     0.56719   0.01315   0.76015   0.00000  Uiso   1.00
N552   N     0.64908   0.18074   0.76416   0.00000  Uiso   1.00
N553   N     0.35092   0.15259   0.73584   0.00000  Uiso   1.00
O554   O     0.46131   0.23807   0.74633   0.00000  Uiso   1.00
O555   O     0.56191   0.24755   0.75587   0.00000  Uiso   1.00
O556   O     0.42515   0.15960   0.81839   0.00000  Uiso   1.00
O557   O     0.52575   0.16908   0.82793   0.00000  Uiso   1.00
O558   O     0.43809   0.08578   0.74413   0.00000  Uiso   1.00
O559   O     0.53869   0.09526   0.75367   0.00000  Uiso   1.00
O560   O     0.47425   0.16425   0.67207   0.00000  Uiso   1.00
O561   O     0.57485   0.17373   0.68161   0.00000  Uiso   1.00
H562   H     0.64730   0.20948   0.60246   0.00000  Uiso   1.00
O563   O     0.34663   0.23003   0.77358   0.00000  Uiso   1.00
C564   C     0.66149   0.24367   0.82428   0.00000  Uiso   1.00
H565   H     0.61181   0.24529   0.83304   0.00000  Uiso   1.00
H566   H     0.35494   0.28366   0.83280   0.00000  Uiso   1.00
H567   H     0.33944   0.21634   0.84825   0.00000  Uiso   1.00
O568   O     0.65613   0.12377   0.69962   0.00000  Uiso   1.00
C569   C     0.34482   0.07728   0.68781   0.00000  Uiso   1.00
H570   H     0.33759   0.05418   0.72161   0.00000  Uiso   1.00
H571   H     0.39338   0.08519   0.66791   0.00000  Uiso   1.00
H572   H     0.65026   0.05241   0.66147   0.00000  Uiso   1.00
C573   C     0.84825   0.26666   0.75189   0.00000  Uiso   1.00
C574   C     0.80918   0.14817   0.98491   0.00000  Uiso   1.00
C575   C     0.82937   0.15261   0.93232   0.00000  Uiso   1.00
C576   C     0.85394   0.16358   0.51750   0.00000  Uiso   1.00
C577   C     0.91687   0.18427   0.99718   0.00000  Uiso   1.00
C578   C     0.93601   0.18366   0.94602   0.00000  Uiso   1.00
C579   C     0.89415   0.16342   0.91464   0.00000  Uiso   1.00
C580   C     0.83885   0.15906   0.56952   0.00000  Uiso   1.00
C581   C     0.94541   0.19645   0.57918   0.00000  Uiso   1.00
C582   C     0.78427   0.14523   0.89975   0.00000  Uiso   1.00
C583   C     0.85627   0.32267   0.75351   0.00000  Uiso   1.00
C584   C     0.80078   0.15899   0.84619   0.00000  Uiso   1.00
C585   C     0.81004   0.01066   0.74714   0.00000  Uiso   1.00
C586   C     0.81831   0.06667   0.74834   0.00000  Uiso   1.00
C587   C     0.86608   0.17028   0.65380   0.00000  Uiso   1.00
C588   C     0.96150   0.20173   0.52797   0.00000  Uiso   1.00
C589   C     0.88427   0.17471   0.59996   0.00000  Uiso   1.00
C590   C     0.72235   0.12353   0.91884   0.00000  Uiso   1.00
C591   C     0.70369   0.11351   0.96937   0.00000  Uiso   1.00
C592   C     0.74560   0.12748   0.50244   0.00000  Uiso   1.00
Cu593  Cu    0.77377   0.16105   0.74435   0.00000  Uiso   1.00
Cu594  Cu    0.89290   0.17228   0.75565   0.00000  Uiso   1.00
H595   H     0.76561   0.32022   0.74073   0.00000  Uiso   1.00
H596   H     0.98461   0.19577   0.93035   0.00000  Uiso   1.00
H597   H     0.67603   0.21801   0.51219   0.00000  Uiso   1.00
H598   H     0.79228   0.14278   0.58731   0.00000  Uiso   1.00
H599   H     0.68796   0.11434   0.89456   0.00000  Uiso   1.00
H600   H     0.72655   0.12100   0.54135   0.00000  Uiso   1.00
H601   H     0.98890   0.09659   0.98347   0.00000  Uiso   1.00
H602   H     0.91561   0.15331   0.87750   0.00000  Uiso   1.00
H603   H     0.90052   0.01315   0.76015   0.00000  Uiso   1.00
N604   N     0.98241   0.18074   0.76416   0.00000  Uiso   1.00
N605   N     0.68426   0.15259   0.73584   0.00000  Uiso   1.00
O606   O     0.79464   0.23807   0.74633   0.00000  Uiso   1.00
O607   O     0.89524   0.24755   0.75587   0.00000  Uiso   1.00
O608   O     0.75848   0.15960   0.81839   0.00000  Uiso   1.00
O609   O     0.85908   0.16908   0.82793   0.00000  Uiso   1.00
O610   O     0.77142   0.08578   0.74413   0.00000  Uiso   1.00
O611   O     0.87203   0.09526   0.75367   0.00000  Uiso   1.00
O612   O     0.80758   0.16425   0.67207   0.00000  Uiso   1.00
O613   O     0.90819   0.17373   0.68161   0.00000  Uiso   1.00
H614   H     0.98063   0.20948   0.60246   0.00000  Uiso   1.00
O615   O     0.67996   0.23003   0.77358   0.00000  Uiso   1.00
C616   C     0.99482   0.24367   0.82428   0.00000  Uiso   1.00
H617   H     0.94514   0.24529   0.83304   0.00000  Uiso   1.00
H618   H     0.68827   0.28366   0.83280   0.00000  Uiso   1.00
H619   H     0.67278   0.21634   0.84825   0.00000  Uiso   1.00
O620   O     0.98946   0.12377   0.69962   0.00000  Uiso   1.00
C621   C     0.67816   0.07728   0.68781   0.00000  Uiso   1.00
H622   H     0.67093   0.05418   0.72161   0.00000  Uiso   1.00
H623   H     0.72671   0.08519   0.66791   0.00000  Uiso   1.00
H624   H     0.98359   0.05241   0.66147   0.00000  Uiso   1.00
C625   C     0.18159   0.60000   0.75189   0.00000  Uiso   1.00
C626   C     0.14251   0.48150   0.98491   0.00000  Uiso   1.00
C627   C     0.16270   0.48594   0.93232   0.00000  Uiso   1.00
C628   C     0.18728   0.49692   0.51750   0.00000  Uiso   1.00
C629   C     0.25020   0.51761   0.99718   0.00000  Uiso   1.00
C630   C     0.26934   0.51699   0.94602   0.00000  Uiso   1.00
C631   C     0.22748   0.49675   0.91464   0.00000  Uiso   1.00
C632   C     0.17218   0.49239   0.56952   0.00000  Uiso   1.00
C633   C     0.27874   0.52978   0.57918   0.00000  Uiso   1.00
C634   C     0.11760   0.47856   0.89975   0.00000  Uiso   1.00
C635   C     0.18960   0.65600   0.75351   0.00000  Uiso   1.00
C636   C     0.13411   0.49232   0.84619   0.00000  Uiso   1.00
C637   C     0.14337   0.34399   0.74714   0.00000  Uiso   1.00
C638   C     0.15164   0.40000   0.74834   0.00000  Uiso   1.00
C639   C     0.19942   0.50362   0.65380   0.00000  Uiso   1.00
C640   C     0.29484   0.53507   0.52797   0.00000  Uiso   1.00
C641   C     0.21760   0.50804   0.59996   0.00000  Uiso   1.00
C642   C     0.05569   0.45686   0.91884   0.00000  Uiso   1.00
C643   C     0.03702   0.44684   0.96937   0.00000  Uiso   1.00
C644   C     0.07893   0.46081   0.50244   0.00000  Uiso   1.00
Cu645  Cu    0.10710   0.49439   0.74435   0.00000  Uiso   1.00
Cu646  Cu    0.22623   0.50561   0.75565   0.00000  Uiso   1.00
H647   H     0.09895   0.65356   0.74073   0.00000  Uiso   1.00
H648   H     0.31794   0.52911   0.93035   0.00000  Uiso   1.00
H649   H     0.00936   0.55134   0.51219   0.00000  Uiso   1.00
H650   H     0.12562   0.47612   0.58731   0.00000  Uiso   1.00
H651   H     0.02129   0.44767   0.89456   0.00000  Uiso   1.00
H652   H     0.05988   0.45434   0.54135   0.00000  Uiso   1.00
H653   H     0.32223   0.42992   0.98347   0.00000  Uiso   1.00
H654   H     0.24895   0.48665   0.87750   0.00000  Uiso   1.00
H655   H     0.23386   0.34648   0.76015   0.00000  Uiso   1.00
N656   N     0.31574   0.51407   0.76416   0.00000  Uiso   1.00
N657   N     0.01759   0.48593   0.73584   0.00000  Uiso   1.00
O658   O     0.12797   0.57141   0.74633   0.00000  Uiso   1.00
O659   O     0.22858   0.58089   0.75587   0.00000  Uiso   1.00
O660   O     0.09181   0.49293   0.81839   0.00000  Uiso   1.00
O661   O     0.19242   0.50241   0.82793   0.00000  Uiso   1.00
O662   O     0.10476   0.41911   0.74413   0.00000  Uiso   1.00
O663   O     0.20536   0.42859   0.75367   0.00000  Uiso   1.00
O664   O     0.14092   0.49759   0.67207   0.00000  Uiso   1.00
O665   O     0.24152   0.50707   0.68161   0.00000  Uiso   1.00
H666   H     0.31396   0.54281   0.60246   0.00000  Uiso   1.00
O667   O     0.01329   0.56337   0.77358   0.00000  Uiso   1.00
C668   C     0.32815   0.57701   0.82428   0.00000  Uiso   1.00
H669   H     0.27848   0.57862   0.83304   0.00000  Uiso   1.00
H670   H     0.02160   0.61699   0.83280   0.00000  Uiso   1.00
H671   H     0.00611   0.54967   0.84825   0.00000  Uiso   1.00
O672   O     0.32279   0.45710   0.69962   0.00000  Uiso   1.00
C673   C     0.01149   0.41062   0.68781   0.00000  Uiso   1.00
H674   H     0.00426   0.38751   0.72161   0.00000  Uiso   1.00
H675   H     0.06005   0.41852   0.66791   0.00000  Uiso   1.00
H676   H     0.31693   0.38575   0.66147   0.00000  Uiso   1.00
C677   C     0.51492   0.60000   0.75189   0.00000  Uiso   1.00
C678   C     0.47584   0.48150   0.98491   0.00000  Uiso   1.00
C679   C     0.49604   0.48594   0.93232   0.00000  Uiso   1.00
C680   C     0.52061   0.49692   0.51750   0.00000  Uiso   1.00
C681   C     0.58354   0.51761   0.99718   0.00000  Uiso   1.00
C682   C     0.60267   0.51699   0.94602   0.00000  Uiso   1.00
C683   C     0.56082   0.49675   0.91464   0.00000  Uiso   1.00
C684   C     0.50551   0.49239   0.56952   0.00000  Uiso   1.00
C685   C     0.61208   0.52978   0.57918   0.00000  Uiso   1.00
C686   C     0.45093   0.47856   0.89975   0.00000  Uiso   1.00
C687   C     0.52293   0.65600   0.75351   0.00000  Uiso   1.00
C688   C     0.46745   0.49232   0.84619   0.00000  Uiso   1.00
C689   C     0.47670   0.34399   0.74714   0.00000  Uiso   1.00
C690   C     0.48498   0.40000   0.74834   0.00000  Uiso   1.00
C691   C     0.53275   0.50362   0.65380   0.00000  Uiso   1.00
C692   C     0.62817   0.53507   0.52797   0.00000  Uiso   1.00
C693   C     0.55093   0.50804   0.59996   0.00000  Uiso   1.00
C694   C     0.38902   0.45686   0.91884   0.00000  Uiso   1.00
C695   C     0.37036   0.44684   0.96937   0.00000  Uiso   1.00
C696   C     0.41226   0.46081   0.50244   0.00000  Uiso   1.00
Cu697  Cu    0.44043   0.49439   0.74435   0.00000  Uiso   1.00
Cu698  Cu    0.55957   0.50561   0.75565   0.00000  Uiso   1.00
H699   H     0.43228   0.65356   0.74073   0.00000  Uiso   1.00
H700   H     0.65127   0.52911   0.93035   0.00000  Uiso   1.00
H701   H     0.34270   0.55134   0.51219   0.00000  Uiso   1.00
H702   H     0.45895   0.47612   0.58731   0.00000  Uiso   1.00
H703   H     0.35463   0.44767   0.89456   0.00000  Uiso   1.00
H704   H     0.39322   0.45434   0.54135   0.00000  Uiso   1.00
H705   H     0.65556   0.42992   0.98347   0.00000  Uiso   1.00
H706   H     0.58228   0.48665   0.87750   0.00000  Uiso   1.00
H707   H     0.56719   0.34648   0.76015   0.00000  Uiso   1.00
N708   N     0.64908   0.51407   0.76416   0.00000  Uiso   1.00
N709   N     0.35092   0.48593   0.73584   0.00000  Uiso   1.00
O710   O     0.46131   0.57141   0.74633   0.00000  Uiso   1.00
O711   O     0.56191   0.58089   0.75587   0.00000  Uiso   1.00
O712   O     0.42515   0.49293   0.81839   0.00000  Uiso   1.00
O713   O     0.52575   0.50241   0.82793   0.00000  Uiso   1.00
O714   O     0.43809   0.41911   0.74413   0.00000  Uiso   1.00
O715   O     0.53869   0.42859   0.75367   0.00000  Uiso   1.00
O716   O     0.47425   0.49759   0.67207   0.00000  Uiso   1.00
O717   O     0.57485   0.50707   0.68161   0.00000  Uiso   1.00
H718   H     0.64730   0.54281   0.60246   0.00000  Uiso   1.00
O719   O     0.34663   0.56337   0.77358   0.00000  Uiso   1.00
C720   C     0.66149   0.57701   0.82428   0.00000  Uiso   1.00
H721   H     0.61181   0.57862   0.83304   0.00000  Uiso   1.00
H722   H     0.35494   0.61699   0.83280   0.00000  Uiso   1.00
H723   H     0.33944   0.54967   0.84825   0.00000  Uiso   1.00
O724   O     0.65613   0.45710   0.69962   0.00000  Uiso   1.00
C725   C     0.34482   0.41062   0.68781   0.00000  Uiso   1.00
H726   H     0.33759   0.38751   0.72161   0.00000  Uiso   1.00
H727   H     0.39338   0.41852   0.66791   0.00000  Uiso   1.00
H728   H     0.65026   0.38575   0.66147   0.00000  Uiso   1.00
C729   C     0.84825   0.60000   0.75189   0.00000  Uiso   1.00
C730   C     0.80918   0.48150   0.98491   0.00000  Uiso   1.00
C731   C     0.82937   0.48594   0.93232   0.00000  Uiso   1.00
C732   C     0.85394   0.49692   0.51750   0.00000  Uiso   1.00
C733   C     0.91687   0.51761   0.99718   0.00000  Uiso   1.00
C734   C     0.93601   0.51699   0.94602   0.00000  Uiso   1.00
C735   C     0.89415   0.49675   0.91464   0.00000  Uiso   1.00
C736   C     0.83885   0.49239   0.56952   0.00000  Uiso   1.00
C737   C     0.94541   0.52978   0.57918   0.00000  Uiso   1.00
C738   C     0.78427   0.47856   0.89975   0.00000  Uiso   1.00
C739   C     0.85627   0.65600   0.75351   0.00000  Uiso   1.00
C740   C     0.80078   0.49232   0.84619   0.00000  Uiso   1.00
C741   C     0.81004   0.34399   0.74714   0.00000  Uiso   1.00
C742   C     0.81831   0.40000   0.74834   0.00000  Uiso   1.00
C743   C     0.86608   0.50362   0.65380   0.00000  Uiso   1.00
C744   C     0.96150   0.53507   0.52797   0.00000  Uiso   1.00
C745   C     0.88427   0.50804   0.59996   0.00000  Uiso   1.00
C746   C     0.72235   0.45686   0.91884   0.00000  Uiso   1.00
C747   C     0.70369   0.44684   0.96937   0.00000  Uiso   1.00
C748   C     0.74560   0.46081   0.50244   0.00000  Uiso   1.00
Cu749  Cu    0.77377   0.49439   0.74435   0.00000  Uiso   1.00
Cu750  Cu    0.89290   0.50561   0.75565   0.00000  Uiso   1.00
H751   H     0.76561   0.65356   0.74073   0.00000  Uiso   1.00
H752   H     0.98461   0.52911   0.93035   0.00000  Uiso   1.00
H753   H     0.67603   0.55134   0.51219   0.00000  Uiso   1.00
H754   H     0.79228   0.47612   0.58731   0.00000  Uiso   1.00
H755   H     0.68796   0.44767   0.89456   0.00000  Uiso   1.00
H756   H     0.72655   0.45434   0.54135   0.00000  Uiso   1.00
H757   H     0.98890   0.42992   0.98347   0.00000  Uiso   1.00
H758   H     0.91561   0.48665   0.87750   0.00000  Uiso   1.00
H759   H     0.90052   0.34648   0.76015   0.00000  Uiso   1.00
N760   N     0.98241   0.51407   0.76416   0.00000  Uiso   1.00
N761   N     0.68426   0.48593   0.73584   0.00000  Uiso   1.00
O762   O     0.79464   0.57141   0.74633   0.00000  Uiso   1.00
O763   O     0.89524   0.58089   0.75587   0.00000  Uiso   1.00
O764   O     0.75848   0.49293   0.81839   0.00000  Uiso   1.00
O765   O     0.85908   0.50241   0.82793   0.00000  Uiso   1.00
O766   O     0.77142   0.41911   0.74413   0.00000  Uiso   1.00
O767   O     0.87203   0.42859   0.75367   0.00000  Uiso   1.00
O768   O     0.80758   0.49759   0.67207   0.00000  Uiso   1.00
O769   O     0.90819   0.50707   0.68161   0.00000  Uiso   1.00
H770   H     0.98063   0.54281   0.60246   0.00000  Uiso   1.00
O771   O     0.67996   0.56337   0.77358   0.00000  Uiso   1.00
C772   C     0.99482   0.57701   0.82428   0.00000  Uiso   1.00
H773   H     0.94514   0.57862   0.83304   0.00000  Uiso   1.00
H774   H     0.68827   0.61699   0.83280   0.00000  Uiso   1.00
H775   H     0.67278   0.54967   0.84825   0.00000  Uiso   1.00
O776   O     0.98946   0.45710   0.69962   0.00000  Uiso   1.00
C777   C     0.67816   0.41062   0.68781   0.00000  Uiso   1.00
H778   H     0.67093   0.38751   0.72161   0.00000  Uiso   1.00
H779   H     0.72671   0.41852   0.66791   0.00000  Uiso   1.00
H780   H     0.98359   0.38575   0.66147   0.00000  Uiso   1.00
C781   C     0.18159   0.93333   0.75189   0.00000  Uiso   1.00
C782   C     0.14251   0.81483   0.98491   0.00000  Uiso   1.00
C783   C     0.16270   0.81927   0.93232   0.00000  Uiso   1.00
C784   C     0.18728   0.83025   0.51750   0.00000  Uiso   1.00
C785   C     0.25020   0.85094   0.99718   0.00000  Uiso   1.00
C786   C     0.26934   0.85033   0.94602   0.00000  Uiso   1.00
C787   C     0.22748   0.83008   0.91464   0.00000  Uiso   1.00
C788   C     0.17218   0.82572   0.56952   0.00000  Uiso   1.00
C789   C     0.27874   0.86311   0.57918   0.00000  Uiso   1.00
C790   C     0.11760   0.81189   0.89975   0.00000  Uiso   1.00
C791   C     0.18960   0.98934   0.75351   0.00000  Uiso   1.00
C792   C     0.13411   0.82565   0.84619   0.00000  Uiso   1.00
C793   C     0.14337   0.67733   0.74714   0.00000  Uiso   1.00
C794   C     0.15164   0.73334   0.74834   0.00000  Uiso   1.00
C795   C     0.19942   0.83695   0.65380   0.00000  Uiso   1.00
C796   C     0.29484   0.86840   0.52797   0.00000  Uiso   1.00
C797   C     0.21760   0.84138   0.59996   0.00000  Uiso   1.00
C798   C     0.05569   0.79020   0.91884   0.00000  Uiso   1.00
C799   C     0.03702   0.78017   0.96937   0.00000  Uiso   1.00
C800   C     0.07893   0.79415   0.50244   0.00000  Uiso   1.00
Cu801  Cu    0.10710   0.82772   0.74435   0.00000  Uiso   1.00
Cu802  Cu    0.22623   0.83895   0.75565   0.00000  Uiso   1.00
H803   H     0.09895   0.98689   0.74073   0.00000  Uiso   1.00
H804   H     0.31794   0.86244   0.93035   0.00000  Uiso   1.00
H805   H     0.00936   0.88467   0.51219   0.00000  Uiso   1.00
H806   H     0.12562   0.80945   0.58731   0.00000  Uiso   1.00
H807   H     0.02129   0.78101   0.89456   0.00000  Uiso   1.00
H808   H     0.05988   0.78767   0.54135   0.00000  Uiso   1.00
H809   H     0.32223   0.76326   0.98347   0.00000  Uiso   1.00
H810   H     0.24895   0.81998   0.87750   0.00000  Uiso   1.00
H811   H     0.23386   0.67981   0.76015   0.00000  Uiso   1.00
N812   N     0.31574   0.84741   0.76416   0.00000  Uiso   1.00
N813   N     0.01759   0.81926   0.73584   0.00000  Uiso   1.00
O814   O     0.12797   0.90474   0.74633   0.00000  Uiso   1.00
O815   O     0.22858   0.91422   0.75587   0.00000  Uiso   1.00
O816   O     0.09181   0.82627   0.81839   0.00000  Uiso   1.00
O817   O     0.19242   0.83575   0.82793   0.00000  Uiso   1.00
O818   O     0.10476   0.75245   0.74413   0.00000  Uiso   1.00
O819   O     0.20536   0.76193   0.75367   0.00000  Uiso   1.00
O820   O     0.14092   0.83092   0.67207   0.00000  Uiso   1.00
O821   O     0.24152   0.84040   0.68161   0.00000  Uiso   1.00
H822   H     0.31396   0.87614   0.60246   0.00000  Uiso   1.00
O823   O     0.01329   0.89670   0.77358   0.00000  Uiso   1.00
C824   C     0.32815   0.91034   0.82428   0.00000  Uiso   1.00
H825   H     0.27848   0.91196   0.83304   0.00000  Uiso   1.00
H826   H     0.02160   0.95033   0.83280   0.00000  Uiso   1.00
H827   H     0.00611   0.88300   0.84825   0.00000  Uiso   1.00
O828   O     0.32279   0.79044   0.69962   0.00000  Uiso   1.00
C829   C     0.01149   0.74395   0.68781   0.00000  Uiso   1.00
H830   H     0.00426   0.72084   0.72161   0.00000  Uiso   1.00
H831   H     0.06005   0.75185   0.66791   0.00000  Uiso   1.00
H832   H     0.31693   0.71908   0.66147   0.00000  Uiso   1.00
C833   C     0.51492   0.93333   0.75189   0.00000  Uiso   1.00
C834   C     0.47584   0.81483   0.98491   0.00000  Uiso   1.00
C835   C     0.49604   0.81927   0.93232   0.00000  Uiso   1.00
C836   C     0.52061   0.83025   0.51750   0.00000  Uiso   1.00
C837   C     0.58354   0.85094   0.99718   0.00000  Uiso   1.00
C838   C     0.60267   0.85033   0.94602   0.00000  Uiso   1.00
C839   C     0.56082   0.83008   0.91464   0.00000  Uiso   1.00
C840   C     0.50551   0.82572   0.56952   0.00000  Uiso   1.00
C841   C     0.61208   0.86311   0.57918   0.00000  Uiso   1.00
C842   C     0.45093   0.81189   0.89975   0.00000  Uiso   1.00
C843   C     0.52293   0.98934   0.75351   0.00000  Uiso   1.00
C844   C     0.46745   0.82565   0.84619   0.00000  Uiso   1.00
C845   C     0.47670   0.67733   0.74714   0.00000  Uiso   1.00
C846   C     0.48498   0.73334   0.74834   0.00000  Uiso   1.00
C847   C     0.53275   0.83695   0.65380   0.00000  Uiso   1.00
C848   C     0.62817   0.86840   0.52797   0.00000  Uiso   1.00
C849   C     0.55093   0.84138   0.59996   0.00000  Uiso   1.00
C850   C     0.38902   0.79020   0.91884   0.00000  Uiso   1.00
C851   C     0.37036   0.78017   0.96937   0.00000  Uiso   1.00
C852   C     0.41226   0.79415   0.50244   0.00000  Uiso   1.00
Cu853  Cu    0.44043   0.82772   0.74435   0.00000  Uiso   1.00
Cu854  Cu    0.55957   0.83895   0.75565   0.00000  Uiso   1.00
H855   H     0.43228   0.98689   0.74073   0.00000  Uiso   1.00
H856   H     0.65127   0.86244   0.93035   0.00000  Uiso   1.00
H857   H     0.34270   0.88467   0.51219   0.00000  Uiso   1.00
H858   H     0.45895   0.80945   0.58731   0.00000  Uiso   1.00
H859   H     0.35463   0.78101   0.89456   0.00000  Uiso   1.00
H860   H     0.39322   0.78767   0.54135   0.00000  Uiso   1.00
H861   H     0.65556   0.76326   0.98347   0.00000  Uiso   1.00
H862   H     0.58228   0.81998   0.87750   0.00000  Uiso   1.00
H863   H     0.56719   0.67981   0.76015   0.00000  Uiso   1.00
N864   N     0.64908   0.84741   0.76416   0.00000  Uiso   1.00
N865   N     0.35092   0.81926   0.73584   0.00000  Uiso   1.00
O866   O     0.46131   0.90474   0.74633   0.00000  Uiso   1.00
O867   O     0.56191   0.91422   0.75587   0.00000  Uiso   1.00
O868   O     0.42515   0.82627   0.81839   0.00000  Uiso   1.00
O869   O     0.52575   0.83575   0.82793   0.00000  Uiso   1.00
O870   O     0.43809   0.75245   0.74413   0.00000  Uiso   1.00
O871   O     0.53869   0.76193   0.75367   0.00000  Uiso   1.00
O872   O     0.47425   0.83092   0.67207   0.00000  Uiso   1.00
O873   O     0.57485   0.84040   0.68161   0.00000  Uiso   1.00
H874   H     0.64730   0.87614   0.60246   0.00000  Uiso   1.00
O875   O     0.34663   0.89670   0.77358   0.00000  Uiso   1.00
C876   C     0.66149   0.91034   0.82428   0.00000  Uiso   1.00
H877   H     0.61181   0.91196   0.83304   0.00000  Uiso   1.00
H878   H     0.35494   0.95033   0.83280   0.00000  Uiso   1.00
H879   H     0.33944   0.88300   0.84825   0.00000  Uiso   1.00
O880   O     0.65613   0.79044   0.69962   0.00000  Uiso   1.00
C881   C     0.34482   0.74395   0.68781   0.00000  Uiso   1.00
H882   H     0.33759   0.72084   0.72161   0.00000  Uiso   1.00
H883   H     0.39338   0.75185   0.66791   0.00000  Uiso   1.00
H884   H     0.65026   0.71908   0.66147   0.00000  Uiso   1.00
C885   C     0.84825   0.93333   0.75189   0.00000  Uiso   1.00
C886   C     0.80918   0.81483   0.98491   0.00000  Uiso   1.00
C887   C     0.82937   0.81927   0.93232   0.00000  Uiso   1.00
C888   C     0.85394   0.83025   0.51750   0.00000  Uiso   1.00
C889   C     0.91687   0.85094   0.99718   0.00000  Uiso   1.00
C890   C     0.93601   0.85033   0.94602   0.00000  Uiso   1.00
C891   C     0.89415   0.83008   0.91464   0.00000  Uiso   1.00
C892   C     0.83885   0.82572   0.56952   0.00000  Uiso   1.00
C893   C     0.94541   0.86311   0.57918   0.00000  Uiso   1.00
C894   C     0.78427   0.81189   0.89975   0.00000  Uiso   1.00
C895   C     0.85627   0.98934   0.75351   0.00000  Uiso   1.00
C896   C     0.80078   0.82565   0.84619   0.00000  Uiso   1.00
C897   C     0.81004   0.67733   0.74714   0.00000  Uiso   1.00
C898   C     0.81831   0.73334   0.74834   0.00000  Uiso   1.00
C899   C     0.86608   0.83695   0.65380   0.00000  Uiso   1.00
C900   C     0.96150   0.86840   0.52797   0.00000  Uiso   1.00
C901   C     0.88427   0.84138   0.59996   0.00000  Uiso   1.00
C902   C     0.72235   0.79020   0.91884   0.00000  Uiso   1.00
C903   C     0.70369   0.78017   0.96937   0.00000  Uiso   1.00
C904   C     0.74560   0.79415   0.50244   0.00000  Uiso   1.00
Cu905  Cu    0.77377   0.82772   0.74435   0.00000  Uiso   1.00
Cu906  Cu    0.89290   0.83895   0.75565   0.00000  Uiso   1.00
H907   H     0.76561   0.98689   0.74073   0.00000  Uiso   1.00
H908   H     0.98461   0.86244   0.93035   0.00000  Uiso   1.00
H909   H     0.67603   0.88467   0.51219   0.00000  Uiso   1.00
H910   H     0.79228   0.80945   0.58731   0.00000  Uiso   1.00
H911   H     0.68796   0.78101   0.89456   0.00000  Uiso   1.00
H912   H     0.72655   0.78767   0.54135   0.00000  Uiso   1.00
H913   H     0.98890   0.76326   0.98347   0.00000  Uiso   1.00
H914   H     0.91561   0.81998   0.87750   0.00000  Uiso   1.00
H915   H     0.90052   0.67981   0.76015   0.00000  Uiso   1.00
N916   N     0.98241   0.84741   0.76416   0.00000  Uiso   1.00
N917   N     0.68426   0.81926   0.73584   0.00000  Uiso   1.00
O918   O     0.79464   0.90474   0.74633   0.00000  Uiso   1.00
O919   O     0.89524   0.91422   0.75587   0.00000  Uiso   1.00
O920   O     0.75848   0.82627   0.81839   0.00000  Uiso   1.00
O921   O     0.85908   0.83575   0.82793   0.00000  Uiso   1.00
O922   O     0.77142   0.75245   0.74413   0.00000  Uiso   1.00
O923   O     0.87203   0.76193   0.75367   0.00000  Uiso   1.00
O924   O     0.80758   0.83092   0.67207   0.00000  Uiso   1.00
O925   O     0.90819   0.84040   0.68161   0.00000  Uiso   1.00
H926   H     0.98063   0.87614   0.60246   0.00000  Uiso   1.00
O927   O     0.67996   0.89670   0.77358   0.00000  Uiso   1.00
C928   C     0.99482   0.91034   0.82428   0.00000  Uiso   1.00
H929   H     0.94514   0.91196   0.83304   0.00000  Uiso   1.00
H930   H     0.68827   0.95033   0.83280   0.00000  Uiso   1.00
H931   H     0.67278   0.88300   0.84825   0.00000  Uiso   1.00
O932   O     0.98946   0.79044   0.69962   0.00000  Uiso   1.00
C933   C     0.67816   0.74395   0.68781   0.00000  Uiso   1.00
H934   H     0.67093   0.72084   0.72161   0.00000  Uiso   1.00
H935   H     0.72671   0.75185   0.66791   0.00000  Uiso   1.00
H936   H     0.98359   0.71908   0.66147   0.00000  Uiso   1.00
loop_
_geom_bond_atom_site_label_1
_geom_bond_atom_site_label_2
_geom_bond_distance
_geom_bond_site_symmetry_2
_ccdc_geom_bond_type
C1     C11     1.428   .     S
C1     O35     1.291   .     A
C1     O34     1.295   .     A
C2     C3      1.423   .     A
C2     C472    1.433   .     S
C2     C488    1.416   .     S
C3     C10     1.440   .     A
C3     C7      1.417   .     A
C4     C8      1.400   .     A
C4     C470    1.433   1_554 S
C4     C473    1.419   1_554 S
C5     C6      1.375   .     A
C5     C472    1.419   .     S
C5     C484    1.400   .     S
C6     C7      1.376   .     A
C6     H24     1.081   .     S
C7     H30     1.070   .     S
C8     H26     1.075   .     S
C8     C17     1.403   .     A
C9     H42     1.083   .     S
C9     C17     1.395   .     A
C9     C16     1.382   .     A
C10    C18     1.398   .     A
C10    C12     1.488   .     S
C11    C169    1.329   .     S
C11    H187    1.086   .     S
C12    O36     1.326   .     A
C12    O37     1.287   .     A
C13    C14     1.428   .     S
C13    C323    1.329   1_545 S
C13    H335    1.087   1_545 S
C14    O38     1.291   .     A
C14    O39     1.296   .     A
C15    O40     1.295   .     A
C15    O41     1.303   .     A
C15    C17     1.451   .     S
C16    C473    1.400   1_554 S
C16    H77     1.084   .     S
C18    C19     1.389   .     A
C18    H27     1.083   .     S
C19    C488    1.392   .     S
C19    H133    1.083   1_455 S
C20    H28     1.076   .     S
C20    C470    1.416   1_554 S
C20    C487    1.392   1_554 S
Cu21   O36     1.979   .     S
Cu21   Cu22    2.703   .     S
Cu21   O40     1.970   .     S
Cu21   O38     1.951   .     S
Cu21   N33     2.031   .     S
Cu21   O34     1.955   .     S
Cu22   O35     1.951   .     S
Cu22   N32     2.031   .     S
Cu22   O39     1.955   .     S
Cu22   O41     1.979   .     S
Cu22   O37     1.970   .     S
H23    C169    1.087   .     S
H25    C120    1.084   1_455 S
H29    C71     1.083   .     S
H31    C323    1.086   1_545 S
N32    N85     1.298   .     S
N32    O95     1.344   .     S
N33    N136    1.298   1_455 S
N33    O152    1.350   1_455 S
O43    N136    1.344   1_455 S
O43    C148    1.400   1_455 S
C44    H45     1.107   .     S
C44    O95     1.400   .     S
C44    H98     1.109   .     S
C44    H99     1.107   .     S
H46    C148    1.109   1_455 S
H47    C148    1.107   1_455 S
O48    N85     1.350   .     S
O48    C101    1.399   .     S
C49    H50     1.110   .     S
C49    H51     1.106   .     S
C49    O152    1.399   1_455 S
C49    H156    1.109   1_455 S
H52    C101    1.109   .     S
C53    C63     1.428   .     S
C53    O87     1.291   .     A
C53    O86     1.295   .     A
C54    C55     1.423   .     A
C54    C524    1.433   .     S
C54    C540    1.416   .     S
C55    C62     1.440   .     A
C55    C59     1.417   .     A
C56    C60     1.400   .     A
C56    C522    1.433   1_554 S
C56    C525    1.419   1_554 S
C57    C58     1.375   .     A
C57    C524    1.419   .     S
C57    C536    1.400   .     S
C58    C59     1.376   .     A
C58    H76     1.081   .     S
C59    H82     1.070   .     S
C60    H78     1.075   .     S
C60    C69     1.403   .     A
C61    H94     1.083   .     S
C61    C69     1.395   .     A
C61    C68     1.382   .     A
C62    C70     1.398   .     A
C62    C64     1.488   .     S
C63    C221    1.329   .     S
C63    H239    1.086   .     S
C64    O88     1.326   .     A
C64    O89     1.287   .     A
C65    C66     1.428   .     S
C65    C375    1.329   1_545 S
C65    H387    1.087   1_545 S
C66    O90     1.291   .     A
C66    O91     1.296   .     A
C67    O92     1.295   .     A
C67    O93     1.303   .     A
C67    C69     1.451   .     S
C68    C525    1.400   1_554 S
C68    H129    1.084   .     S
C70    C71     1.389   .     A
C70    H79     1.083   .     S
C71    C540    1.392   .     S
C72    H80     1.076   .     S
C72    C522    1.416   1_554 S
C72    C539    1.392   1_554 S
Cu73   O88     1.979   .     S
Cu73   Cu74    2.703   .     S
Cu73   O92     1.970   .     S
Cu73   O90     1.951   .     S
Cu73   N85     2.031   .     S
Cu73   O86     1.955   .     S
Cu74   O87     1.951   .     S
Cu74   N84     2.031   .     S
Cu74   O91     1.955   .     S
Cu74   O93     1.979   .     S
Cu74   O89     1.970   .     S
H75    C221    1.087   .     S
H81    C123    1.083   .     S
H83    C375    1.086   1_545 S
N84    N137    1.298   .     S
N84    O147    1.344   .     S
C96    H97     1.107   .     S
C96    O147    1.400   .     S
C96    H150    1.109   .     S
C96    H151    1.107   .     S
O100   N137    1.350   .     S
O100   C153    1.399   .     S
C101   H102    1.110   .     S
C101   H103    1.106   .     S
H104   C153    1.109   .     S
C105   C115    1.428   .     S
C105   O139    1.291   .     A
C105   O138    1.295   .     A
C106   C107    1.423   .     A
C106   C576    1.433   .     S
C106   C592    1.416   .     S
C107   C114    1.440   .     A
C107   C111    1.417   .     A
C108   C112    1.400   .     A
C108   C574    1.433   1_554 S
C108   C577    1.419   1_554 S
C109   C110    1.375   .     A
C109   C576    1.419   .     S
C109   C588    1.400   .     S
C110   C111    1.376   .     A
C110   H128    1.081   .     S
C111   H134    1.070   .     S
C112   H130    1.075   .     S
C112   C121    1.403   .     A
C113   H146    1.083   .     S
C113   C121    1.395   .     A
C113   C120    1.382   .     A
C114   C122    1.398   .     A
C114   C116    1.488   .     S
C115   C273    1.329   .     S
C115   H291    1.086   .     S
C116   O140    1.326   .     A
C116   O141    1.287   .     A
C117   C118    1.428   .     S
C117   C427    1.329   1_545 S
C117   H439    1.087   1_545 S
C118   O142    1.291   .     A
C118   O143    1.296   .     A
C119   O144    1.295   .     A
C119   O145    1.303   .     A
C119   C121    1.451   .     S
C120   C577    1.400   1_554 S
C120   H25     1.084   1_655 S
C122   C123    1.389   .     A
C122   H131    1.083   .     S
C123   C592    1.392   .     S
C124   H132    1.076   .     S
C124   C574    1.416   1_554 S
C124   C591    1.392   1_554 S
Cu125  O140    1.979   .     S
Cu125  Cu126   2.703   .     S
Cu125  O144    1.970   .     S
Cu125  O142    1.951   .     S
Cu125  N137    2.031   .     S
Cu125  O138    1.955   .     S
Cu126  O139    1.951   .     S
Cu126  N136    2.031   .     S
Cu126  O143    1.955   .     S
Cu126  O145    1.979   .     S
Cu126  O141    1.970   .     S
H127   C273    1.087   .     S
H133   C19     1.083   1_655 S
H135   C427    1.086   1_545 S
N136   N33     1.298   1_655 S
N136   O43     1.344   1_655 S
C148   H149    1.107   .     S
C148   O43     1.400   1_655 S
C148   H46     1.109   1_655 S
C148   H47     1.107   1_655 S
O152   N33     1.350   1_655 S
O152   C49     1.399   1_655 S
C153   H154    1.110   .     S
C153   H155    1.106   .     S
H156   C49     1.109   1_655 S
C157   C167    1.428   .     S
C157   O191    1.291   .     A
C157   O190    1.295   .     A
C158   C159    1.423   .     A
C158   C628    1.433   .     S
C158   C644    1.416   .     S
C159   C166    1.440   .     A
C159   C163    1.417   .     A
C160   C164    1.400   .     A
C160   C626    1.433   1_554 S
C160   C629    1.419   1_554 S
C161   C162    1.375   .     A
C161   C628    1.419   .     S
C161   C640    1.400   .     S
C162   C163    1.376   .     A
C162   H180    1.081   .     S
C163   H186    1.070   .     S
C164   H182    1.075   .     S
C164   C173    1.403   .     A
C165   H198    1.083   .     S
C165   C173    1.395   .     A
C165   C172    1.382   .     A
C166   C174    1.398   .     A
C166   C168    1.488   .     S
C167   C325    1.329   .     S
C167   H343    1.086   .     S
C168   O192    1.326   .     A
C168   O193    1.287   .     A
C169   C170    1.428   .     S
C170   O194    1.291   .     A
C170   O195    1.296   .     A
C171   O196    1.295   .     A
C171   O197    1.303   .     A
C171   C173    1.451   .     S
C172   C629    1.400   1_554 S
C172   H233    1.084   .     S
C174   C175    1.389   .     A
C174   H183    1.083   .     S
C175   C644    1.392   .     S
C175   H289    1.083   1_455 S
C176   H184    1.076   .     S
C176   C626    1.416   1_554 S
C176   C643    1.392   1_554 S
Cu177  O192    1.979   .     S
Cu177  Cu178   2.703   .     S
Cu177  O196    1.970   .     S
Cu177  O194    1.951   .     S
Cu177  N189    2.031   .     S
Cu177  O190    1.955   .     S
Cu178  O191    1.951   .     S
Cu178  N188    2.031   .     S
Cu178  O195    1.955   .     S
Cu178  O197    1.979   .     S
Cu178  O193    1.970   .     S
H179   C325    1.087   .     S
H181   C276    1.084   1_455 S
H185   C227    1.083   .     S
N188   N241    1.298   .     S
N188   O251    1.344   .     S
N189   N292    1.298   1_455 S
N189   O308    1.350   1_455 S
O199   N292    1.344   1_455 S
O199   C304    1.400   1_455 S
C200   H201    1.107   .     S
C200   O251    1.400   .     S
C200   H254    1.109   .     S
C200   H255    1.107   .     S
H202   C304    1.109   1_455 S
H203   C304    1.107   1_455 S
O204   N241    1.350   .     S
O204   C257    1.399   .     S
C205   H206    1.110   .     S
C205   H207    1.106   .     S
C205   O308    1.399   1_455 S
C205   H312    1.109   1_455 S
H208   C257    1.109   .     S
C209   C219    1.428   .     S
C209   O243    1.291   .     A
C209   O242    1.295   .     A
C210   C211    1.423   .     A
C210   C680    1.433   .     S
C210   C696    1.416   .     S
C211   C218    1.440   .     A
C211   C215    1.417   .     A
C212   C216    1.400   .     A
C212   C678    1.433   1_554 S
C212   C681    1.419   1_554 S
C213   C214    1.375   .     A
C213   C680    1.419   .     S
C213   C692    1.400   .     S
C214   C215    1.376   .     A
C214   H232    1.081   .     S
C215   H238    1.070   .     S
C216   H234    1.075   .     S
C216   C225    1.403   .     A
C217   H250    1.083   .     S
C217   C225    1.395   .     A
C217   C224    1.382   .     A
C218   C226    1.398   .     A
C218   C220    1.488   .     S
C219   C377    1.329   .     S
C219   H395    1.086   .     S
C220   O244    1.326   .     A
C220   O245    1.287   .     A
C221   C222    1.428   .     S
C222   O246    1.291   .     A
C222   O247    1.296   .     A
C223   O248    1.295   .     A
C223   O249    1.303   .     A
C223   C225    1.451   .     S
C224   C681    1.400   1_554 S
C224   H285    1.084   .     S
C226   C227    1.389   .     A
C226   H235    1.083   .     S
C227   C696    1.392   .     S
C228   H236    1.076   .     S
C228   C678    1.416   1_554 S
C228   C695    1.392   1_554 S
Cu229  O244    1.979   .     S
Cu229  Cu230   2.703   .     S
Cu229  O248    1.970   .     S
Cu229  O246    1.951   .     S
Cu229  N241    2.031   .     S
Cu229  O242    1.955   .     S
Cu230  O243    1.951   .     S
Cu230  N240    2.031   .     S
Cu230  O247    1.955   .     S
Cu230  O249    1.979   .     S
Cu230  O245    1.970   .     S
H231   C377    1.087   .     S
H237   C279    1.083   .     S
N240   N293    1.298   .     S
N240   O303    1.344   .     S
C252   H253    1.107   .     S
C252   O303    1.400   .     S
C252   H306    1.109   .     S
C252   H307    1.107   .     S
O256   N293    1.350   .     S
O256   C309    1.399   .     S
C257   H258    1.110   .     S
C257   H259    1.106   .     S
H260   C309    1.109   .     S
C261   C271    1.428   .     S
C261   O295    1.291   .     A
C261   O294    1.295   .     A
C262   C263    1.423   .     A
C262   C732    1.433   .     S
C262   C748    1.416   .     S
C263   C270    1.440   .     A
C263   C267    1.417   .     A
C264   C268    1.400   .     A
C264   C730    1.433   1_554 S
C264   C733    1.419   1_554 S
C265   C266    1.375   .     A
C265   C732    1.419   .     S
C265   C744    1.400   .     S
C266   C267    1.376   .     A
C266   H284    1.081   .     S
C267   H290    1.070   .     S
C268   H286    1.075   .     S
C268   C277    1.403   .     A
C269   H302    1.083   .     S
C269   C277    1.395   .     A
C269   C276    1.382   .     A
C270   C278    1.398   .     A
C270   C272    1.488   .     S
C271   C429    1.329   .     S
C271   H447    1.086   .     S
C272   O296    1.326   .     A
C272   O297    1.287   .     A
C273   C274    1.428   .     S
C274   O298    1.291   .     A
C274   O299    1.296   .     A
C275   O300    1.295   .     A
C275   O301    1.303   .     A
C275   C277    1.451   .     S
C276   C733    1.400   1_554 S
C276   H181    1.084   1_655 S
C278   C279    1.389   .     A
C278   H287    1.083   .     S
C279   C748    1.392   .     S
C280   H288    1.076   .     S
C280   C730    1.416   1_554 S
C280   C747    1.392   1_554 S
Cu281  O296    1.979   .     S
Cu281  Cu282   2.703   .     S
Cu281  O300    1.970   .     S
Cu281  O298    1.951   .     S
Cu281  N293    2.031   .     S
Cu281  O294    1.955   .     S
Cu282  O295    1.951   .     S
Cu282  N292    2.031   .     S
Cu282  O299    1.955   .     S
Cu282  O301    1.979   .     S
Cu282  O297    1.970   .     S
H283   C429    1.087   .     S
H289   C175    1.083   1_655 S
N292   N189    1.298   1_655 S
N292   O199    1.344   1_655 S
C304   H305    1.107   .     S
C304   O199    1.400   1_655 S
C304   H202    1.109   1_655 S
C304   H203    1.107   1_655 S
O308   N189    1.350   1_655 S
O308   C205    1.399   1_655 S
C309   H310    1.110   .     S
C309   H311    1.106   .     S
H312   C205    1.109   1_655 S
C313   C323    1.428   .     S
C313   O347    1.291   .     A
C313   O346    1.295   .     A
C314   C315    1.423   .     A
C314   C784    1.433   .     S
C314   C800    1.416   .     S
C315   C322    1.440   .     A
C315   C319    1.417   .     A
C316   C320    1.400   .     A
C316   C782    1.433   1_554 S
C316   C785    1.419   1_554 S
C317   C318    1.375   .     A
C317   C784    1.419   .     S
C317   C796    1.400   .     S
C318   C319    1.376   .     A
C318   H336    1.081   .     S
C319   H342    1.070   .     S
C320   H338    1.075   .     S
C320   C329    1.403   .     A
C321   H354    1.083   .     S
C321   C329    1.395   .     A
C321   C328    1.382   .     A
C322   C330    1.398   .     A
C322   C324    1.488   .     S
C323   C13     1.329   1_565 S
C323   H31     1.086   1_565 S
C324   O348    1.326   .     A
C324   O349    1.287   .     A
C325   C326    1.428   .     S
C326   O350    1.291   .     A
C326   O351    1.296   .     A
C327   O352    1.295   .     A
C327   O353    1.303   .     A
C327   C329    1.451   .     S
C328   C785    1.400   1_554 S
C328   H389    1.084   .     S
C330   C331    1.389   .     A
C330   H339    1.083   .     S
C331   C800    1.392   .     S
C331   H445    1.083   1_455 S
C332   H340    1.076   .     S
C332   C782    1.416   1_554 S
C332   C799    1.392   1_554 S
Cu333  O348    1.979   .     S
Cu333  Cu334   2.703   .     S
Cu333  O352    1.970   .     S
Cu333  O350    1.951   .     S
Cu333  N345    2.031   .     S
Cu333  O346    1.955   .     S
Cu334  O347    1.951   .     S
Cu334  N344    2.031   .     S
Cu334  O351    1.955   .     S
Cu334  O353    1.979   .     S
Cu334  O349    1.970   .     S
H335   C13     1.087   1_565 S
H337   C432    1.084   1_455 S
H341   C383    1.083   .     S
N344   N397    1.298   .     S
N344   O407    1.344   .     S
N345   N448    1.298   1_455 S
N345   O464    1.350   1_455 S
O355   N448    1.344   1_455 S
O355   C460    1.400   1_455 S
C356   H357    1.107   .     S
C356   O407    1.400   .     S
C356   H410    1.109   .     S
C356   H411    1.107   .     S
H358   C460    1.109   1_455 S
H359   C460    1.107   1_455 S
O360   N397    1.350   .     S
O360   C413    1.399   .     S
C361   H362    1.110   .     S
C361   H363    1.106   .     S
C361   O464    1.399   1_455 S
C361   H468    1.109   1_455 S
H364   C413    1.109   .     S
C365   C375    1.428   .     S
C365   O399    1.291   .     A
C365   O398    1.295   .     A
C366   C367    1.423   .     A
C366   C836    1.433   .     S
C366   C852    1.416   .     S
C367   C374    1.440   .     A
C367   C371    1.417   .     A
C368   C372    1.400   .     A
C368   C834    1.433   1_554 S
C368   C837    1.419   1_554 S
C369   C370    1.375   .     A
C369   C836    1.419   .     S
C369   C848    1.400   .     S
C370   C371    1.376   .     A
C370   H388    1.081   .     S
C371   H394    1.070   .     S
C372   H390    1.075   .     S
C372   C381    1.403   .     A
C373   H406    1.083   .     S
C373   C381    1.395   .     A
C373   C380    1.382   .     A
C374   C382    1.398   .     A
C374   C376    1.488   .     S
C375   C65     1.329   1_565 S
C375   H83     1.086   1_565 S
C376   O400    1.326   .     A
C376   O401    1.287   .     A
C377   C378    1.428   .     S
C378   O402    1.291   .     A
C378   O403    1.296   .     A
C379   O404    1.295   .     A
C379   O405    1.303   .     A
C379   C381    1.451   .     S
C380   C837    1.400   1_554 S
C380   H441    1.084   .     S
C382   C383    1.389   .     A
C382   H391    1.083   .     S
C383   C852    1.392   .     S
C384   H392    1.076   .     S
C384   C834    1.416   1_554 S
C384   C851    1.392   1_554 S
Cu385  O400    1.979   .     S
Cu385  Cu386   2.703   .     S
Cu385  O404    1.970   .     S
Cu385  O402    1.951   .     S
Cu385  N397    2.031   .     S
Cu385  O398    1.955   .     S
Cu386  O399    1.951   .     S
Cu386  N396    2.031   .     S
Cu386  O403    1.955   .     S
Cu386  O405    1.979   .     S
Cu386  O401    1.970   .     S
H387   C65     1.087   1_565 S
H393   C435    1.083   .     S
N396   N449    1.298   .     S
N396   O459    1.344   .     S
C408   H409    1.107   .     S
C408   O459    1.400   .     S
C408   H462    1.109   .     S
C408   H463    1.107   .     S
O412   N449    1.350   .     S
O412   C465    1.399   .     S
C413   H414    1.110   .     S
C413   H415    1.106   .     S
H416   C465    1.109   .     S
C417   C427    1.428   .     S
C417   O451    1.291   .     A
C417   O450    1.295   .     A
C418   C419    1.423   .     A
C418   C888    1.433   .     S
C418   C904    1.416   .     S
C419   C426    1.440   .     A
C419   C423    1.417   .     A
C420   C424    1.400   .     A
C420   C886    1.433   1_554 S
C420   C889    1.419   1_554 S
C421   C422    1.375   .     A
C421   C888    1.419   .     S
C421   C900    1.400   .     S
C422   C423    1.376   .     A
C422   H440    1.081   .     S
C423   H446    1.070   .     S
C424   H442    1.075   .     S
C424   C433    1.403   .     A
C425   H458    1.083   .     S
C425   C433    1.395   .     A
C425   C432    1.382   .     A
C426   C434    1.398   .     A
C426   C428    1.488   .     S
C427   C117    1.329   1_565 S
C427   H135    1.086   1_565 S
C428   O452    1.326   .     A
C428   O453    1.287   .     A
C429   C430    1.428   .     S
C430   O454    1.291   .     A
C430   O455    1.296   .     A
C431   O456    1.295   .     A
C431   O457    1.303   .     A
C431   C433    1.451   .     S
C432   C889    1.400   1_554 S
C432   H337    1.084   1_655 S
C434   C435    1.389   .     A
C434   H443    1.083   .     S
C435   C904    1.392   .     S
C436   H444    1.076   .     S
C436   C886    1.416   1_554 S
C436   C903    1.392   1_554 S
Cu437  O452    1.979   .     S
Cu437  Cu438   2.703   .     S
Cu437  O456    1.970   .     S
Cu437  O454    1.951   .     S
Cu437  N449    2.031   .     S
Cu437  O450    1.955   .     S
Cu438  O451    1.951   .     S
Cu438  N448    2.031   .     S
Cu438  O455    1.955   .     S
Cu438  O457    1.979   .     S
Cu438  O453    1.970   .     S
H439   C117    1.087   1_565 S
H445   C331    1.083   1_655 S
N448   N345    1.298   1_655 S
N448   O355    1.344   1_655 S
C460   H461    1.107   .     S
C460   O355    1.400   1_655 S
C460   H358    1.109   1_655 S
C460   H359    1.107   1_655 S
O464   N345    1.350   1_655 S
O464   C361    1.399   1_655 S
C465   H466    1.110   .     S
C465   H467    1.106   .     S
H468   C361    1.109   1_655 S
C469   C479    1.428   .     S
C469   O503    1.291   .     A
C469   O502    1.295   .     A
C470   C471    1.423   .     A
C470   C4      1.433   1_556 S
C470   C20     1.416   1_556 S
C471   C478    1.440   .     A
C471   C475    1.417   .     A
C472   C476    1.400   .     A
C473   C474    1.375   .     A
C473   C4      1.419   1_556 S
C473   C16     1.400   1_556 S
C474   C475    1.376   .     A
C474   H492    1.081   .     S
C475   H498    1.070   .     S
C476   H494    1.075   .     S
C476   C485    1.403   .     A
C477   H510    1.083   .     S
C477   C485    1.395   .     A
C477   C484    1.382   .     A
C478   C486    1.398   .     A
C478   C480    1.488   .     S
C479   C637    1.329   .     S
C479   H655    1.086   .     S
C480   O504    1.326   .     A
C480   O505    1.287   .     A
C481   C482    1.428   .     S
C481   C791    1.329   1_545 S
C481   H803    1.087   1_545 S
C482   O506    1.291   .     A
C482   O507    1.296   .     A
C483   O508    1.295   .     A
C483   O509    1.303   .     A
C483   C485    1.451   .     S
C484   H545    1.084   .     S
C486   C487    1.389   .     A
C486   H495    1.083   .     S
C487   C20     1.392   1_556 S
C487   H601    1.083   1_455 S
C488   H496    1.076   .     S
Cu489  O504    1.979   .     S
Cu489  Cu490   2.703   .     S
Cu489  O508    1.970   .     S
Cu489  O506    1.951   .     S
Cu489  N501    2.031   .     S
Cu489  O502    1.955   .     S
Cu490  O503    1.951   .     S
Cu490  N500    2.031   .     S
Cu490  O507    1.955   .     S
Cu490  O509    1.979   .     S
Cu490  O505    1.970   .     S
H491   C637    1.087   .     S
H493   C588    1.084   1_455 S
H497   C539    1.083   .     S
H499   C791    1.086   1_545 S
N500   N553    1.298   .     S
N500   O563    1.344   .     S
N501   N604    1.298   1_455 S
N501   O620    1.350   1_455 S
O511   N604    1.344   1_455 S
O511   C616    1.400   1_455 S
C512   H513    1.107   .     S
C512   O563    1.400   .     S
C512   H566    1.109   .     S
C512   H567    1.107   .     S
H514   C616    1.109   1_455 S
H515   C616    1.107   1_455 S
O516   N553    1.350   .     S
O516   C569    1.399   .     S
C517   H518    1.110   .     S
C517   H519    1.106   .     S
C517   O620    1.399   1_455 S
C517   H624    1.109   1_455 S
H520   C569    1.109   .     S
C521   C531    1.428   .     S
C521   O555    1.291   .     A
C521   O554    1.295   .     A
C522   C523    1.423   .     A
C522   C56     1.433   1_556 S
C522   C72     1.416   1_556 S
C523   C530    1.440   .     A
C523   C527    1.417   .     A
C524   C528    1.400   .     A
C525   C526    1.375   .     A
C525   C56     1.419   1_556 S
C525   C68     1.400   1_556 S
C526   C527    1.376   .     A
C526   H544    1.081   .     S
C527   H550    1.070   .     S
C528   H546    1.075   .     S
C528   C537    1.403   .     A
C529   H562    1.083   .     S
C529   C537    1.395   .     A
C529   C536    1.382   .     A
C530   C538    1.398   .     A
C530   C532    1.488   .     S
C531   C689    1.329   .     S
C531   H707    1.086   .     S
C532   O556    1.326   .     A
C532   O557    1.287   .     A
C533   C534    1.428   .     S
C533   C843    1.329   1_545 S
C533   H855    1.087   1_545 S
C534   O558    1.291   .     A
C534   O559    1.296   .     A
C535   O560    1.295   .     A
C535   O561    1.303   .     A
C535   C537    1.451   .     S
C536   H597    1.084   .     S
C538   C539    1.389   .     A
C538   H547    1.083   .     S
C539   C72     1.392   1_556 S
C540   H548    1.076   .     S
Cu541  O556    1.979   .     S
Cu541  Cu542   2.703   .     S
Cu541  O560    1.970   .     S
Cu541  O558    1.951   .     S
Cu541  N553    2.031   .     S
Cu541  O554    1.955   .     S
Cu542  O555    1.951   .     S
Cu542  N552    2.031   .     S
Cu542  O559    1.955   .     S
Cu542  O561    1.979   .     S
Cu542  O557    1.970   .     S
H543   C689    1.087   .     S
H549   C591    1.083   .     S
H551   C843    1.086   1_545 S
N552   N605    1.298   .     S
N552   O615    1.344   .     S
C564   H565    1.107   .     S
C564   O615    1.400   .     S
C564   H618    1.109   .     S
C564   H619    1.107   .     S
O568   N605    1.350   .     S
O568   C621    1.399   .     S
C569   H570    1.110   .     S
C569   H571    1.106   .     S
H572   C621    1.109   .     S
C573   C583    1.428   .     S
C573   O607    1.291   .     A
C573   O606    1.295   .     A
C574   C575    1.423   .     A
C574   C108    1.433   1_556 S
C574   C124    1.416   1_556 S
C575   C582    1.440   .     A
C575   C579    1.417   .     A
C576   C580    1.400   .     A
C577   C578    1.375   .     A
C577   C108    1.419   1_556 S
C577   C120    1.400   1_556 S
C578   C579    1.376   .     A
C578   H596    1.081   .     S
C579   H602    1.070   .     S
C580   H598    1.075   .     S
C580   C589    1.403   .     A
C581   H614    1.083   .     S
C581   C589    1.395   .     A
C581   C588    1.382   .     A
C582   C590    1.398   .     A
C582   C584    1.488   .     S
C583   C741    1.329   .     S
C583   H759    1.086   .     S
C584   O608    1.326   .     A
C584   O609    1.287   .     A
C585   C586    1.428   .     S
C585   C895    1.329   1_545 S
C585   H907    1.087   1_545 S
C586   O610    1.291   .     A
C586   O611    1.296   .     A
C587   O612    1.295   .     A
C587   O613    1.303   .     A
C587   C589    1.451   .     S
C588   H493    1.084   1_655 S
C590   C591    1.389   .     A
C590   H599    1.083   .     S
C591   C124    1.392   1_556 S
C592   H600    1.076   .     S
Cu593  O608    1.979   .     S
Cu593  Cu594   2.703   .     S
Cu593  O612    1.970   .     S
Cu593  O610    1.951   .     S
Cu593  N605    2.031   .     S
Cu593  O606    1.955   .     S
Cu594  O607    1.951   .     S
Cu594  N604    2.031   .     S
Cu594  O611    1.955   .     S
Cu594  O613    1.979   .     S
Cu594  O609    1.970   .     S
H595   C741    1.087   .     S
H601   C487    1.083   1_655 S
H603   C895    1.086   1_545 S
N604   N501    1.298   1_655 S
N604   O511    1.344   1_655 S
C616   H617    1.107   .     S
C616   O511    1.400   1_655 S
C616   H514    1.109   1_655 S
C616   H515    1.107   1_655 S
O620   N501    1.350   1_655 S
O620   C517    1.399   1_655 S
C621   H622    1.110   .     S
C621   H623    1.106   .     S
H624   C517    1.109   1_655 S
C625   C635    1.428   .     S
C625   O659    1.291   .     A
C625   O658    1.295   .     A
C626   C627    1.423   .     A
C626   C160    1.433   1_556 S
C626   C176    1.416   1_556 S
C627   C634    1.440   .     A
C627   C631    1.417   .     A
C628   C632    1.400   .     A
C629   C630    1.375   .     A
C629   C160    1.419   1_556 S
C629   C172    1.400   1_556 S
C630   C631    1.376   .     A
C630   H648    1.081   .     S
C631   H654    1.070   .     S
C632   H650    1.075   .     S
C632   C641    1.403   .     A
C633   H666    1.083   .     S
C633   C641    1.395   .     A
C633   C640    1.382   .     A
C634   C642    1.398   .     A
C634   C636    1.488   .     S
C635   C793    1.329   .     S
C635   H811    1.086   .     S
C636   O660    1.326   .     A
C636   O661    1.287   .     A
C637   C638    1.428   .     S
C638   O662    1.291   .     A
C638   O663    1.296   .     A
C639   O664    1.295   .     A
C639   O665    1.303   .     A
C639   C641    1.451   .     S
C640   H701    1.084   .     S
C642   C643    1.389   .     A
C642   H651    1.083   .     S
C643   C176    1.392   1_556 S
C643   H757    1.083   1_455 S
C644   H652    1.076   .     S
Cu645  O660    1.979   .     S
Cu645  Cu646   2.703   .     S
Cu645  O664    1.970   .     S
Cu645  O662    1.951   .     S
Cu645  N657    2.031   .     S
Cu645  O658    1.955   .     S
Cu646  O659    1.951   .     S
Cu646  N656    2.031   .     S
Cu646  O663    1.955   .     S
Cu646  O665    1.979   .     S
Cu646  O661    1.970   .     S
H647   C793    1.087   .     S
H649   C744    1.084   1_455 S
H653   C695    1.083   .     S
N656   N709    1.298   .     S
N656   O719    1.344   .     S
N657   N760    1.298   1_455 S
N657   O776    1.350   1_455 S
O667   N760    1.344   1_455 S
O667   C772    1.400   1_455 S
C668   H669    1.107   .     S
C668   O719    1.400   .     S
C668   H722    1.109   .     S
C668   H723    1.107   .     S
H670   C772    1.109   1_455 S
H671   C772    1.107   1_455 S
O672   N709    1.350   .     S
O672   C725    1.399   .     S
C673   H674    1.110   .     S
C673   H675    1.106   .     S
C673   O776    1.399   1_455 S
C673   H780    1.109   1_455 S
H676   C725    1.109   .     S
C677   C687    1.428   .     S
C677   O711    1.291   .     A
C677   O710    1.295   .     A
C678   C679    1.423   .     A
C678   C212    1.433   1_556 S
C678   C228    1.416   1_556 S
C679   C686    1.440   .     A
C679   C683    1.417   .     A
C680   C684    1.400   .     A
C681   C682    1.375   .     A
C681   C212    1.419   1_556 S
C681   C224    1.400   1_556 S
C682   C683    1.376   .     A
C682   H700    1.081   .     S
C683   H706    1.070   .     S
C684   H702    1.075   .     S
C684   C693    1.403   .     A
C685   H718    1.083   .     S
C685   C693    1.395   .     A
C685   C692    1.382   .     A
C686   C694    1.398   .     A
C686   C688    1.488   .     S
C687   C845    1.329   .     S
C687   H863    1.086   .     S
C688   O712    1.326   .     A
C688   O713    1.287   .     A
C689   C690    1.428   .     S
C690   O714    1.291   .     A
C690   O715    1.296   .     A
C691   O716    1.295   .     A
C691   O717    1.303   .     A
C691   C693    1.451   .     S
C692   H753    1.084   .     S
C694   C695    1.389   .     A
C694   H703    1.083   .     S
C695   C228    1.392   1_556 S
C696   H704    1.076   .     S
Cu697  O712    1.979   .     S
Cu697  Cu698   2.703   .     S
Cu697  O716    1.970   .     S
Cu697  O714    1.951   .     S
Cu697  N709    2.031   .     S
Cu697  O710    1.955   .     S
Cu698  O711    1.951   .     S
Cu698  N708    2.031   .     S
Cu698  O715    1.955   .     S
Cu698  O717    1.979   .     S
Cu698  O713    1.970   .     S
H699   C845    1.087   .     S
H705   C747    1.083   .     S
N708   N761    1.298   .     S
N708   O771    1.344   .     S
C720   H721    1.107   .     S
C720   O771    1.400   .     S
C720   H774    1.109   .     S
C720   H775    1.107   .     S
O724   N761    1.350   .     S
O724   C777    1.399   .     S
C725   H726    1.110   .     S
C725   H727    1.106   .     S
H728   C777    1.109   .     S
C729   C739    1.428   .     S
C729   O763    1.291   .     A
C729   O762    1.295   .     A
C730   C731    1.423   .     A
C730   C264    1.433   1_556 S
C730   C280    1.416   1_556 S
C731   C738    1.440   .     A
C731   C735    1.417   .     A
C732   C736    1.400   .     A
C733   C734    1.375   .     A
C733   C264    1.419   1_556 S
C733   C276    1.400   1_556 S
C734   C735    1.376   .     A
C734   H752    1.081   .     S
C735   H758    1.070   .     S
C736   H754    1.075   .     S
C736   C745    1.403   .     A
C737   H770    1.083   .     S
C737   C745    1.395   .     A
C737   C744    1.382   .     A
C738   C746    1.398   .     A
C738   C740    1.488   .     S
C739   C897    1.329   .     S
C739   H915    1.086   .     S
C740   O764    1.326   .     A
C740   O765    1.287   .     A
C741   C742    1.428   .     S
C742   O766    1.291   .     A
C742   O767    1.296   .     A
C743   O768    1.295   .     A
C743   O769    1.303   .     A
C743   C745    1.451   .     S
C744   H649    1.084   1_655 S
C746   C747    1.389   .     A
C746   H755    1.083   .     S
C747   C280    1.392   1_556 S
C748   H756    1.076   .     S
Cu749  O764    1.979   .     S
Cu749  Cu750   2.703   .     S
Cu749  O768    1.970   .     S
Cu749  O766    1.951   .     S
Cu749  N761    2.031   .     S
Cu749  O762    1.955   .     S
Cu750  O763    1.951   .     S
Cu750  N760    2.031   .     S
Cu750  O767    1.955   .     S
Cu750  O769    1.979   .     S
Cu750  O765    1.970   .     S
H751   C897    1.087   .     S
H757   C643    1.083   1_655 S
N760   N657    1.298   1_655 S
N760   O667    1.344   1_655 S
C772   H773    1.107   .     S
C772   O667    1.400   1_655 S
C772   H670    1.109   1_655 S
C772   H671    1.107   1_655 S
O776   N657    1.350   1_655 S
O776   C673    1.399   1_655 S
C777   H778    1.110   .     S
C777   H779    1.106   .     S
H780   C673    1.109   1_655 S
C781   C791    1.428   .     S
C781   O815    1.291   .     A
C781   O814    1.295   .     A
C782   C783    1.423   .     A
C782   C316    1.433   1_556 S
C782   C332    1.416   1_556 S
C783   C790    1.440   .     A
C783   C787    1.417   .     A
C784   C788    1.400   .     A
C785   C786    1.375   .     A
C785   C316    1.419   1_556 S
C785   C328    1.400   1_556 S
C786   C787    1.376   .     A
C786   H804    1.081   .     S
C787   H810    1.070   .     S
C788   H806    1.075   .     S
C788   C797    1.403   .     A
C789   H822    1.083   .     S
C789   C797    1.395   .     A
C789   C796    1.382   .     A
C790   C798    1.398   .     A
C790   C792    1.488   .     S
C791   C481    1.329   1_565 S
C791   H499    1.086   1_565 S
C792   O816    1.326   .     A
C792   O817    1.287   .     A
C793   C794    1.428   .     S
C794   O818    1.291   .     A
C794   O819    1.296   .     A
C795   O820    1.295   .     A
C795   O821    1.303   .     A
C795   C797    1.451   .     S
C796   H857    1.084   .     S
C798   C799    1.389   .     A
C798   H807    1.083   .     S
C799   C332    1.392   1_556 S
C799   H913    1.083   1_455 S
C800   H808    1.076   .     S
Cu801  O816    1.979   .     S
Cu801  Cu802   2.703   .     S
Cu801  O820    1.970   .     S
Cu801  O818    1.951   .     S
Cu801  N813    2.031   .     S
Cu801  O814    1.955   .     S
Cu802  O815    1.951   .     S
Cu802  N812    2.031   .     S
Cu802  O819    1.955   .     S
Cu802  O821    1.979   .     S
Cu802  O817    1.970   .     S
H803   C481    1.087   1_565 S
H805   C900    1.084   1_455 S
H809   C851    1.083   .     S
N812   N865    1.298   .     S
N812   O875    1.344   .     S
N813   N916    1.298   1_455 S
N813   O932    1.350   1_455 S
O823   N916    1.344   1_455 S
O823   C928    1.400   1_455 S
C824   H825    1.107   .     S
C824   O875    1.400   .     S
C824   H878    1.109   .     S
C824   H879    1.107   .     S
H826   C928    1.109   1_455 S
H827   C928    1.107   1_455 S
O828   N865    1.350   .     S
O828   C881    1.399   .     S
C829   H830    1.110   .     S
C829   H831    1.106   .     S
C829   O932    1.399   1_455 S
C829   H936    1.109   1_455 S
H832   C881    1.109   .     S
C833   C843    1.428   .     S
C833   O867    1.291   .     A
C833   O866    1.295   .     A
C834   C835    1.423   .     A
C834   C368    1.433   1_556 S
C834   C384    1.416   1_556 S
C835   C842    1.440   .     A
C835   C839    1.417   .     A
C836   C840    1.400   .     A
C837   C838    1.375   .     A
C837   C368    1.419   1_556 S
C837   C380    1.400   1_556 S
C838   C839    1.376   .     A
C838   H856    1.081   .     S
C839   H862    1.070   .     S
C840   H858    1.075   .     S
C840   C849    1.403   .     A
C841   H874    1.083   .     S
C841   C849    1.395   .     A
C841   C848    1.382   .     A
C842   C850    1.398   .     A
C842   C844    1.488   .     S
C843   C533    1.329   1_565 S
C843   H551    1.086   1_565 S
C844   O868    1.326   .     A
C844   O869    1.287   .     A
C845   C846    1.428   .     S
C846   O870    1.291   .     A
C846   O871    1.296   .     A
C847   O872    1.295   .     A
C847   O873    1.303   .     A
C847   C849    1.451   .     S
C848   H909    1.084   .     S
C850   C851    1.389   .     A
C850   H859    1.083   .     S
C851   C384    1.392   1_556 S
C852   H860    1.076   .     S
Cu853  O868    1.979   .     S
Cu853  Cu854   2.703   .     S
Cu853  O872    1.970   .     S
Cu853  O870    1.951   .     S
Cu853  N865    2.031   .     S
Cu853  O866    1.955   .     S
Cu854  O867    1.951   .     S
Cu854  N864    2.031   .     S
Cu854  O871    1.955   .     S
Cu854  O873    1.979   .     S
Cu854  O869    1.970   .     S
H855   C533    1.087   1_565 S
H861   C903    1.083   .     S
N864   N917    1.298   .     S
N864   O927    1.344   .     S
C876   H877    1.107   .     S
C876   O927    1.400   .     S
C876   H930    1.109   .     S
C876   H931    1.107   .     S
O880   N917    1.350   .     S
O880   C933    1.399   .     S
C881   H882    1.110   .     S
C881   H883    1.106   .     S
H884   C933    1.109   .     S
C885   C895    1.428   .     S
C885   O919    1.291   .     A
C885   O918    1.295   .     A
C886   C887    1.423   .     A
C886   C420    1.433   1_556 S
C886   C436    1.416   1_556 S
C887   C894    1.440   .     A
C887   C891    1.417   .     A
C888   C892    1.400   .     A
C889   C890    1.375   .     A
C889   C420    1.419   1_556 S
C889   C432    1.400   1_556 S
C890   C891    1.376   .     A
C890   H908    1.081   .     S
C891   H914    1.070   .     S
C892   H910    1.075   .     S
C892   C901    1.403   .     A
C893   H926    1.083   .     S
C893   C901    1.395   .     A
C893   C900    1.382   .     A
C894   C902    1.398   .     A
C894   C896    1.488   .     S
C895   C585    1.329   1_565 S
C895   H603    1.086   1_565 S
C896   O920    1.326   .     A
C896   O921    1.287   .     A
C897   C898    1.428   .     S
C898   O922    1.291   .     A
C898   O923    1.296   .     A
C899   O924    1.295   .     A
C899   O925    1.303   .     A
C899   C901    1.451   .     S
C900   H805    1.084   1_655 S
C902   C903    1.389   .     A
C902   H911    1.083   .     S
C903   C436    1.392   1_556 S
C904   H912    1.076   .     S
Cu905  O920    1.979   .     S
Cu905  Cu906   2.703   .     S
Cu905  O924    1.970   .     S
Cu905  O922    1.951   .     S
Cu905  N917    2.031   .     S
Cu905  O918    1.955   .     S
Cu906  O919    1.951   .     S
Cu906  N916    2.031   .     S
Cu906  O923    1.955   .     S
Cu906  O925    1.979   .     S
Cu906  O921    1.970   .     S
H907   C585    1.087   1_565 S
H913   C799    1.083   1_655 S
N916   N813    1.298   1_655 S
N916   O823    1.344   1_655 S
C928   H929    1.107   .     S
C928   O823    1.400   1_655 S
C928   H826    1.109   1_655 S
C928   H827    1.107   1_655 S
O932   N813    1.350   1_655 S
O932   C829    1.399   1_655 S
C933   H934    1.110   .     S
C933   H935    1.106   .     S
H936   C829    1.109   1_655 S
