data_str_m3_o1_o18_pcu_sym.20
_audit_creation_date              2020-01-03
_audit_creation_method            'Materials Studio'
_symmetry_space_group_name_H-M    'P1'
_symmetry_Int_Tables_number       1
_symmetry_cell_setting            triclinic
loop_
_symmetry_equiv_pos_as_xyz
  x,y,z
_cell_length_a                    29.7262
_cell_length_b                    31.9345
_cell_length_c                    30.6785
_cell_angle_alpha                 89.0690
_cell_angle_beta                  68.9854
_cell_angle_gamma                 91.3382
loop_
_atom_site_label
_atom_site_type_symbol
_atom_site_fract_x
_atom_site_fract_y
_atom_site_fract_z
_atom_site_U_iso_or_equiv
_atom_site_adp_type
_atom_site_occupancy
C1     C     0.16666   0.24652   0.25105   0.00000  Uiso   1.00
C2     C     0.16557   0.31161   0.29130   0.00000  Uiso   1.00
C3     C     0.16522   0.04281   0.25046   0.00000  Uiso   1.00
C4     C     0.16701   0.29079   0.25103   0.00000  Uiso   1.00
C5     C     0.31461   0.13421   0.23220   0.00000  Uiso   1.00
C6     C     0.01828   0.19885   0.26857   0.00000  Uiso   1.00
C7     C     0.02831   0.13348   0.23327   0.00000  Uiso   1.00
C8     C     0.30362   0.19848   0.26965   0.00000  Uiso   1.00
C9     C     0.13633   0.16679   0.33852   0.00000  Uiso   1.00
C10    C     0.19679   0.16570   0.16168   0.00000  Uiso   1.00
C11    C     0.11555   0.16866   0.39049   0.00000  Uiso   1.00
C12    C     0.16635   0.08689   0.24965   0.00000  Uiso   1.00
C13    C     0.21404   0.15494   0.11173   0.00000  Uiso   1.00
C14    C     0.05309   0.19374   0.46121   0.00000  Uiso   1.00
C15    C     0.24241   0.09892   0.05615   0.00000  Uiso   1.00
C16    C     0.07008   0.18688   0.41282   0.00000  Uiso   1.00
C17    C     0.24503   0.12123   0.09484   0.00000  Uiso   1.00
C18    C     0.14008   0.15204   0.41838   0.00000  Uiso   1.00
C19    C     0.18779   0.16954   0.08537   0.00000  Uiso   1.00
C20    C     0.11934   0.15362   0.46770   0.00000  Uiso   1.00
C21    C     0.17610   0.14272   0.05500   0.00000  Uiso   1.00
C22    C     0.07977   0.17990   0.48881   0.00000  Uiso   1.00
C23    C     0.09919   0.17735   0.06024   0.00000  Uiso   1.00
C24    C     0.20372   0.10650   0.04011   0.00000  Uiso   1.00
C25    C     0.14065   0.13290   0.49629   0.00000  Uiso   1.00
C26    C     0.13922   0.15210   0.03728   0.00000  Uiso   1.00
C27    C     0.28017   0.10987   0.11697   0.00000  Uiso   1.00
C28    C     0.03937   0.20006   0.38611   0.00000  Uiso   1.00
C29    C     0.00520   0.21229   0.48156   0.00000  Uiso   1.00
C30    C     0.28299   0.07216   0.02912   0.00000  Uiso   1.00
C31    C     0.08322   0.18242   0.11150   0.00000  Uiso   1.00
C32    C     0.14037   0.06149   0.46200   0.00000  Uiso   1.00
C33    C     0.15942   0.09197   0.48806   0.00000  Uiso   1.00
C34    C     0.06899   0.19074   0.03644   0.00000  Uiso   1.00
C35    C     0.19041   0.07850   0.01112   0.00000  Uiso   1.00
C36    C     0.16572   0.31221   0.21138   0.00000  Uiso   1.00
C37    C     0.16476   0.02159   0.29086   0.00000  Uiso   1.00
C38    C     0.16542   0.02201   0.21076   0.00000  Uiso   1.00
Cl39   Cl    0.02042   0.22302   0.06730   0.00000  Uiso   1.00
Cl40   Cl    0.26739   0.23857   0.29997   0.00000  Uiso   1.00
Cl41   Cl    0.20452   0.02480   0.01142   0.00000  Uiso   1.00
Cl42   Cl    0.18268   0.22408   0.08059   0.00000  Uiso   1.00
Cl43   Cl    0.20000   0.13441   0.39222   0.00000  Uiso   1.00
Cl44   Cl    0.16398   0.28532   0.16255   0.00000  Uiso   1.00
Cl45   Cl    0.16151   0.04946   0.34103   0.00000  Uiso   1.00
Cl46   Cl    0.16662   0.04955   0.15985   0.00000  Uiso   1.00
Cl47   Cl    0.16166   0.28373   0.34287   0.00000  Uiso   1.00
Cl48   Cl    0.05963   0.08798   0.21235   0.00000  Uiso   1.00
H49    H     0.30085   0.10827   0.21797   0.00000  Uiso   1.00
H50    H     0.03157   0.22444   0.28374   0.00000  Uiso   1.00
H51    H     0.30472   0.06560   0.14973   0.00000  Uiso   1.00
H52    H     0.06188   0.26051   0.38118   0.00000  Uiso   1.00
H53    H     0.26712   0.20180   0.01031   0.00000  Uiso   1.00
H54    H     0.29410   0.10353   0.46815   0.00000  Uiso   1.00
H55    H     0.06109   0.22053   0.16655   0.00000  Uiso   1.00
H56    H     0.14986   0.00794   0.42623   0.00000  Uiso   1.00
N57    N     0.04759   0.16668   0.25001   0.00000  Uiso   1.00
N58    N     0.28574   0.16666   0.24999   0.00000  Uiso   1.00
O59    O     0.12846   0.22775   0.25001   0.00000  Uiso   1.00
O60    O     0.27863   0.06962   0.13612   0.00000  Uiso   1.00
O61    O     0.01245   0.17426   0.37825   0.00000  Uiso   1.00
O62    O     0.03976   0.24163   0.37112   0.00000  Uiso   1.00
O63    O     0.00105   0.25010   0.47815   0.00000  Uiso   1.00
O64    O     0.29802   0.18599   0.00196   0.00000  Uiso   1.00
O65    O     0.29588   0.04380   0.04863   0.00000  Uiso   1.00
O66    O     0.30639   0.07862   0.48095   0.00000  Uiso   1.00
O67    O     0.08205   0.15194   0.13630   0.00000  Uiso   1.00
O68    O     0.07058   0.22156   0.13134   0.00000  Uiso   1.00
O69    O     0.09940   0.06459   0.46207   0.00000  Uiso   1.00
O70    O     0.20488   0.10558   0.25000   0.00000  Uiso   1.00
O71    O     0.16859   0.02875   0.43828   0.00000  Uiso   1.00
O72    O     0.20490   0.22774   0.25000   0.00000  Uiso   1.00
O73    O     0.12843   0.10559   0.25000   0.00000  Uiso   1.00
O74    O     0.10661   0.16667   0.31613   0.00000  Uiso   1.00
O75    O     0.22672   0.16666   0.18388   0.00000  Uiso   1.00
O76    O     0.18305   0.16666   0.31612   0.00000  Uiso   1.00
O77    O     0.15028   0.16667   0.18388   0.00000  Uiso   1.00
O78    O     0.31011   0.13594   0.11887   0.00000  Uiso   1.00
Zn79   Zn    0.11562   0.16667   0.25000   0.00000  Uiso   1.00
Zn80   Zn    0.21771   0.16666   0.25000   0.00000  Uiso   1.00
C81    C     0.49999   0.24652   0.25105   0.00000  Uiso   1.00
C82    C     0.49890   0.31161   0.29130   0.00000  Uiso   1.00
C83    C     0.49855   0.04281   0.25046   0.00000  Uiso   1.00
C84    C     0.50035   0.29079   0.25103   0.00000  Uiso   1.00
C85    C     0.64795   0.13421   0.23220   0.00000  Uiso   1.00
C86    C     0.35161   0.19885   0.26857   0.00000  Uiso   1.00
C87    C     0.36164   0.13348   0.23327   0.00000  Uiso   1.00
C88    C     0.63695   0.19848   0.26965   0.00000  Uiso   1.00
C89    C     0.46966   0.16679   0.33852   0.00000  Uiso   1.00
C90    C     0.53013   0.16570   0.16168   0.00000  Uiso   1.00
C91    C     0.44888   0.16866   0.39049   0.00000  Uiso   1.00
C92    C     0.49968   0.08689   0.24965   0.00000  Uiso   1.00
C93    C     0.54737   0.15494   0.11173   0.00000  Uiso   1.00
C94    C     0.38643   0.19374   0.46121   0.00000  Uiso   1.00
C95    C     0.57574   0.09892   0.05615   0.00000  Uiso   1.00
C96    C     0.40342   0.18688   0.41282   0.00000  Uiso   1.00
C97    C     0.57837   0.12123   0.09484   0.00000  Uiso   1.00
C98    C     0.47341   0.15204   0.41838   0.00000  Uiso   1.00
C99    C     0.52112   0.16954   0.08537   0.00000  Uiso   1.00
C100   C     0.45267   0.15362   0.46770   0.00000  Uiso   1.00
C101   C     0.50943   0.14272   0.05500   0.00000  Uiso   1.00
C102   C     0.41310   0.17990   0.48881   0.00000  Uiso   1.00
C103   C     0.43252   0.17735   0.06024   0.00000  Uiso   1.00
C104   C     0.53705   0.10650   0.04011   0.00000  Uiso   1.00
C105   C     0.47398   0.13290   0.49629   0.00000  Uiso   1.00
C106   C     0.47255   0.15210   0.03728   0.00000  Uiso   1.00
C107   C     0.61350   0.10987   0.11697   0.00000  Uiso   1.00
C108   C     0.37270   0.20006   0.38611   0.00000  Uiso   1.00
C109   C     0.33854   0.21229   0.48156   0.00000  Uiso   1.00
C110   C     0.61632   0.07216   0.02912   0.00000  Uiso   1.00
C111   C     0.41655   0.18242   0.11150   0.00000  Uiso   1.00
C112   C     0.47371   0.06149   0.46200   0.00000  Uiso   1.00
C113   C     0.49276   0.09197   0.48806   0.00000  Uiso   1.00
C114   C     0.40232   0.19074   0.03644   0.00000  Uiso   1.00
C115   C     0.52374   0.07850   0.01112   0.00000  Uiso   1.00
C116   C     0.49905   0.31221   0.21138   0.00000  Uiso   1.00
C117   C     0.49809   0.02159   0.29086   0.00000  Uiso   1.00
C118   C     0.49875   0.02201   0.21076   0.00000  Uiso   1.00
Cl119  Cl    0.35375   0.22302   0.06730   0.00000  Uiso   1.00
Cl120  Cl    0.60072   0.23857   0.29997   0.00000  Uiso   1.00
Cl121  Cl    0.53785   0.02480   0.01142   0.00000  Uiso   1.00
Cl122  Cl    0.51601   0.22408   0.08059   0.00000  Uiso   1.00
Cl123  Cl    0.53333   0.13441   0.39222   0.00000  Uiso   1.00
Cl124  Cl    0.49731   0.28532   0.16255   0.00000  Uiso   1.00
Cl125  Cl    0.49484   0.04946   0.34103   0.00000  Uiso   1.00
Cl126  Cl    0.49995   0.04955   0.15985   0.00000  Uiso   1.00
Cl127  Cl    0.49499   0.28373   0.34287   0.00000  Uiso   1.00
Cl128  Cl    0.39296   0.08798   0.21235   0.00000  Uiso   1.00
H129   H     0.63418   0.10827   0.21797   0.00000  Uiso   1.00
H130   H     0.36491   0.22444   0.28374   0.00000  Uiso   1.00
H131   H     0.63805   0.06560   0.14973   0.00000  Uiso   1.00
H132   H     0.39522   0.26051   0.38118   0.00000  Uiso   1.00
H133   H     0.60045   0.20180   0.01031   0.00000  Uiso   1.00
H134   H     0.62743   0.10353   0.46815   0.00000  Uiso   1.00
H135   H     0.39442   0.22053   0.16655   0.00000  Uiso   1.00
H136   H     0.48319   0.00794   0.42623   0.00000  Uiso   1.00
N137   N     0.38093   0.16668   0.25001   0.00000  Uiso   1.00
N138   N     0.61907   0.16666   0.24999   0.00000  Uiso   1.00
O139   O     0.46179   0.22775   0.25001   0.00000  Uiso   1.00
O140   O     0.61196   0.06962   0.13612   0.00000  Uiso   1.00
O141   O     0.34579   0.17426   0.37825   0.00000  Uiso   1.00
O142   O     0.37309   0.24163   0.37112   0.00000  Uiso   1.00
O143   O     0.33438   0.25010   0.47815   0.00000  Uiso   1.00
O144   O     0.63135   0.18599   0.00196   0.00000  Uiso   1.00
O145   O     0.62921   0.04380   0.04863   0.00000  Uiso   1.00
O146   O     0.63972   0.07862   0.48095   0.00000  Uiso   1.00
O147   O     0.41538   0.15194   0.13630   0.00000  Uiso   1.00
O148   O     0.40392   0.22156   0.13134   0.00000  Uiso   1.00
O149   O     0.43273   0.06459   0.46207   0.00000  Uiso   1.00
O150   O     0.53821   0.10558   0.25000   0.00000  Uiso   1.00
O151   O     0.50192   0.02875   0.43828   0.00000  Uiso   1.00
O152   O     0.53823   0.22774   0.25000   0.00000  Uiso   1.00
O153   O     0.46177   0.10559   0.25000   0.00000  Uiso   1.00
O154   O     0.43994   0.16667   0.31613   0.00000  Uiso   1.00
O155   O     0.56006   0.16666   0.18388   0.00000  Uiso   1.00
O156   O     0.51639   0.16666   0.31612   0.00000  Uiso   1.00
O157   O     0.48361   0.16667   0.18388   0.00000  Uiso   1.00
O158   O     0.64344   0.13594   0.11887   0.00000  Uiso   1.00
Zn159  Zn    0.44896   0.16667   0.25000   0.00000  Uiso   1.00
Zn160  Zn    0.55104   0.16666   0.25000   0.00000  Uiso   1.00
C161   C     0.83333   0.24652   0.25105   0.00000  Uiso   1.00
C162   C     0.83223   0.31161   0.29130   0.00000  Uiso   1.00
C163   C     0.83189   0.04281   0.25046   0.00000  Uiso   1.00
C164   C     0.83368   0.29079   0.25103   0.00000  Uiso   1.00
C165   C     0.98128   0.13421   0.23220   0.00000  Uiso   1.00
C166   C     0.68494   0.19885   0.26857   0.00000  Uiso   1.00
C167   C     0.69498   0.13348   0.23327   0.00000  Uiso   1.00
C168   C     0.97029   0.19848   0.26965   0.00000  Uiso   1.00
C169   C     0.80300   0.16679   0.33852   0.00000  Uiso   1.00
C170   C     0.86346   0.16570   0.16168   0.00000  Uiso   1.00
C171   C     0.78221   0.16866   0.39049   0.00000  Uiso   1.00
C172   C     0.83301   0.08689   0.24965   0.00000  Uiso   1.00
C173   C     0.88071   0.15494   0.11173   0.00000  Uiso   1.00
C174   C     0.71976   0.19374   0.46121   0.00000  Uiso   1.00
C175   C     0.90907   0.09892   0.05615   0.00000  Uiso   1.00
C176   C     0.73675   0.18688   0.41282   0.00000  Uiso   1.00
C177   C     0.91170   0.12123   0.09484   0.00000  Uiso   1.00
C178   C     0.80675   0.15204   0.41838   0.00000  Uiso   1.00
C179   C     0.85445   0.16954   0.08537   0.00000  Uiso   1.00
C180   C     0.78601   0.15362   0.46770   0.00000  Uiso   1.00
C181   C     0.84276   0.14272   0.05500   0.00000  Uiso   1.00
C182   C     0.74644   0.17990   0.48881   0.00000  Uiso   1.00
C183   C     0.76585   0.17735   0.06024   0.00000  Uiso   1.00
C184   C     0.87038   0.10650   0.04011   0.00000  Uiso   1.00
C185   C     0.80731   0.13290   0.49629   0.00000  Uiso   1.00
C186   C     0.80588   0.15210   0.03728   0.00000  Uiso   1.00
C187   C     0.94683   0.10987   0.11697   0.00000  Uiso   1.00
C188   C     0.70604   0.20006   0.38611   0.00000  Uiso   1.00
C189   C     0.67187   0.21229   0.48156   0.00000  Uiso   1.00
C190   C     0.94966   0.07216   0.02912   0.00000  Uiso   1.00
C191   C     0.74988   0.18242   0.11150   0.00000  Uiso   1.00
C192   C     0.80704   0.06149   0.46200   0.00000  Uiso   1.00
C193   C     0.82609   0.09197   0.48806   0.00000  Uiso   1.00
C194   C     0.73565   0.19074   0.03644   0.00000  Uiso   1.00
C195   C     0.85708   0.07850   0.01112   0.00000  Uiso   1.00
C196   C     0.83238   0.31221   0.21138   0.00000  Uiso   1.00
C197   C     0.83142   0.02159   0.29086   0.00000  Uiso   1.00
C198   C     0.83209   0.02201   0.21076   0.00000  Uiso   1.00
Cl199  Cl    0.68708   0.22302   0.06730   0.00000  Uiso   1.00
Cl200  Cl    0.93405   0.23857   0.29997   0.00000  Uiso   1.00
Cl201  Cl    0.87119   0.02480   0.01142   0.00000  Uiso   1.00
Cl202  Cl    0.84935   0.22408   0.08059   0.00000  Uiso   1.00
Cl203  Cl    0.86666   0.13441   0.39222   0.00000  Uiso   1.00
Cl204  Cl    0.83064   0.28532   0.16255   0.00000  Uiso   1.00
Cl205  Cl    0.82817   0.04946   0.34103   0.00000  Uiso   1.00
Cl206  Cl    0.83328   0.04955   0.15985   0.00000  Uiso   1.00
Cl207  Cl    0.82833   0.28373   0.34287   0.00000  Uiso   1.00
Cl208  Cl    0.72630   0.08798   0.21235   0.00000  Uiso   1.00
H209   H     0.96752   0.10827   0.21797   0.00000  Uiso   1.00
H210   H     0.69824   0.22444   0.28374   0.00000  Uiso   1.00
H211   H     0.97138   0.06560   0.14973   0.00000  Uiso   1.00
H212   H     0.72855   0.26051   0.38118   0.00000  Uiso   1.00
H213   H     0.93379   0.20180   0.01031   0.00000  Uiso   1.00
H214   H     0.96077   0.10353   0.46815   0.00000  Uiso   1.00
H215   H     0.72776   0.22053   0.16655   0.00000  Uiso   1.00
H216   H     0.81652   0.00794   0.42623   0.00000  Uiso   1.00
N217   N     0.71426   0.16668   0.25001   0.00000  Uiso   1.00
N218   N     0.95241   0.16666   0.24999   0.00000  Uiso   1.00
O219   O     0.79512   0.22775   0.25001   0.00000  Uiso   1.00
O220   O     0.94529   0.06962   0.13612   0.00000  Uiso   1.00
O221   O     0.67912   0.17426   0.37825   0.00000  Uiso   1.00
O222   O     0.70643   0.24163   0.37112   0.00000  Uiso   1.00
O223   O     0.66771   0.25010   0.47815   0.00000  Uiso   1.00
O224   O     0.96468   0.18599   0.00196   0.00000  Uiso   1.00
O225   O     0.96255   0.04380   0.04863   0.00000  Uiso   1.00
O226   O     0.97306   0.07862   0.48095   0.00000  Uiso   1.00
O227   O     0.74872   0.15194   0.13630   0.00000  Uiso   1.00
O228   O     0.73725   0.22156   0.13134   0.00000  Uiso   1.00
O229   O     0.76606   0.06459   0.46207   0.00000  Uiso   1.00
O230   O     0.87154   0.10558   0.25000   0.00000  Uiso   1.00
O231   O     0.83526   0.02875   0.43828   0.00000  Uiso   1.00
O232   O     0.87157   0.22774   0.25000   0.00000  Uiso   1.00
O233   O     0.79510   0.10559   0.25000   0.00000  Uiso   1.00
O234   O     0.77328   0.16667   0.31613   0.00000  Uiso   1.00
O235   O     0.89339   0.16666   0.18388   0.00000  Uiso   1.00
O236   O     0.84972   0.16666   0.31612   0.00000  Uiso   1.00
O237   O     0.81695   0.16667   0.18388   0.00000  Uiso   1.00
O238   O     0.97678   0.13594   0.11887   0.00000  Uiso   1.00
Zn239  Zn    0.78229   0.16667   0.25000   0.00000  Uiso   1.00
Zn240  Zn    0.88438   0.16666   0.25000   0.00000  Uiso   1.00
C241   C     0.16666   0.57985   0.25105   0.00000  Uiso   1.00
C242   C     0.16557   0.64494   0.29130   0.00000  Uiso   1.00
C243   C     0.16522   0.37614   0.25046   0.00000  Uiso   1.00
C244   C     0.16701   0.62412   0.25103   0.00000  Uiso   1.00
C245   C     0.31461   0.46755   0.23220   0.00000  Uiso   1.00
C246   C     0.01828   0.53219   0.26857   0.00000  Uiso   1.00
C247   C     0.02831   0.46681   0.23327   0.00000  Uiso   1.00
C248   C     0.30362   0.53181   0.26965   0.00000  Uiso   1.00
C249   C     0.13633   0.50012   0.33852   0.00000  Uiso   1.00
C250   C     0.19679   0.49903   0.16168   0.00000  Uiso   1.00
C251   C     0.11555   0.50199   0.39049   0.00000  Uiso   1.00
C252   C     0.16635   0.42023   0.24965   0.00000  Uiso   1.00
C253   C     0.21404   0.48828   0.11173   0.00000  Uiso   1.00
C254   C     0.05309   0.52707   0.46121   0.00000  Uiso   1.00
C255   C     0.24241   0.43225   0.05615   0.00000  Uiso   1.00
C256   C     0.07008   0.52022   0.41282   0.00000  Uiso   1.00
C257   C     0.24503   0.45456   0.09484   0.00000  Uiso   1.00
C258   C     0.14008   0.48538   0.41838   0.00000  Uiso   1.00
C259   C     0.18779   0.50288   0.08537   0.00000  Uiso   1.00
C260   C     0.11934   0.48695   0.46770   0.00000  Uiso   1.00
C261   C     0.17610   0.47606   0.05500   0.00000  Uiso   1.00
C262   C     0.07977   0.51323   0.48881   0.00000  Uiso   1.00
C263   C     0.09919   0.51069   0.06024   0.00000  Uiso   1.00
C264   C     0.20372   0.43984   0.04011   0.00000  Uiso   1.00
C265   C     0.14065   0.46623   0.49629   0.00000  Uiso   1.00
C266   C     0.13922   0.48543   0.03728   0.00000  Uiso   1.00
C267   C     0.28017   0.44320   0.11697   0.00000  Uiso   1.00
C268   C     0.03937   0.53339   0.38611   0.00000  Uiso   1.00
C269   C     0.00520   0.54562   0.48156   0.00000  Uiso   1.00
C270   C     0.28299   0.40549   0.02912   0.00000  Uiso   1.00
C271   C     0.08322   0.51575   0.11150   0.00000  Uiso   1.00
C272   C     0.14037   0.39482   0.46200   0.00000  Uiso   1.00
C273   C     0.15942   0.42530   0.48806   0.00000  Uiso   1.00
C274   C     0.06899   0.52408   0.03644   0.00000  Uiso   1.00
C275   C     0.19041   0.41184   0.01112   0.00000  Uiso   1.00
C276   C     0.16572   0.64555   0.21138   0.00000  Uiso   1.00
C277   C     0.16476   0.35493   0.29086   0.00000  Uiso   1.00
C278   C     0.16542   0.35534   0.21076   0.00000  Uiso   1.00
Cl279  Cl    0.02042   0.55635   0.06730   0.00000  Uiso   1.00
Cl280  Cl    0.26739   0.57190   0.29997   0.00000  Uiso   1.00
Cl281  Cl    0.20452   0.35813   0.01142   0.00000  Uiso   1.00
Cl282  Cl    0.18268   0.55742   0.08059   0.00000  Uiso   1.00
Cl283  Cl    0.20000   0.46775   0.39222   0.00000  Uiso   1.00
Cl284  Cl    0.16398   0.61865   0.16255   0.00000  Uiso   1.00
Cl285  Cl    0.16151   0.38280   0.34103   0.00000  Uiso   1.00
Cl286  Cl    0.16662   0.38288   0.15985   0.00000  Uiso   1.00
Cl287  Cl    0.16166   0.61706   0.34287   0.00000  Uiso   1.00
Cl288  Cl    0.05963   0.42131   0.21235   0.00000  Uiso   1.00
H289   H     0.30085   0.44160   0.21797   0.00000  Uiso   1.00
H290   H     0.03157   0.55777   0.28374   0.00000  Uiso   1.00
H291   H     0.30472   0.39893   0.14973   0.00000  Uiso   1.00
H292   H     0.06188   0.59384   0.38118   0.00000  Uiso   1.00
H293   H     0.26712   0.53514   0.01031   0.00000  Uiso   1.00
H294   H     0.29410   0.43686   0.46815   0.00000  Uiso   1.00
H295   H     0.06109   0.55386   0.16655   0.00000  Uiso   1.00
H296   H     0.14986   0.34127   0.42623   0.00000  Uiso   1.00
N297   N     0.04759   0.50001   0.25001   0.00000  Uiso   1.00
N298   N     0.28574   0.49999   0.24999   0.00000  Uiso   1.00
O299   O     0.12846   0.56108   0.25001   0.00000  Uiso   1.00
O300   O     0.27863   0.40295   0.13612   0.00000  Uiso   1.00
O301   O     0.01245   0.50760   0.37825   0.00000  Uiso   1.00
O302   O     0.03976   0.57497   0.37112   0.00000  Uiso   1.00
O303   O     0.00105   0.58344   0.47815   0.00000  Uiso   1.00
O304   O     0.29802   0.51932   0.00196   0.00000  Uiso   1.00
O305   O     0.29588   0.37713   0.04863   0.00000  Uiso   1.00
O306   O     0.30639   0.41195   0.48095   0.00000  Uiso   1.00
O307   O     0.08205   0.48527   0.13630   0.00000  Uiso   1.00
O308   O     0.07058   0.55490   0.13134   0.00000  Uiso   1.00
O309   O     0.09940   0.39792   0.46207   0.00000  Uiso   1.00
O310   O     0.20488   0.43892   0.25000   0.00000  Uiso   1.00
O311   O     0.16859   0.36208   0.43828   0.00000  Uiso   1.00
O312   O     0.20490   0.56107   0.25000   0.00000  Uiso   1.00
O313   O     0.12843   0.43893   0.25000   0.00000  Uiso   1.00
O314   O     0.10661   0.50001   0.31613   0.00000  Uiso   1.00
O315   O     0.22672   0.49999   0.18388   0.00000  Uiso   1.00
O316   O     0.18305   0.50000   0.31612   0.00000  Uiso   1.00
O317   O     0.15028   0.50000   0.18388   0.00000  Uiso   1.00
O318   O     0.31011   0.46927   0.11887   0.00000  Uiso   1.00
Zn319  Zn    0.11562   0.50001   0.25000   0.00000  Uiso   1.00
Zn320  Zn    0.21771   0.49999   0.25000   0.00000  Uiso   1.00
C321   C     0.49999   0.57985   0.25105   0.00000  Uiso   1.00
C322   C     0.49890   0.64494   0.29130   0.00000  Uiso   1.00
C323   C     0.49855   0.37614   0.25046   0.00000  Uiso   1.00
C324   C     0.50035   0.62412   0.25103   0.00000  Uiso   1.00
C325   C     0.64795   0.46755   0.23220   0.00000  Uiso   1.00
C326   C     0.35161   0.53219   0.26857   0.00000  Uiso   1.00
C327   C     0.36164   0.46681   0.23327   0.00000  Uiso   1.00
C328   C     0.63695   0.53181   0.26965   0.00000  Uiso   1.00
C329   C     0.46966   0.50012   0.33852   0.00000  Uiso   1.00
C330   C     0.53013   0.49903   0.16168   0.00000  Uiso   1.00
C331   C     0.44888   0.50199   0.39049   0.00000  Uiso   1.00
C332   C     0.49968   0.42023   0.24965   0.00000  Uiso   1.00
C333   C     0.54737   0.48828   0.11173   0.00000  Uiso   1.00
C334   C     0.38643   0.52707   0.46121   0.00000  Uiso   1.00
C335   C     0.57574   0.43225   0.05615   0.00000  Uiso   1.00
C336   C     0.40342   0.52022   0.41282   0.00000  Uiso   1.00
C337   C     0.57837   0.45456   0.09484   0.00000  Uiso   1.00
C338   C     0.47341   0.48538   0.41838   0.00000  Uiso   1.00
C339   C     0.52112   0.50288   0.08537   0.00000  Uiso   1.00
C340   C     0.45267   0.48695   0.46770   0.00000  Uiso   1.00
C341   C     0.50943   0.47606   0.05500   0.00000  Uiso   1.00
C342   C     0.41310   0.51323   0.48881   0.00000  Uiso   1.00
C343   C     0.43252   0.51069   0.06024   0.00000  Uiso   1.00
C344   C     0.53705   0.43984   0.04011   0.00000  Uiso   1.00
C345   C     0.47398   0.46623   0.49629   0.00000  Uiso   1.00
C346   C     0.47255   0.48543   0.03728   0.00000  Uiso   1.00
C347   C     0.61350   0.44320   0.11697   0.00000  Uiso   1.00
C348   C     0.37270   0.53339   0.38611   0.00000  Uiso   1.00
C349   C     0.33854   0.54562   0.48156   0.00000  Uiso   1.00
C350   C     0.61632   0.40549   0.02912   0.00000  Uiso   1.00
C351   C     0.41655   0.51575   0.11150   0.00000  Uiso   1.00
C352   C     0.47371   0.39482   0.46200   0.00000  Uiso   1.00
C353   C     0.49276   0.42530   0.48806   0.00000  Uiso   1.00
C354   C     0.40232   0.52408   0.03644   0.00000  Uiso   1.00
C355   C     0.52374   0.41184   0.01112   0.00000  Uiso   1.00
C356   C     0.49905   0.64555   0.21138   0.00000  Uiso   1.00
C357   C     0.49809   0.35493   0.29086   0.00000  Uiso   1.00
C358   C     0.49875   0.35534   0.21076   0.00000  Uiso   1.00
Cl359  Cl    0.35375   0.55635   0.06730   0.00000  Uiso   1.00
Cl360  Cl    0.60072   0.57190   0.29997   0.00000  Uiso   1.00
Cl361  Cl    0.53785   0.35813   0.01142   0.00000  Uiso   1.00
Cl362  Cl    0.51601   0.55742   0.08059   0.00000  Uiso   1.00
Cl363  Cl    0.53333   0.46775   0.39222   0.00000  Uiso   1.00
Cl364  Cl    0.49731   0.61865   0.16255   0.00000  Uiso   1.00
Cl365  Cl    0.49484   0.38280   0.34103   0.00000  Uiso   1.00
Cl366  Cl    0.49995   0.38288   0.15985   0.00000  Uiso   1.00
Cl367  Cl    0.49499   0.61706   0.34287   0.00000  Uiso   1.00
Cl368  Cl    0.39296   0.42131   0.21235   0.00000  Uiso   1.00
H369   H     0.63418   0.44160   0.21797   0.00000  Uiso   1.00
H370   H     0.36491   0.55777   0.28374   0.00000  Uiso   1.00
H371   H     0.63805   0.39893   0.14973   0.00000  Uiso   1.00
H372   H     0.39522   0.59384   0.38118   0.00000  Uiso   1.00
H373   H     0.60045   0.53514   0.01031   0.00000  Uiso   1.00
H374   H     0.62743   0.43686   0.46815   0.00000  Uiso   1.00
H375   H     0.39442   0.55386   0.16655   0.00000  Uiso   1.00
H376   H     0.48319   0.34127   0.42623   0.00000  Uiso   1.00
N377   N     0.38093   0.50001   0.25001   0.00000  Uiso   1.00
N378   N     0.61907   0.49999   0.24999   0.00000  Uiso   1.00
O379   O     0.46179   0.56108   0.25001   0.00000  Uiso   1.00
O380   O     0.61196   0.40295   0.13612   0.00000  Uiso   1.00
O381   O     0.34579   0.50760   0.37825   0.00000  Uiso   1.00
O382   O     0.37309   0.57497   0.37112   0.00000  Uiso   1.00
O383   O     0.33438   0.58344   0.47815   0.00000  Uiso   1.00
O384   O     0.63135   0.51932   0.00196   0.00000  Uiso   1.00
O385   O     0.62921   0.37713   0.04863   0.00000  Uiso   1.00
O386   O     0.63972   0.41195   0.48095   0.00000  Uiso   1.00
O387   O     0.41538   0.48527   0.13630   0.00000  Uiso   1.00
O388   O     0.40392   0.55490   0.13134   0.00000  Uiso   1.00
O389   O     0.43273   0.39792   0.46207   0.00000  Uiso   1.00
O390   O     0.53821   0.43892   0.25000   0.00000  Uiso   1.00
O391   O     0.50192   0.36208   0.43828   0.00000  Uiso   1.00
O392   O     0.53823   0.56107   0.25000   0.00000  Uiso   1.00
O393   O     0.46177   0.43893   0.25000   0.00000  Uiso   1.00
O394   O     0.43994   0.50001   0.31613   0.00000  Uiso   1.00
O395   O     0.56006   0.49999   0.18388   0.00000  Uiso   1.00
O396   O     0.51639   0.50000   0.31612   0.00000  Uiso   1.00
O397   O     0.48361   0.50000   0.18388   0.00000  Uiso   1.00
O398   O     0.64344   0.46927   0.11887   0.00000  Uiso   1.00
Zn399  Zn    0.44896   0.50001   0.25000   0.00000  Uiso   1.00
Zn400  Zn    0.55104   0.49999   0.25000   0.00000  Uiso   1.00
C401   C     0.83333   0.57985   0.25105   0.00000  Uiso   1.00
C402   C     0.83223   0.64494   0.29130   0.00000  Uiso   1.00
C403   C     0.83189   0.37614   0.25046   0.00000  Uiso   1.00
C404   C     0.83368   0.62412   0.25103   0.00000  Uiso   1.00
C405   C     0.98128   0.46755   0.23220   0.00000  Uiso   1.00
C406   C     0.68494   0.53219   0.26857   0.00000  Uiso   1.00
C407   C     0.69498   0.46681   0.23327   0.00000  Uiso   1.00
C408   C     0.97029   0.53181   0.26965   0.00000  Uiso   1.00
C409   C     0.80300   0.50012   0.33852   0.00000  Uiso   1.00
C410   C     0.86346   0.49903   0.16168   0.00000  Uiso   1.00
C411   C     0.78221   0.50199   0.39049   0.00000  Uiso   1.00
C412   C     0.83301   0.42023   0.24965   0.00000  Uiso   1.00
C413   C     0.88071   0.48828   0.11173   0.00000  Uiso   1.00
C414   C     0.71976   0.52707   0.46121   0.00000  Uiso   1.00
C415   C     0.90907   0.43225   0.05615   0.00000  Uiso   1.00
C416   C     0.73675   0.52022   0.41282   0.00000  Uiso   1.00
C417   C     0.91170   0.45456   0.09484   0.00000  Uiso   1.00
C418   C     0.80675   0.48538   0.41838   0.00000  Uiso   1.00
C419   C     0.85445   0.50288   0.08537   0.00000  Uiso   1.00
C420   C     0.78601   0.48695   0.46770   0.00000  Uiso   1.00
C421   C     0.84276   0.47606   0.05500   0.00000  Uiso   1.00
C422   C     0.74644   0.51323   0.48881   0.00000  Uiso   1.00
C423   C     0.76585   0.51069   0.06024   0.00000  Uiso   1.00
C424   C     0.87038   0.43984   0.04011   0.00000  Uiso   1.00
C425   C     0.80731   0.46623   0.49629   0.00000  Uiso   1.00
C426   C     0.80588   0.48543   0.03728   0.00000  Uiso   1.00
C427   C     0.94683   0.44320   0.11697   0.00000  Uiso   1.00
C428   C     0.70604   0.53339   0.38611   0.00000  Uiso   1.00
C429   C     0.67187   0.54562   0.48156   0.00000  Uiso   1.00
C430   C     0.94966   0.40549   0.02912   0.00000  Uiso   1.00
C431   C     0.74988   0.51575   0.11150   0.00000  Uiso   1.00
C432   C     0.80704   0.39482   0.46200   0.00000  Uiso   1.00
C433   C     0.82609   0.42530   0.48806   0.00000  Uiso   1.00
C434   C     0.73565   0.52408   0.03644   0.00000  Uiso   1.00
C435   C     0.85708   0.41184   0.01112   0.00000  Uiso   1.00
C436   C     0.83238   0.64555   0.21138   0.00000  Uiso   1.00
C437   C     0.83142   0.35493   0.29086   0.00000  Uiso   1.00
C438   C     0.83209   0.35534   0.21076   0.00000  Uiso   1.00
Cl439  Cl    0.68708   0.55635   0.06730   0.00000  Uiso   1.00
Cl440  Cl    0.93405   0.57190   0.29997   0.00000  Uiso   1.00
Cl441  Cl    0.87119   0.35813   0.01142   0.00000  Uiso   1.00
Cl442  Cl    0.84935   0.55742   0.08059   0.00000  Uiso   1.00
Cl443  Cl    0.86666   0.46775   0.39222   0.00000  Uiso   1.00
Cl444  Cl    0.83064   0.61865   0.16255   0.00000  Uiso   1.00
Cl445  Cl    0.82817   0.38280   0.34103   0.00000  Uiso   1.00
Cl446  Cl    0.83328   0.38288   0.15985   0.00000  Uiso   1.00
Cl447  Cl    0.82833   0.61706   0.34287   0.00000  Uiso   1.00
Cl448  Cl    0.72630   0.42131   0.21235   0.00000  Uiso   1.00
H449   H     0.96752   0.44160   0.21797   0.00000  Uiso   1.00
H450   H     0.69824   0.55777   0.28374   0.00000  Uiso   1.00
H451   H     0.97138   0.39893   0.14973   0.00000  Uiso   1.00
H452   H     0.72855   0.59384   0.38118   0.00000  Uiso   1.00
H453   H     0.93379   0.53514   0.01031   0.00000  Uiso   1.00
H454   H     0.96077   0.43686   0.46815   0.00000  Uiso   1.00
H455   H     0.72776   0.55386   0.16655   0.00000  Uiso   1.00
H456   H     0.81652   0.34127   0.42623   0.00000  Uiso   1.00
N457   N     0.71426   0.50001   0.25001   0.00000  Uiso   1.00
N458   N     0.95241   0.49999   0.24999   0.00000  Uiso   1.00
O459   O     0.79512   0.56108   0.25001   0.00000  Uiso   1.00
O460   O     0.94529   0.40295   0.13612   0.00000  Uiso   1.00
O461   O     0.67912   0.50760   0.37825   0.00000  Uiso   1.00
O462   O     0.70643   0.57497   0.37112   0.00000  Uiso   1.00
O463   O     0.66771   0.58344   0.47815   0.00000  Uiso   1.00
O464   O     0.96468   0.51932   0.00196   0.00000  Uiso   1.00
O465   O     0.96255   0.37713   0.04863   0.00000  Uiso   1.00
O466   O     0.97306   0.41195   0.48095   0.00000  Uiso   1.00
O467   O     0.74872   0.48527   0.13630   0.00000  Uiso   1.00
O468   O     0.73725   0.55490   0.13134   0.00000  Uiso   1.00
O469   O     0.76606   0.39792   0.46207   0.00000  Uiso   1.00
O470   O     0.87154   0.43892   0.25000   0.00000  Uiso   1.00
O471   O     0.83526   0.36208   0.43828   0.00000  Uiso   1.00
O472   O     0.87157   0.56107   0.25000   0.00000  Uiso   1.00
O473   O     0.79510   0.43893   0.25000   0.00000  Uiso   1.00
O474   O     0.77328   0.50001   0.31613   0.00000  Uiso   1.00
O475   O     0.89339   0.49999   0.18388   0.00000  Uiso   1.00
O476   O     0.84972   0.50000   0.31612   0.00000  Uiso   1.00
O477   O     0.81695   0.50000   0.18388   0.00000  Uiso   1.00
O478   O     0.97678   0.46927   0.11887   0.00000  Uiso   1.00
Zn479  Zn    0.78229   0.50001   0.25000   0.00000  Uiso   1.00
Zn480  Zn    0.88438   0.49999   0.25000   0.00000  Uiso   1.00
C481   C     0.16666   0.91319   0.25105   0.00000  Uiso   1.00
C482   C     0.16557   0.97827   0.29130   0.00000  Uiso   1.00
C483   C     0.16522   0.70948   0.25046   0.00000  Uiso   1.00
C484   C     0.16701   0.95746   0.25103   0.00000  Uiso   1.00
C485   C     0.31461   0.80088   0.23220   0.00000  Uiso   1.00
C486   C     0.01828   0.86552   0.26857   0.00000  Uiso   1.00
C487   C     0.02831   0.80015   0.23327   0.00000  Uiso   1.00
C488   C     0.30362   0.86515   0.26965   0.00000  Uiso   1.00
C489   C     0.13633   0.83346   0.33852   0.00000  Uiso   1.00
C490   C     0.19679   0.83236   0.16168   0.00000  Uiso   1.00
C491   C     0.11555   0.83533   0.39049   0.00000  Uiso   1.00
C492   C     0.16635   0.75356   0.24965   0.00000  Uiso   1.00
C493   C     0.21404   0.82161   0.11173   0.00000  Uiso   1.00
C494   C     0.05309   0.86041   0.46121   0.00000  Uiso   1.00
C495   C     0.24241   0.76559   0.05615   0.00000  Uiso   1.00
C496   C     0.07008   0.85355   0.41282   0.00000  Uiso   1.00
C497   C     0.24503   0.78790   0.09484   0.00000  Uiso   1.00
C498   C     0.14008   0.81871   0.41838   0.00000  Uiso   1.00
C499   C     0.18779   0.83621   0.08537   0.00000  Uiso   1.00
C500   C     0.11934   0.82028   0.46770   0.00000  Uiso   1.00
C501   C     0.17610   0.80939   0.05500   0.00000  Uiso   1.00
C502   C     0.07977   0.84657   0.48881   0.00000  Uiso   1.00
C503   C     0.09919   0.84402   0.06024   0.00000  Uiso   1.00
C504   C     0.20372   0.77317   0.04011   0.00000  Uiso   1.00
C505   C     0.14065   0.79956   0.49629   0.00000  Uiso   1.00
C506   C     0.13922   0.81877   0.03728   0.00000  Uiso   1.00
C507   C     0.28017   0.77654   0.11697   0.00000  Uiso   1.00
C508   C     0.03937   0.86672   0.38611   0.00000  Uiso   1.00
C509   C     0.00520   0.87896   0.48156   0.00000  Uiso   1.00
C510   C     0.28299   0.73883   0.02912   0.00000  Uiso   1.00
C511   C     0.08322   0.84909   0.11150   0.00000  Uiso   1.00
C512   C     0.14037   0.72815   0.46200   0.00000  Uiso   1.00
C513   C     0.15942   0.75864   0.48806   0.00000  Uiso   1.00
C514   C     0.06899   0.85741   0.03644   0.00000  Uiso   1.00
C515   C     0.19041   0.74517   0.01112   0.00000  Uiso   1.00
C516   C     0.16572   0.97888   0.21138   0.00000  Uiso   1.00
C517   C     0.16476   0.68826   0.29086   0.00000  Uiso   1.00
C518   C     0.16542   0.68867   0.21076   0.00000  Uiso   1.00
Cl519  Cl    0.02042   0.88968   0.06730   0.00000  Uiso   1.00
Cl520  Cl    0.26739   0.90523   0.29997   0.00000  Uiso   1.00
Cl521  Cl    0.20452   0.69146   0.01142   0.00000  Uiso   1.00
Cl522  Cl    0.18268   0.89075   0.08059   0.00000  Uiso   1.00
Cl523  Cl    0.20000   0.80108   0.39222   0.00000  Uiso   1.00
Cl524  Cl    0.16398   0.95198   0.16255   0.00000  Uiso   1.00
Cl525  Cl    0.16151   0.71613   0.34103   0.00000  Uiso   1.00
Cl526  Cl    0.16662   0.71621   0.15985   0.00000  Uiso   1.00
Cl527  Cl    0.16166   0.95039   0.34287   0.00000  Uiso   1.00
Cl528  Cl    0.05963   0.75465   0.21235   0.00000  Uiso   1.00
H529   H     0.30085   0.77494   0.21797   0.00000  Uiso   1.00
H530   H     0.03157   0.89111   0.28374   0.00000  Uiso   1.00
H531   H     0.30472   0.73226   0.14973   0.00000  Uiso   1.00
H532   H     0.06188   0.92717   0.38118   0.00000  Uiso   1.00
H533   H     0.26712   0.86847   0.01031   0.00000  Uiso   1.00
H534   H     0.29410   0.77020   0.46815   0.00000  Uiso   1.00
H535   H     0.06109   0.88719   0.16655   0.00000  Uiso   1.00
H536   H     0.14986   0.67460   0.42623   0.00000  Uiso   1.00
N537   N     0.04759   0.83334   0.25001   0.00000  Uiso   1.00
N538   N     0.28574   0.83332   0.24999   0.00000  Uiso   1.00
O539   O     0.12846   0.89442   0.25001   0.00000  Uiso   1.00
O540   O     0.27863   0.73629   0.13612   0.00000  Uiso   1.00
O541   O     0.01245   0.84093   0.37825   0.00000  Uiso   1.00
O542   O     0.03976   0.90830   0.37112   0.00000  Uiso   1.00
O543   O     0.00105   0.91677   0.47815   0.00000  Uiso   1.00
O544   O     0.29802   0.85265   0.00196   0.00000  Uiso   1.00
O545   O     0.29588   0.71046   0.04863   0.00000  Uiso   1.00
O546   O     0.30639   0.74529   0.48095   0.00000  Uiso   1.00
O547   O     0.08205   0.81861   0.13630   0.00000  Uiso   1.00
O548   O     0.07058   0.88823   0.13134   0.00000  Uiso   1.00
O549   O     0.09940   0.73125   0.46207   0.00000  Uiso   1.00
O550   O     0.20488   0.77225   0.25000   0.00000  Uiso   1.00
O551   O     0.16859   0.69541   0.43828   0.00000  Uiso   1.00
O552   O     0.20490   0.89441   0.25000   0.00000  Uiso   1.00
O553   O     0.12843   0.77226   0.25000   0.00000  Uiso   1.00
O554   O     0.10661   0.83334   0.31613   0.00000  Uiso   1.00
O555   O     0.22672   0.83333   0.18388   0.00000  Uiso   1.00
O556   O     0.18305   0.83333   0.31612   0.00000  Uiso   1.00
O557   O     0.15028   0.83334   0.18388   0.00000  Uiso   1.00
O558   O     0.31011   0.80260   0.11887   0.00000  Uiso   1.00
Zn559  Zn    0.11562   0.83334   0.25000   0.00000  Uiso   1.00
Zn560  Zn    0.21771   0.83333   0.25000   0.00000  Uiso   1.00
C561   C     0.49999   0.91319   0.25105   0.00000  Uiso   1.00
C562   C     0.49890   0.97827   0.29130   0.00000  Uiso   1.00
C563   C     0.49855   0.70948   0.25046   0.00000  Uiso   1.00
C564   C     0.50035   0.95746   0.25103   0.00000  Uiso   1.00
C565   C     0.64795   0.80088   0.23220   0.00000  Uiso   1.00
C566   C     0.35161   0.86552   0.26857   0.00000  Uiso   1.00
C567   C     0.36164   0.80015   0.23327   0.00000  Uiso   1.00
C568   C     0.63695   0.86515   0.26965   0.00000  Uiso   1.00
C569   C     0.46966   0.83346   0.33852   0.00000  Uiso   1.00
C570   C     0.53013   0.83236   0.16168   0.00000  Uiso   1.00
C571   C     0.44888   0.83533   0.39049   0.00000  Uiso   1.00
C572   C     0.49968   0.75356   0.24965   0.00000  Uiso   1.00
C573   C     0.54737   0.82161   0.11173   0.00000  Uiso   1.00
C574   C     0.38643   0.86041   0.46121   0.00000  Uiso   1.00
C575   C     0.57574   0.76559   0.05615   0.00000  Uiso   1.00
C576   C     0.40342   0.85355   0.41282   0.00000  Uiso   1.00
C577   C     0.57837   0.78790   0.09484   0.00000  Uiso   1.00
C578   C     0.47341   0.81871   0.41838   0.00000  Uiso   1.00
C579   C     0.52112   0.83621   0.08537   0.00000  Uiso   1.00
C580   C     0.45267   0.82028   0.46770   0.00000  Uiso   1.00
C581   C     0.50943   0.80939   0.05500   0.00000  Uiso   1.00
C582   C     0.41310   0.84657   0.48881   0.00000  Uiso   1.00
C583   C     0.43252   0.84402   0.06024   0.00000  Uiso   1.00
C584   C     0.53705   0.77317   0.04011   0.00000  Uiso   1.00
C585   C     0.47398   0.79956   0.49629   0.00000  Uiso   1.00
C586   C     0.47255   0.81877   0.03728   0.00000  Uiso   1.00
C587   C     0.61350   0.77654   0.11697   0.00000  Uiso   1.00
C588   C     0.37270   0.86672   0.38611   0.00000  Uiso   1.00
C589   C     0.33854   0.87896   0.48156   0.00000  Uiso   1.00
C590   C     0.61632   0.73883   0.02912   0.00000  Uiso   1.00
C591   C     0.41655   0.84909   0.11150   0.00000  Uiso   1.00
C592   C     0.47371   0.72815   0.46200   0.00000  Uiso   1.00
C593   C     0.49276   0.75864   0.48806   0.00000  Uiso   1.00
C594   C     0.40232   0.85741   0.03644   0.00000  Uiso   1.00
C595   C     0.52374   0.74517   0.01112   0.00000  Uiso   1.00
C596   C     0.49905   0.97888   0.21138   0.00000  Uiso   1.00
C597   C     0.49809   0.68826   0.29086   0.00000  Uiso   1.00
C598   C     0.49875   0.68867   0.21076   0.00000  Uiso   1.00
Cl599  Cl    0.35375   0.88968   0.06730   0.00000  Uiso   1.00
Cl600  Cl    0.60072   0.90523   0.29997   0.00000  Uiso   1.00
Cl601  Cl    0.53785   0.69146   0.01142   0.00000  Uiso   1.00
Cl602  Cl    0.51601   0.89075   0.08059   0.00000  Uiso   1.00
Cl603  Cl    0.53333   0.80108   0.39222   0.00000  Uiso   1.00
Cl604  Cl    0.49731   0.95198   0.16255   0.00000  Uiso   1.00
Cl605  Cl    0.49484   0.71613   0.34103   0.00000  Uiso   1.00
Cl606  Cl    0.49995   0.71621   0.15985   0.00000  Uiso   1.00
Cl607  Cl    0.49499   0.95039   0.34287   0.00000  Uiso   1.00
Cl608  Cl    0.39296   0.75465   0.21235   0.00000  Uiso   1.00
H609   H     0.63418   0.77494   0.21797   0.00000  Uiso   1.00
H610   H     0.36491   0.89111   0.28374   0.00000  Uiso   1.00
H611   H     0.63805   0.73226   0.14973   0.00000  Uiso   1.00
H612   H     0.39522   0.92717   0.38118   0.00000  Uiso   1.00
H613   H     0.60045   0.86847   0.01031   0.00000  Uiso   1.00
H614   H     0.62743   0.77020   0.46815   0.00000  Uiso   1.00
H615   H     0.39442   0.88719   0.16655   0.00000  Uiso   1.00
H616   H     0.48319   0.67460   0.42623   0.00000  Uiso   1.00
N617   N     0.38093   0.83334   0.25001   0.00000  Uiso   1.00
N618   N     0.61907   0.83332   0.24999   0.00000  Uiso   1.00
O619   O     0.46179   0.89442   0.25001   0.00000  Uiso   1.00
O620   O     0.61196   0.73629   0.13612   0.00000  Uiso   1.00
O621   O     0.34579   0.84093   0.37825   0.00000  Uiso   1.00
O622   O     0.37309   0.90830   0.37112   0.00000  Uiso   1.00
O623   O     0.33438   0.91677   0.47815   0.00000  Uiso   1.00
O624   O     0.63135   0.85265   0.00196   0.00000  Uiso   1.00
O625   O     0.62921   0.71046   0.04863   0.00000  Uiso   1.00
O626   O     0.63972   0.74529   0.48095   0.00000  Uiso   1.00
O627   O     0.41538   0.81861   0.13630   0.00000  Uiso   1.00
O628   O     0.40392   0.88823   0.13134   0.00000  Uiso   1.00
O629   O     0.43273   0.73125   0.46207   0.00000  Uiso   1.00
O630   O     0.53821   0.77225   0.25000   0.00000  Uiso   1.00
O631   O     0.50192   0.69541   0.43828   0.00000  Uiso   1.00
O632   O     0.53823   0.89441   0.25000   0.00000  Uiso   1.00
O633   O     0.46177   0.77226   0.25000   0.00000  Uiso   1.00
O634   O     0.43994   0.83334   0.31613   0.00000  Uiso   1.00
O635   O     0.56006   0.83333   0.18388   0.00000  Uiso   1.00
O636   O     0.51639   0.83333   0.31612   0.00000  Uiso   1.00
O637   O     0.48361   0.83334   0.18388   0.00000  Uiso   1.00
O638   O     0.64344   0.80260   0.11887   0.00000  Uiso   1.00
Zn639  Zn    0.44896   0.83334   0.25000   0.00000  Uiso   1.00
Zn640  Zn    0.55104   0.83333   0.25000   0.00000  Uiso   1.00
C641   C     0.83333   0.91319   0.25105   0.00000  Uiso   1.00
C642   C     0.83223   0.97827   0.29130   0.00000  Uiso   1.00
C643   C     0.83189   0.70948   0.25046   0.00000  Uiso   1.00
C644   C     0.83368   0.95746   0.25103   0.00000  Uiso   1.00
C645   C     0.98128   0.80088   0.23220   0.00000  Uiso   1.00
C646   C     0.68494   0.86552   0.26857   0.00000  Uiso   1.00
C647   C     0.69498   0.80015   0.23327   0.00000  Uiso   1.00
C648   C     0.97029   0.86515   0.26965   0.00000  Uiso   1.00
C649   C     0.80300   0.83346   0.33852   0.00000  Uiso   1.00
C650   C     0.86346   0.83236   0.16168   0.00000  Uiso   1.00
C651   C     0.78221   0.83533   0.39049   0.00000  Uiso   1.00
C652   C     0.83301   0.75356   0.24965   0.00000  Uiso   1.00
C653   C     0.88071   0.82161   0.11173   0.00000  Uiso   1.00
C654   C     0.71976   0.86041   0.46121   0.00000  Uiso   1.00
C655   C     0.90907   0.76559   0.05615   0.00000  Uiso   1.00
C656   C     0.73675   0.85355   0.41282   0.00000  Uiso   1.00
C657   C     0.91170   0.78790   0.09484   0.00000  Uiso   1.00
C658   C     0.80675   0.81871   0.41838   0.00000  Uiso   1.00
C659   C     0.85445   0.83621   0.08537   0.00000  Uiso   1.00
C660   C     0.78601   0.82028   0.46770   0.00000  Uiso   1.00
C661   C     0.84276   0.80939   0.05500   0.00000  Uiso   1.00
C662   C     0.74644   0.84657   0.48881   0.00000  Uiso   1.00
C663   C     0.76585   0.84402   0.06024   0.00000  Uiso   1.00
C664   C     0.87038   0.77317   0.04011   0.00000  Uiso   1.00
C665   C     0.80731   0.79956   0.49629   0.00000  Uiso   1.00
C666   C     0.80588   0.81877   0.03728   0.00000  Uiso   1.00
C667   C     0.94683   0.77654   0.11697   0.00000  Uiso   1.00
C668   C     0.70604   0.86672   0.38611   0.00000  Uiso   1.00
C669   C     0.67187   0.87896   0.48156   0.00000  Uiso   1.00
C670   C     0.94966   0.73883   0.02912   0.00000  Uiso   1.00
C671   C     0.74988   0.84909   0.11150   0.00000  Uiso   1.00
C672   C     0.80704   0.72815   0.46200   0.00000  Uiso   1.00
C673   C     0.82609   0.75864   0.48806   0.00000  Uiso   1.00
C674   C     0.73565   0.85741   0.03644   0.00000  Uiso   1.00
C675   C     0.85708   0.74517   0.01112   0.00000  Uiso   1.00
C676   C     0.83238   0.97888   0.21138   0.00000  Uiso   1.00
C677   C     0.83142   0.68826   0.29086   0.00000  Uiso   1.00
C678   C     0.83209   0.68867   0.21076   0.00000  Uiso   1.00
Cl679  Cl    0.68708   0.88968   0.06730   0.00000  Uiso   1.00
Cl680  Cl    0.93405   0.90523   0.29997   0.00000  Uiso   1.00
Cl681  Cl    0.87119   0.69146   0.01142   0.00000  Uiso   1.00
Cl682  Cl    0.84935   0.89075   0.08059   0.00000  Uiso   1.00
Cl683  Cl    0.86666   0.80108   0.39222   0.00000  Uiso   1.00
Cl684  Cl    0.83064   0.95198   0.16255   0.00000  Uiso   1.00
Cl685  Cl    0.82817   0.71613   0.34103   0.00000  Uiso   1.00
Cl686  Cl    0.83328   0.71621   0.15985   0.00000  Uiso   1.00
Cl687  Cl    0.82833   0.95039   0.34287   0.00000  Uiso   1.00
Cl688  Cl    0.72630   0.75465   0.21235   0.00000  Uiso   1.00
H689   H     0.96752   0.77494   0.21797   0.00000  Uiso   1.00
H690   H     0.69824   0.89111   0.28374   0.00000  Uiso   1.00
H691   H     0.97138   0.73226   0.14973   0.00000  Uiso   1.00
H692   H     0.72855   0.92717   0.38118   0.00000  Uiso   1.00
H693   H     0.93379   0.86847   0.01031   0.00000  Uiso   1.00
H694   H     0.96077   0.77020   0.46815   0.00000  Uiso   1.00
H695   H     0.72776   0.88719   0.16655   0.00000  Uiso   1.00
H696   H     0.81652   0.67460   0.42623   0.00000  Uiso   1.00
N697   N     0.71426   0.83334   0.25001   0.00000  Uiso   1.00
N698   N     0.95241   0.83332   0.24999   0.00000  Uiso   1.00
O699   O     0.79512   0.89442   0.25001   0.00000  Uiso   1.00
O700   O     0.94529   0.73629   0.13612   0.00000  Uiso   1.00
O701   O     0.67912   0.84093   0.37825   0.00000  Uiso   1.00
O702   O     0.70643   0.90830   0.37112   0.00000  Uiso   1.00
O703   O     0.66771   0.91677   0.47815   0.00000  Uiso   1.00
O704   O     0.96468   0.85265   0.00196   0.00000  Uiso   1.00
O705   O     0.96255   0.71046   0.04863   0.00000  Uiso   1.00
O706   O     0.97306   0.74529   0.48095   0.00000  Uiso   1.00
O707   O     0.74872   0.81861   0.13630   0.00000  Uiso   1.00
O708   O     0.73725   0.88823   0.13134   0.00000  Uiso   1.00
O709   O     0.76606   0.73125   0.46207   0.00000  Uiso   1.00
O710   O     0.87154   0.77225   0.25000   0.00000  Uiso   1.00
O711   O     0.83526   0.69541   0.43828   0.00000  Uiso   1.00
O712   O     0.87157   0.89441   0.25000   0.00000  Uiso   1.00
O713   O     0.79510   0.77226   0.25000   0.00000  Uiso   1.00
O714   O     0.77328   0.83334   0.31613   0.00000  Uiso   1.00
O715   O     0.89339   0.83333   0.18388   0.00000  Uiso   1.00
O716   O     0.84972   0.83333   0.31612   0.00000  Uiso   1.00
O717   O     0.81695   0.83334   0.18388   0.00000  Uiso   1.00
O718   O     0.97678   0.80260   0.11887   0.00000  Uiso   1.00
Zn719  Zn    0.78229   0.83334   0.25000   0.00000  Uiso   1.00
Zn720  Zn    0.88438   0.83333   0.25000   0.00000  Uiso   1.00
C721   C     0.16666   0.24652   0.75105   0.00000  Uiso   1.00
C722   C     0.16557   0.31161   0.79130   0.00000  Uiso   1.00
C723   C     0.16522   0.04281   0.75046   0.00000  Uiso   1.00
C724   C     0.16701   0.29079   0.75103   0.00000  Uiso   1.00
C725   C     0.31461   0.13421   0.73220   0.00000  Uiso   1.00
C726   C     0.01828   0.19885   0.76857   0.00000  Uiso   1.00
C727   C     0.02831   0.13348   0.73327   0.00000  Uiso   1.00
C728   C     0.30362   0.19848   0.76965   0.00000  Uiso   1.00
C729   C     0.13633   0.16679   0.83852   0.00000  Uiso   1.00
C730   C     0.19679   0.16570   0.66168   0.00000  Uiso   1.00
C731   C     0.11555   0.16866   0.89049   0.00000  Uiso   1.00
C732   C     0.16635   0.08689   0.74965   0.00000  Uiso   1.00
C733   C     0.21404   0.15494   0.61173   0.00000  Uiso   1.00
C734   C     0.05309   0.19374   0.96121   0.00000  Uiso   1.00
C735   C     0.24241   0.09892   0.55615   0.00000  Uiso   1.00
C736   C     0.07008   0.18688   0.91282   0.00000  Uiso   1.00
C737   C     0.24503   0.12123   0.59484   0.00000  Uiso   1.00
C738   C     0.14008   0.15204   0.91838   0.00000  Uiso   1.00
C739   C     0.18779   0.16954   0.58537   0.00000  Uiso   1.00
C740   C     0.11934   0.15362   0.96770   0.00000  Uiso   1.00
C741   C     0.17610   0.14272   0.55500   0.00000  Uiso   1.00
C742   C     0.07977   0.17990   0.98881   0.00000  Uiso   1.00
C743   C     0.09919   0.17735   0.56024   0.00000  Uiso   1.00
C744   C     0.20372   0.10650   0.54011   0.00000  Uiso   1.00
C745   C     0.14065   0.13290   0.99629   0.00000  Uiso   1.00
C746   C     0.13922   0.15210   0.53728   0.00000  Uiso   1.00
C747   C     0.28017   0.10987   0.61697   0.00000  Uiso   1.00
C748   C     0.03937   0.20006   0.88611   0.00000  Uiso   1.00
C749   C     0.00520   0.21229   0.98156   0.00000  Uiso   1.00
C750   C     0.28299   0.07216   0.52912   0.00000  Uiso   1.00
C751   C     0.08322   0.18242   0.61150   0.00000  Uiso   1.00
C752   C     0.14037   0.06149   0.96200   0.00000  Uiso   1.00
C753   C     0.15942   0.09197   0.98806   0.00000  Uiso   1.00
C754   C     0.06899   0.19074   0.53644   0.00000  Uiso   1.00
C755   C     0.19041   0.07850   0.51112   0.00000  Uiso   1.00
C756   C     0.16572   0.31221   0.71138   0.00000  Uiso   1.00
C757   C     0.16476   0.02159   0.79086   0.00000  Uiso   1.00
C758   C     0.16542   0.02201   0.71076   0.00000  Uiso   1.00
Cl759  Cl    0.02042   0.22302   0.56730   0.00000  Uiso   1.00
Cl760  Cl    0.26739   0.23857   0.79997   0.00000  Uiso   1.00
Cl761  Cl    0.20452   0.02480   0.51142   0.00000  Uiso   1.00
Cl762  Cl    0.18268   0.22408   0.58059   0.00000  Uiso   1.00
Cl763  Cl    0.20000   0.13441   0.89222   0.00000  Uiso   1.00
Cl764  Cl    0.16398   0.28532   0.66255   0.00000  Uiso   1.00
Cl765  Cl    0.16151   0.04946   0.84103   0.00000  Uiso   1.00
Cl766  Cl    0.16662   0.04955   0.65985   0.00000  Uiso   1.00
Cl767  Cl    0.16166   0.28373   0.84287   0.00000  Uiso   1.00
Cl768  Cl    0.05963   0.08798   0.71235   0.00000  Uiso   1.00
H769   H     0.30085   0.10827   0.71797   0.00000  Uiso   1.00
H770   H     0.03157   0.22444   0.78374   0.00000  Uiso   1.00
H771   H     0.30472   0.06560   0.64973   0.00000  Uiso   1.00
H772   H     0.06188   0.26051   0.88118   0.00000  Uiso   1.00
H773   H     0.26712   0.20180   0.51031   0.00000  Uiso   1.00
H774   H     0.29410   0.10353   0.96815   0.00000  Uiso   1.00
H775   H     0.06109   0.22053   0.66655   0.00000  Uiso   1.00
H776   H     0.14986   0.00794   0.92623   0.00000  Uiso   1.00
N777   N     0.04759   0.16668   0.75001   0.00000  Uiso   1.00
N778   N     0.28574   0.16666   0.74999   0.00000  Uiso   1.00
O779   O     0.12846   0.22775   0.75001   0.00000  Uiso   1.00
O780   O     0.27863   0.06962   0.63612   0.00000  Uiso   1.00
O781   O     0.01245   0.17426   0.87825   0.00000  Uiso   1.00
O782   O     0.03976   0.24163   0.87112   0.00000  Uiso   1.00
O783   O     0.00105   0.25010   0.97815   0.00000  Uiso   1.00
O784   O     0.29802   0.18599   0.50196   0.00000  Uiso   1.00
O785   O     0.29588   0.04380   0.54863   0.00000  Uiso   1.00
O786   O     0.30639   0.07862   0.98095   0.00000  Uiso   1.00
O787   O     0.08205   0.15194   0.63630   0.00000  Uiso   1.00
O788   O     0.07058   0.22156   0.63134   0.00000  Uiso   1.00
O789   O     0.09940   0.06459   0.96207   0.00000  Uiso   1.00
O790   O     0.20488   0.10558   0.75000   0.00000  Uiso   1.00
O791   O     0.16859   0.02875   0.93828   0.00000  Uiso   1.00
O792   O     0.20490   0.22774   0.75000   0.00000  Uiso   1.00
O793   O     0.12843   0.10559   0.75000   0.00000  Uiso   1.00
O794   O     0.10661   0.16667   0.81613   0.00000  Uiso   1.00
O795   O     0.22672   0.16666   0.68388   0.00000  Uiso   1.00
O796   O     0.18305   0.16666   0.81612   0.00000  Uiso   1.00
O797   O     0.15028   0.16667   0.68388   0.00000  Uiso   1.00
O798   O     0.31011   0.13594   0.61887   0.00000  Uiso   1.00
Zn799  Zn    0.11562   0.16667   0.75000   0.00000  Uiso   1.00
Zn800  Zn    0.21771   0.16666   0.75000   0.00000  Uiso   1.00
C801   C     0.49999   0.24652   0.75105   0.00000  Uiso   1.00
C802   C     0.49890   0.31161   0.79130   0.00000  Uiso   1.00
C803   C     0.49855   0.04281   0.75046   0.00000  Uiso   1.00
C804   C     0.50035   0.29079   0.75103   0.00000  Uiso   1.00
C805   C     0.64795   0.13421   0.73220   0.00000  Uiso   1.00
C806   C     0.35161   0.19885   0.76857   0.00000  Uiso   1.00
C807   C     0.36164   0.13348   0.73327   0.00000  Uiso   1.00
C808   C     0.63695   0.19848   0.76965   0.00000  Uiso   1.00
C809   C     0.46966   0.16679   0.83852   0.00000  Uiso   1.00
C810   C     0.53013   0.16570   0.66168   0.00000  Uiso   1.00
C811   C     0.44888   0.16866   0.89049   0.00000  Uiso   1.00
C812   C     0.49968   0.08689   0.74965   0.00000  Uiso   1.00
C813   C     0.54737   0.15494   0.61173   0.00000  Uiso   1.00
C814   C     0.38643   0.19374   0.96121   0.00000  Uiso   1.00
C815   C     0.57574   0.09892   0.55615   0.00000  Uiso   1.00
C816   C     0.40342   0.18688   0.91282   0.00000  Uiso   1.00
C817   C     0.57837   0.12123   0.59484   0.00000  Uiso   1.00
C818   C     0.47341   0.15204   0.91838   0.00000  Uiso   1.00
C819   C     0.52112   0.16954   0.58537   0.00000  Uiso   1.00
C820   C     0.45267   0.15362   0.96770   0.00000  Uiso   1.00
C821   C     0.50943   0.14272   0.55500   0.00000  Uiso   1.00
C822   C     0.41310   0.17990   0.98881   0.00000  Uiso   1.00
C823   C     0.43252   0.17735   0.56024   0.00000  Uiso   1.00
C824   C     0.53705   0.10650   0.54011   0.00000  Uiso   1.00
C825   C     0.47398   0.13290   0.99629   0.00000  Uiso   1.00
C826   C     0.47255   0.15210   0.53728   0.00000  Uiso   1.00
C827   C     0.61350   0.10987   0.61697   0.00000  Uiso   1.00
C828   C     0.37270   0.20006   0.88611   0.00000  Uiso   1.00
C829   C     0.33854   0.21229   0.98156   0.00000  Uiso   1.00
C830   C     0.61632   0.07216   0.52912   0.00000  Uiso   1.00
C831   C     0.41655   0.18242   0.61150   0.00000  Uiso   1.00
C832   C     0.47371   0.06149   0.96200   0.00000  Uiso   1.00
C833   C     0.49276   0.09197   0.98806   0.00000  Uiso   1.00
C834   C     0.40232   0.19074   0.53644   0.00000  Uiso   1.00
C835   C     0.52374   0.07850   0.51112   0.00000  Uiso   1.00
C836   C     0.49905   0.31221   0.71138   0.00000  Uiso   1.00
C837   C     0.49809   0.02159   0.79086   0.00000  Uiso   1.00
C838   C     0.49875   0.02201   0.71076   0.00000  Uiso   1.00
Cl839  Cl    0.35375   0.22302   0.56730   0.00000  Uiso   1.00
Cl840  Cl    0.60072   0.23857   0.79997   0.00000  Uiso   1.00
Cl841  Cl    0.53785   0.02480   0.51142   0.00000  Uiso   1.00
Cl842  Cl    0.51601   0.22408   0.58059   0.00000  Uiso   1.00
Cl843  Cl    0.53333   0.13441   0.89222   0.00000  Uiso   1.00
Cl844  Cl    0.49731   0.28532   0.66255   0.00000  Uiso   1.00
Cl845  Cl    0.49484   0.04946   0.84103   0.00000  Uiso   1.00
Cl846  Cl    0.49995   0.04955   0.65985   0.00000  Uiso   1.00
Cl847  Cl    0.49499   0.28373   0.84287   0.00000  Uiso   1.00
Cl848  Cl    0.39296   0.08798   0.71235   0.00000  Uiso   1.00
H849   H     0.63418   0.10827   0.71797   0.00000  Uiso   1.00
H850   H     0.36491   0.22444   0.78374   0.00000  Uiso   1.00
H851   H     0.63805   0.06560   0.64973   0.00000  Uiso   1.00
H852   H     0.39522   0.26051   0.88118   0.00000  Uiso   1.00
H853   H     0.60045   0.20180   0.51031   0.00000  Uiso   1.00
H854   H     0.62743   0.10353   0.96815   0.00000  Uiso   1.00
H855   H     0.39442   0.22053   0.66655   0.00000  Uiso   1.00
H856   H     0.48319   0.00794   0.92623   0.00000  Uiso   1.00
N857   N     0.38093   0.16668   0.75001   0.00000  Uiso   1.00
N858   N     0.61907   0.16666   0.74999   0.00000  Uiso   1.00
O859   O     0.46179   0.22775   0.75001   0.00000  Uiso   1.00
O860   O     0.61196   0.06962   0.63612   0.00000  Uiso   1.00
O861   O     0.34579   0.17426   0.87825   0.00000  Uiso   1.00
O862   O     0.37309   0.24163   0.87112   0.00000  Uiso   1.00
O863   O     0.33438   0.25010   0.97815   0.00000  Uiso   1.00
O864   O     0.63135   0.18599   0.50196   0.00000  Uiso   1.00
O865   O     0.62921   0.04380   0.54863   0.00000  Uiso   1.00
O866   O     0.63972   0.07862   0.98095   0.00000  Uiso   1.00
O867   O     0.41538   0.15194   0.63630   0.00000  Uiso   1.00
O868   O     0.40392   0.22156   0.63134   0.00000  Uiso   1.00
O869   O     0.43273   0.06459   0.96207   0.00000  Uiso   1.00
O870   O     0.53821   0.10558   0.75000   0.00000  Uiso   1.00
O871   O     0.50192   0.02875   0.93828   0.00000  Uiso   1.00
O872   O     0.53823   0.22774   0.75000   0.00000  Uiso   1.00
O873   O     0.46177   0.10559   0.75000   0.00000  Uiso   1.00
O874   O     0.43994   0.16667   0.81613   0.00000  Uiso   1.00
O875   O     0.56006   0.16666   0.68388   0.00000  Uiso   1.00
O876   O     0.51639   0.16666   0.81612   0.00000  Uiso   1.00
O877   O     0.48361   0.16667   0.68388   0.00000  Uiso   1.00
O878   O     0.64344   0.13594   0.61887   0.00000  Uiso   1.00
Zn879  Zn    0.44896   0.16667   0.75000   0.00000  Uiso   1.00
Zn880  Zn    0.55104   0.16666   0.75000   0.00000  Uiso   1.00
C881   C     0.83333   0.24652   0.75105   0.00000  Uiso   1.00
C882   C     0.83223   0.31161   0.79130   0.00000  Uiso   1.00
C883   C     0.83189   0.04281   0.75046   0.00000  Uiso   1.00
C884   C     0.83368   0.29079   0.75103   0.00000  Uiso   1.00
C885   C     0.98128   0.13421   0.73220   0.00000  Uiso   1.00
C886   C     0.68494   0.19885   0.76857   0.00000  Uiso   1.00
C887   C     0.69498   0.13348   0.73327   0.00000  Uiso   1.00
C888   C     0.97029   0.19848   0.76965   0.00000  Uiso   1.00
C889   C     0.80300   0.16679   0.83852   0.00000  Uiso   1.00
C890   C     0.86346   0.16570   0.66168   0.00000  Uiso   1.00
C891   C     0.78221   0.16866   0.89049   0.00000  Uiso   1.00
C892   C     0.83301   0.08689   0.74965   0.00000  Uiso   1.00
C893   C     0.88071   0.15494   0.61173   0.00000  Uiso   1.00
C894   C     0.71976   0.19374   0.96121   0.00000  Uiso   1.00
C895   C     0.90907   0.09892   0.55615   0.00000  Uiso   1.00
C896   C     0.73675   0.18688   0.91282   0.00000  Uiso   1.00
C897   C     0.91170   0.12123   0.59484   0.00000  Uiso   1.00
C898   C     0.80675   0.15204   0.91838   0.00000  Uiso   1.00
C899   C     0.85445   0.16954   0.58537   0.00000  Uiso   1.00
C900   C     0.78601   0.15362   0.96770   0.00000  Uiso   1.00
C901   C     0.84276   0.14272   0.55500   0.00000  Uiso   1.00
C902   C     0.74644   0.17990   0.98881   0.00000  Uiso   1.00
C903   C     0.76585   0.17735   0.56024   0.00000  Uiso   1.00
C904   C     0.87038   0.10650   0.54011   0.00000  Uiso   1.00
C905   C     0.80731   0.13290   0.99629   0.00000  Uiso   1.00
C906   C     0.80588   0.15210   0.53728   0.00000  Uiso   1.00
C907   C     0.94683   0.10987   0.61697   0.00000  Uiso   1.00
C908   C     0.70604   0.20006   0.88611   0.00000  Uiso   1.00
C909   C     0.67187   0.21229   0.98156   0.00000  Uiso   1.00
C910   C     0.94966   0.07216   0.52912   0.00000  Uiso   1.00
C911   C     0.74988   0.18242   0.61150   0.00000  Uiso   1.00
C912   C     0.80704   0.06149   0.96200   0.00000  Uiso   1.00
C913   C     0.82609   0.09197   0.98806   0.00000  Uiso   1.00
C914   C     0.73565   0.19074   0.53644   0.00000  Uiso   1.00
C915   C     0.85708   0.07850   0.51112   0.00000  Uiso   1.00
C916   C     0.83238   0.31221   0.71138   0.00000  Uiso   1.00
C917   C     0.83142   0.02159   0.79086   0.00000  Uiso   1.00
C918   C     0.83209   0.02201   0.71076   0.00000  Uiso   1.00
Cl919  Cl    0.68708   0.22302   0.56730   0.00000  Uiso   1.00
Cl920  Cl    0.93405   0.23857   0.79997   0.00000  Uiso   1.00
Cl921  Cl    0.87119   0.02480   0.51142   0.00000  Uiso   1.00
Cl922  Cl    0.84935   0.22408   0.58059   0.00000  Uiso   1.00
Cl923  Cl    0.86666   0.13441   0.89222   0.00000  Uiso   1.00
Cl924  Cl    0.83064   0.28532   0.66255   0.00000  Uiso   1.00
Cl925  Cl    0.82817   0.04946   0.84103   0.00000  Uiso   1.00
Cl926  Cl    0.83328   0.04955   0.65985   0.00000  Uiso   1.00
Cl927  Cl    0.82833   0.28373   0.84287   0.00000  Uiso   1.00
Cl928  Cl    0.72630   0.08798   0.71235   0.00000  Uiso   1.00
H929   H     0.96752   0.10827   0.71797   0.00000  Uiso   1.00
H930   H     0.69824   0.22444   0.78374   0.00000  Uiso   1.00
H931   H     0.97138   0.06560   0.64973   0.00000  Uiso   1.00
H932   H     0.72855   0.26051   0.88118   0.00000  Uiso   1.00
H933   H     0.93379   0.20180   0.51031   0.00000  Uiso   1.00
H934   H     0.96077   0.10353   0.96815   0.00000  Uiso   1.00
H935   H     0.72776   0.22053   0.66655   0.00000  Uiso   1.00
H936   H     0.81652   0.00794   0.92623   0.00000  Uiso   1.00
N937   N     0.71426   0.16668   0.75001   0.00000  Uiso   1.00
N938   N     0.95241   0.16666   0.74999   0.00000  Uiso   1.00
O939   O     0.79512   0.22775   0.75001   0.00000  Uiso   1.00
O940   O     0.94529   0.06962   0.63612   0.00000  Uiso   1.00
O941   O     0.67912   0.17426   0.87825   0.00000  Uiso   1.00
O942   O     0.70643   0.24163   0.87112   0.00000  Uiso   1.00
O943   O     0.66771   0.25010   0.97815   0.00000  Uiso   1.00
O944   O     0.96468   0.18599   0.50196   0.00000  Uiso   1.00
O945   O     0.96255   0.04380   0.54863   0.00000  Uiso   1.00
O946   O     0.97306   0.07862   0.98095   0.00000  Uiso   1.00
O947   O     0.74872   0.15194   0.63630   0.00000  Uiso   1.00
O948   O     0.73725   0.22156   0.63134   0.00000  Uiso   1.00
O949   O     0.76606   0.06459   0.96207   0.00000  Uiso   1.00
O950   O     0.87154   0.10558   0.75000   0.00000  Uiso   1.00
O951   O     0.83526   0.02875   0.93828   0.00000  Uiso   1.00
O952   O     0.87157   0.22774   0.75000   0.00000  Uiso   1.00
O953   O     0.79510   0.10559   0.75000   0.00000  Uiso   1.00
O954   O     0.77328   0.16667   0.81613   0.00000  Uiso   1.00
O955   O     0.89339   0.16666   0.68388   0.00000  Uiso   1.00
O956   O     0.84972   0.16666   0.81612   0.00000  Uiso   1.00
O957   O     0.81695   0.16667   0.68388   0.00000  Uiso   1.00
O958   O     0.97678   0.13594   0.61887   0.00000  Uiso   1.00
Zn959  Zn    0.78229   0.16667   0.75000   0.00000  Uiso   1.00
Zn960  Zn    0.88438   0.16666   0.75000   0.00000  Uiso   1.00
C961   C     0.16666   0.57985   0.75105   0.00000  Uiso   1.00
C962   C     0.16557   0.64494   0.79130   0.00000  Uiso   1.00
C963   C     0.16522   0.37614   0.75046   0.00000  Uiso   1.00
C964   C     0.16701   0.62412   0.75103   0.00000  Uiso   1.00
C965   C     0.31461   0.46755   0.73220   0.00000  Uiso   1.00
C966   C     0.01828   0.53219   0.76857   0.00000  Uiso   1.00
C967   C     0.02831   0.46681   0.73327   0.00000  Uiso   1.00
C968   C     0.30362   0.53181   0.76965   0.00000  Uiso   1.00
C969   C     0.13633   0.50012   0.83852   0.00000  Uiso   1.00
C970   C     0.19679   0.49903   0.66168   0.00000  Uiso   1.00
C971   C     0.11555   0.50199   0.89049   0.00000  Uiso   1.00
C972   C     0.16635   0.42023   0.74965   0.00000  Uiso   1.00
C973   C     0.21404   0.48828   0.61173   0.00000  Uiso   1.00
C974   C     0.05309   0.52707   0.96121   0.00000  Uiso   1.00
C975   C     0.24241   0.43225   0.55615   0.00000  Uiso   1.00
C976   C     0.07008   0.52022   0.91282   0.00000  Uiso   1.00
C977   C     0.24503   0.45456   0.59484   0.00000  Uiso   1.00
C978   C     0.14008   0.48538   0.91838   0.00000  Uiso   1.00
C979   C     0.18779   0.50288   0.58537   0.00000  Uiso   1.00
C980   C     0.11934   0.48695   0.96770   0.00000  Uiso   1.00
C981   C     0.17610   0.47606   0.55500   0.00000  Uiso   1.00
C982   C     0.07977   0.51323   0.98881   0.00000  Uiso   1.00
C983   C     0.09919   0.51069   0.56024   0.00000  Uiso   1.00
C984   C     0.20372   0.43984   0.54011   0.00000  Uiso   1.00
C985   C     0.14065   0.46623   0.99629   0.00000  Uiso   1.00
C986   C     0.13922   0.48543   0.53728   0.00000  Uiso   1.00
C987   C     0.28017   0.44320   0.61697   0.00000  Uiso   1.00
C988   C     0.03937   0.53339   0.88611   0.00000  Uiso   1.00
C989   C     0.00520   0.54562   0.98156   0.00000  Uiso   1.00
C990   C     0.28299   0.40549   0.52912   0.00000  Uiso   1.00
C991   C     0.08322   0.51575   0.61150   0.00000  Uiso   1.00
C992   C     0.14037   0.39482   0.96200   0.00000  Uiso   1.00
C993   C     0.15942   0.42530   0.98806   0.00000  Uiso   1.00
C994   C     0.06899   0.52408   0.53644   0.00000  Uiso   1.00
C995   C     0.19041   0.41184   0.51112   0.00000  Uiso   1.00
C996   C     0.16572   0.64555   0.71138   0.00000  Uiso   1.00
C997   C     0.16476   0.35493   0.79086   0.00000  Uiso   1.00
C998   C     0.16542   0.35534   0.71076   0.00000  Uiso   1.00
Cl999  Cl    0.02042   0.55635   0.56730   0.00000  Uiso   1.00
Cl1000 Cl    0.26739   0.57190   0.79997   0.00000  Uiso   1.00
Cl1001 Cl    0.20452   0.35813   0.51142   0.00000  Uiso   1.00
Cl1002 Cl    0.18268   0.55742   0.58059   0.00000  Uiso   1.00
Cl1003 Cl    0.20000   0.46775   0.89222   0.00000  Uiso   1.00
Cl1004 Cl    0.16398   0.61865   0.66255   0.00000  Uiso   1.00
Cl1005 Cl    0.16151   0.38280   0.84103   0.00000  Uiso   1.00
Cl1006 Cl    0.16662   0.38288   0.65985   0.00000  Uiso   1.00
Cl1007 Cl    0.16166   0.61706   0.84287   0.00000  Uiso   1.00
Cl1008 Cl    0.05963   0.42131   0.71235   0.00000  Uiso   1.00
H1009  H     0.30085   0.44160   0.71797   0.00000  Uiso   1.00
H1010  H     0.03157   0.55777   0.78374   0.00000  Uiso   1.00
H1011  H     0.30472   0.39893   0.64973   0.00000  Uiso   1.00
H1012  H     0.06188   0.59384   0.88118   0.00000  Uiso   1.00
H1013  H     0.26712   0.53514   0.51031   0.00000  Uiso   1.00
H1014  H     0.29410   0.43686   0.96815   0.00000  Uiso   1.00
H1015  H     0.06109   0.55386   0.66655   0.00000  Uiso   1.00
H1016  H     0.14986   0.34127   0.92623   0.00000  Uiso   1.00
N1017  N     0.04759   0.50001   0.75001   0.00000  Uiso   1.00
N1018  N     0.28574   0.49999   0.74999   0.00000  Uiso   1.00
O1019  O     0.12846   0.56108   0.75001   0.00000  Uiso   1.00
O1020  O     0.27863   0.40295   0.63612   0.00000  Uiso   1.00
O1021  O     0.01245   0.50760   0.87825   0.00000  Uiso   1.00
O1022  O     0.03976   0.57497   0.87112   0.00000  Uiso   1.00
O1023  O     0.00105   0.58344   0.97815   0.00000  Uiso   1.00
O1024  O     0.29802   0.51932   0.50196   0.00000  Uiso   1.00
O1025  O     0.29588   0.37713   0.54863   0.00000  Uiso   1.00
O1026  O     0.30639   0.41195   0.98095   0.00000  Uiso   1.00
O1027  O     0.08205   0.48527   0.63630   0.00000  Uiso   1.00
O1028  O     0.07058   0.55490   0.63134   0.00000  Uiso   1.00
O1029  O     0.09940   0.39792   0.96207   0.00000  Uiso   1.00
O1030  O     0.20488   0.43892   0.75000   0.00000  Uiso   1.00
O1031  O     0.16859   0.36208   0.93828   0.00000  Uiso   1.00
O1032  O     0.20490   0.56107   0.75000   0.00000  Uiso   1.00
O1033  O     0.12843   0.43893   0.75000   0.00000  Uiso   1.00
O1034  O     0.10661   0.50001   0.81613   0.00000  Uiso   1.00
O1035  O     0.22672   0.49999   0.68388   0.00000  Uiso   1.00
O1036  O     0.18305   0.50000   0.81612   0.00000  Uiso   1.00
O1037  O     0.15028   0.50000   0.68388   0.00000  Uiso   1.00
O1038  O     0.31011   0.46927   0.61887   0.00000  Uiso   1.00
Zn1039 Zn    0.11562   0.50001   0.75000   0.00000  Uiso   1.00
Zn1040 Zn    0.21771   0.49999   0.75000   0.00000  Uiso   1.00
C1041  C     0.49999   0.57985   0.75105   0.00000  Uiso   1.00
C1042  C     0.49890   0.64494   0.79130   0.00000  Uiso   1.00
C1043  C     0.49855   0.37614   0.75046   0.00000  Uiso   1.00
C1044  C     0.50035   0.62412   0.75103   0.00000  Uiso   1.00
C1045  C     0.64795   0.46755   0.73220   0.00000  Uiso   1.00
C1046  C     0.35161   0.53219   0.76857   0.00000  Uiso   1.00
C1047  C     0.36164   0.46681   0.73327   0.00000  Uiso   1.00
C1048  C     0.63695   0.53181   0.76965   0.00000  Uiso   1.00
C1049  C     0.46966   0.50012   0.83852   0.00000  Uiso   1.00
C1050  C     0.53013   0.49903   0.66168   0.00000  Uiso   1.00
C1051  C     0.44888   0.50199   0.89049   0.00000  Uiso   1.00
C1052  C     0.49968   0.42023   0.74965   0.00000  Uiso   1.00
C1053  C     0.54737   0.48828   0.61173   0.00000  Uiso   1.00
C1054  C     0.38643   0.52707   0.96121   0.00000  Uiso   1.00
C1055  C     0.57574   0.43225   0.55615   0.00000  Uiso   1.00
C1056  C     0.40342   0.52022   0.91282   0.00000  Uiso   1.00
C1057  C     0.57837   0.45456   0.59484   0.00000  Uiso   1.00
C1058  C     0.47341   0.48538   0.91838   0.00000  Uiso   1.00
C1059  C     0.52112   0.50288   0.58537   0.00000  Uiso   1.00
C1060  C     0.45267   0.48695   0.96770   0.00000  Uiso   1.00
C1061  C     0.50943   0.47606   0.55500   0.00000  Uiso   1.00
C1062  C     0.41310   0.51323   0.98881   0.00000  Uiso   1.00
C1063  C     0.43252   0.51069   0.56024   0.00000  Uiso   1.00
C1064  C     0.53705   0.43984   0.54011   0.00000  Uiso   1.00
C1065  C     0.47398   0.46623   0.99629   0.00000  Uiso   1.00
C1066  C     0.47255   0.48543   0.53728   0.00000  Uiso   1.00
C1067  C     0.61350   0.44320   0.61697   0.00000  Uiso   1.00
C1068  C     0.37270   0.53339   0.88611   0.00000  Uiso   1.00
C1069  C     0.33854   0.54562   0.98156   0.00000  Uiso   1.00
C1070  C     0.61632   0.40549   0.52912   0.00000  Uiso   1.00
C1071  C     0.41655   0.51575   0.61150   0.00000  Uiso   1.00
C1072  C     0.47371   0.39482   0.96200   0.00000  Uiso   1.00
C1073  C     0.49276   0.42530   0.98806   0.00000  Uiso   1.00
C1074  C     0.40232   0.52408   0.53644   0.00000  Uiso   1.00
C1075  C     0.52374   0.41184   0.51112   0.00000  Uiso   1.00
C1076  C     0.49905   0.64555   0.71138   0.00000  Uiso   1.00
C1077  C     0.49809   0.35493   0.79086   0.00000  Uiso   1.00
C1078  C     0.49875   0.35534   0.71076   0.00000  Uiso   1.00
Cl1079 Cl    0.35375   0.55635   0.56730   0.00000  Uiso   1.00
Cl1080 Cl    0.60072   0.57190   0.79997   0.00000  Uiso   1.00
Cl1081 Cl    0.53785   0.35813   0.51142   0.00000  Uiso   1.00
Cl1082 Cl    0.51601   0.55742   0.58059   0.00000  Uiso   1.00
Cl1083 Cl    0.53333   0.46775   0.89222   0.00000  Uiso   1.00
Cl1084 Cl    0.49731   0.61865   0.66255   0.00000  Uiso   1.00
Cl1085 Cl    0.49484   0.38280   0.84103   0.00000  Uiso   1.00
Cl1086 Cl    0.49995   0.38288   0.65985   0.00000  Uiso   1.00
Cl1087 Cl    0.49499   0.61706   0.84287   0.00000  Uiso   1.00
Cl1088 Cl    0.39296   0.42131   0.71235   0.00000  Uiso   1.00
H1089  H     0.63418   0.44160   0.71797   0.00000  Uiso   1.00
H1090  H     0.36491   0.55777   0.78374   0.00000  Uiso   1.00
H1091  H     0.63805   0.39893   0.64973   0.00000  Uiso   1.00
H1092  H     0.39522   0.59384   0.88118   0.00000  Uiso   1.00
H1093  H     0.60045   0.53514   0.51031   0.00000  Uiso   1.00
H1094  H     0.62743   0.43686   0.96815   0.00000  Uiso   1.00
H1095  H     0.39442   0.55386   0.66655   0.00000  Uiso   1.00
H1096  H     0.48319   0.34127   0.92623   0.00000  Uiso   1.00
N1097  N     0.38093   0.50001   0.75001   0.00000  Uiso   1.00
N1098  N     0.61907   0.49999   0.74999   0.00000  Uiso   1.00
O1099  O     0.46179   0.56108   0.75001   0.00000  Uiso   1.00
O1100  O     0.61196   0.40295   0.63612   0.00000  Uiso   1.00
O1101  O     0.34579   0.50760   0.87825   0.00000  Uiso   1.00
O1102  O     0.37309   0.57497   0.87112   0.00000  Uiso   1.00
O1103  O     0.33438   0.58344   0.97815   0.00000  Uiso   1.00
O1104  O     0.63135   0.51932   0.50196   0.00000  Uiso   1.00
O1105  O     0.62921   0.37713   0.54863   0.00000  Uiso   1.00
O1106  O     0.63972   0.41195   0.98095   0.00000  Uiso   1.00
O1107  O     0.41538   0.48527   0.63630   0.00000  Uiso   1.00
O1108  O     0.40392   0.55490   0.63134   0.00000  Uiso   1.00
O1109  O     0.43273   0.39792   0.96207   0.00000  Uiso   1.00
O1110  O     0.53821   0.43892   0.75000   0.00000  Uiso   1.00
O1111  O     0.50192   0.36208   0.93828   0.00000  Uiso   1.00
O1112  O     0.53823   0.56107   0.75000   0.00000  Uiso   1.00
O1113  O     0.46177   0.43893   0.75000   0.00000  Uiso   1.00
O1114  O     0.43994   0.50001   0.81613   0.00000  Uiso   1.00
O1115  O     0.56006   0.49999   0.68388   0.00000  Uiso   1.00
O1116  O     0.51639   0.50000   0.81612   0.00000  Uiso   1.00
O1117  O     0.48361   0.50000   0.68388   0.00000  Uiso   1.00
O1118  O     0.64344   0.46927   0.61887   0.00000  Uiso   1.00
Zn1119 Zn    0.44896   0.50001   0.75000   0.00000  Uiso   1.00
Zn1120 Zn    0.55104   0.49999   0.75000   0.00000  Uiso   1.00
C1121  C     0.83333   0.57985   0.75105   0.00000  Uiso   1.00
C1122  C     0.83223   0.64494   0.79130   0.00000  Uiso   1.00
C1123  C     0.83189   0.37614   0.75046   0.00000  Uiso   1.00
C1124  C     0.83368   0.62412   0.75103   0.00000  Uiso   1.00
C1125  C     0.98128   0.46755   0.73220   0.00000  Uiso   1.00
C1126  C     0.68494   0.53219   0.76857   0.00000  Uiso   1.00
C1127  C     0.69498   0.46681   0.73327   0.00000  Uiso   1.00
C1128  C     0.97029   0.53181   0.76965   0.00000  Uiso   1.00
C1129  C     0.80300   0.50012   0.83852   0.00000  Uiso   1.00
C1130  C     0.86346   0.49903   0.66168   0.00000  Uiso   1.00
C1131  C     0.78221   0.50199   0.89049   0.00000  Uiso   1.00
C1132  C     0.83301   0.42023   0.74965   0.00000  Uiso   1.00
C1133  C     0.88071   0.48828   0.61173   0.00000  Uiso   1.00
C1134  C     0.71976   0.52707   0.96121   0.00000  Uiso   1.00
C1135  C     0.90907   0.43225   0.55615   0.00000  Uiso   1.00
C1136  C     0.73675   0.52022   0.91282   0.00000  Uiso   1.00
C1137  C     0.91170   0.45456   0.59484   0.00000  Uiso   1.00
C1138  C     0.80675   0.48538   0.91838   0.00000  Uiso   1.00
C1139  C     0.85445   0.50288   0.58537   0.00000  Uiso   1.00
C1140  C     0.78601   0.48695   0.96770   0.00000  Uiso   1.00
C1141  C     0.84276   0.47606   0.55500   0.00000  Uiso   1.00
C1142  C     0.74644   0.51323   0.98881   0.00000  Uiso   1.00
C1143  C     0.76585   0.51069   0.56024   0.00000  Uiso   1.00
C1144  C     0.87038   0.43984   0.54011   0.00000  Uiso   1.00
C1145  C     0.80731   0.46623   0.99629   0.00000  Uiso   1.00
C1146  C     0.80588   0.48543   0.53728   0.00000  Uiso   1.00
C1147  C     0.94683   0.44320   0.61697   0.00000  Uiso   1.00
C1148  C     0.70604   0.53339   0.88611   0.00000  Uiso   1.00
C1149  C     0.67187   0.54562   0.98156   0.00000  Uiso   1.00
C1150  C     0.94966   0.40549   0.52912   0.00000  Uiso   1.00
C1151  C     0.74988   0.51575   0.61150   0.00000  Uiso   1.00
C1152  C     0.80704   0.39482   0.96200   0.00000  Uiso   1.00
C1153  C     0.82609   0.42530   0.98806   0.00000  Uiso   1.00
C1154  C     0.73565   0.52408   0.53644   0.00000  Uiso   1.00
C1155  C     0.85708   0.41184   0.51112   0.00000  Uiso   1.00
C1156  C     0.83238   0.64555   0.71138   0.00000  Uiso   1.00
C1157  C     0.83142   0.35493   0.79086   0.00000  Uiso   1.00
C1158  C     0.83209   0.35534   0.71076   0.00000  Uiso   1.00
Cl1159 Cl    0.68708   0.55635   0.56730   0.00000  Uiso   1.00
Cl1160 Cl    0.93405   0.57190   0.79997   0.00000  Uiso   1.00
Cl1161 Cl    0.87119   0.35813   0.51142   0.00000  Uiso   1.00
Cl1162 Cl    0.84935   0.55742   0.58059   0.00000  Uiso   1.00
Cl1163 Cl    0.86666   0.46775   0.89222   0.00000  Uiso   1.00
Cl1164 Cl    0.83064   0.61865   0.66255   0.00000  Uiso   1.00
Cl1165 Cl    0.82817   0.38280   0.84103   0.00000  Uiso   1.00
Cl1166 Cl    0.83328   0.38288   0.65985   0.00000  Uiso   1.00
Cl1167 Cl    0.82833   0.61706   0.84287   0.00000  Uiso   1.00
Cl1168 Cl    0.72630   0.42131   0.71235   0.00000  Uiso   1.00
H1169  H     0.96752   0.44160   0.71797   0.00000  Uiso   1.00
H1170  H     0.69824   0.55777   0.78374   0.00000  Uiso   1.00
H1171  H     0.97138   0.39893   0.64973   0.00000  Uiso   1.00
H1172  H     0.72855   0.59384   0.88118   0.00000  Uiso   1.00
H1173  H     0.93379   0.53514   0.51031   0.00000  Uiso   1.00
H1174  H     0.96077   0.43686   0.96815   0.00000  Uiso   1.00
H1175  H     0.72776   0.55386   0.66655   0.00000  Uiso   1.00
H1176  H     0.81652   0.34127   0.92623   0.00000  Uiso   1.00
N1177  N     0.71426   0.50001   0.75001   0.00000  Uiso   1.00
N1178  N     0.95241   0.49999   0.74999   0.00000  Uiso   1.00
O1179  O     0.79512   0.56108   0.75001   0.00000  Uiso   1.00
O1180  O     0.94529   0.40295   0.63612   0.00000  Uiso   1.00
O1181  O     0.67912   0.50760   0.87825   0.00000  Uiso   1.00
O1182  O     0.70643   0.57497   0.87112   0.00000  Uiso   1.00
O1183  O     0.66771   0.58344   0.97815   0.00000  Uiso   1.00
O1184  O     0.96468   0.51932   0.50196   0.00000  Uiso   1.00
O1185  O     0.96255   0.37713   0.54863   0.00000  Uiso   1.00
O1186  O     0.97306   0.41195   0.98095   0.00000  Uiso   1.00
O1187  O     0.74872   0.48527   0.63630   0.00000  Uiso   1.00
O1188  O     0.73725   0.55490   0.63134   0.00000  Uiso   1.00
O1189  O     0.76606   0.39792   0.96207   0.00000  Uiso   1.00
O1190  O     0.87154   0.43892   0.75000   0.00000  Uiso   1.00
O1191  O     0.83526   0.36208   0.93828   0.00000  Uiso   1.00
O1192  O     0.87157   0.56107   0.75000   0.00000  Uiso   1.00
O1193  O     0.79510   0.43893   0.75000   0.00000  Uiso   1.00
O1194  O     0.77328   0.50001   0.81613   0.00000  Uiso   1.00
O1195  O     0.89339   0.49999   0.68388   0.00000  Uiso   1.00
O1196  O     0.84972   0.50000   0.81612   0.00000  Uiso   1.00
O1197  O     0.81695   0.50000   0.68388   0.00000  Uiso   1.00
O1198  O     0.97678   0.46927   0.61887   0.00000  Uiso   1.00
Zn1199 Zn    0.78229   0.50001   0.75000   0.00000  Uiso   1.00
Zn1200 Zn    0.88438   0.49999   0.75000   0.00000  Uiso   1.00
C1201  C     0.16666   0.91319   0.75105   0.00000  Uiso   1.00
C1202  C     0.16557   0.97827   0.79130   0.00000  Uiso   1.00
C1203  C     0.16522   0.70948   0.75046   0.00000  Uiso   1.00
C1204  C     0.16701   0.95746   0.75103   0.00000  Uiso   1.00
C1205  C     0.31461   0.80088   0.73220   0.00000  Uiso   1.00
C1206  C     0.01828   0.86552   0.76857   0.00000  Uiso   1.00
C1207  C     0.02831   0.80015   0.73327   0.00000  Uiso   1.00
C1208  C     0.30362   0.86515   0.76965   0.00000  Uiso   1.00
C1209  C     0.13633   0.83346   0.83852   0.00000  Uiso   1.00
C1210  C     0.19679   0.83236   0.66168   0.00000  Uiso   1.00
C1211  C     0.11555   0.83533   0.89049   0.00000  Uiso   1.00
C1212  C     0.16635   0.75356   0.74965   0.00000  Uiso   1.00
C1213  C     0.21404   0.82161   0.61173   0.00000  Uiso   1.00
C1214  C     0.05309   0.86041   0.96121   0.00000  Uiso   1.00
C1215  C     0.24241   0.76559   0.55615   0.00000  Uiso   1.00
C1216  C     0.07008   0.85355   0.91282   0.00000  Uiso   1.00
C1217  C     0.24503   0.78790   0.59484   0.00000  Uiso   1.00
C1218  C     0.14008   0.81871   0.91838   0.00000  Uiso   1.00
C1219  C     0.18779   0.83621   0.58537   0.00000  Uiso   1.00
C1220  C     0.11934   0.82028   0.96770   0.00000  Uiso   1.00
C1221  C     0.17610   0.80939   0.55500   0.00000  Uiso   1.00
C1222  C     0.07977   0.84657   0.98881   0.00000  Uiso   1.00
C1223  C     0.09919   0.84402   0.56024   0.00000  Uiso   1.00
C1224  C     0.20372   0.77317   0.54011   0.00000  Uiso   1.00
C1225  C     0.14065   0.79956   0.99629   0.00000  Uiso   1.00
C1226  C     0.13922   0.81877   0.53728   0.00000  Uiso   1.00
C1227  C     0.28017   0.77654   0.61697   0.00000  Uiso   1.00
C1228  C     0.03937   0.86672   0.88611   0.00000  Uiso   1.00
C1229  C     0.00520   0.87896   0.98156   0.00000  Uiso   1.00
C1230  C     0.28299   0.73883   0.52912   0.00000  Uiso   1.00
C1231  C     0.08322   0.84909   0.61150   0.00000  Uiso   1.00
C1232  C     0.14037   0.72815   0.96200   0.00000  Uiso   1.00
C1233  C     0.15942   0.75864   0.98806   0.00000  Uiso   1.00
C1234  C     0.06899   0.85741   0.53644   0.00000  Uiso   1.00
C1235  C     0.19041   0.74517   0.51112   0.00000  Uiso   1.00
C1236  C     0.16572   0.97888   0.71138   0.00000  Uiso   1.00
C1237  C     0.16476   0.68826   0.79086   0.00000  Uiso   1.00
C1238  C     0.16542   0.68867   0.71076   0.00000  Uiso   1.00
Cl1239 Cl    0.02042   0.88968   0.56730   0.00000  Uiso   1.00
Cl1240 Cl    0.26739   0.90523   0.79997   0.00000  Uiso   1.00
Cl1241 Cl    0.20452   0.69146   0.51142   0.00000  Uiso   1.00
Cl1242 Cl    0.18268   0.89075   0.58059   0.00000  Uiso   1.00
Cl1243 Cl    0.20000   0.80108   0.89222   0.00000  Uiso   1.00
Cl1244 Cl    0.16398   0.95198   0.66255   0.00000  Uiso   1.00
Cl1245 Cl    0.16151   0.71613   0.84103   0.00000  Uiso   1.00
Cl1246 Cl    0.16662   0.71621   0.65985   0.00000  Uiso   1.00
Cl1247 Cl    0.16166   0.95039   0.84287   0.00000  Uiso   1.00
Cl1248 Cl    0.05963   0.75465   0.71235   0.00000  Uiso   1.00
H1249  H     0.30085   0.77494   0.71797   0.00000  Uiso   1.00
H1250  H     0.03157   0.89111   0.78374   0.00000  Uiso   1.00
H1251  H     0.30472   0.73226   0.64973   0.00000  Uiso   1.00
H1252  H     0.06188   0.92717   0.88118   0.00000  Uiso   1.00
H1253  H     0.26712   0.86847   0.51031   0.00000  Uiso   1.00
H1254  H     0.29410   0.77020   0.96815   0.00000  Uiso   1.00
H1255  H     0.06109   0.88719   0.66655   0.00000  Uiso   1.00
H1256  H     0.14986   0.67460   0.92623   0.00000  Uiso   1.00
N1257  N     0.04759   0.83334   0.75001   0.00000  Uiso   1.00
N1258  N     0.28574   0.83332   0.74999   0.00000  Uiso   1.00
O1259  O     0.12846   0.89442   0.75001   0.00000  Uiso   1.00
O1260  O     0.27863   0.73629   0.63612   0.00000  Uiso   1.00
O1261  O     0.01245   0.84093   0.87825   0.00000  Uiso   1.00
O1262  O     0.03976   0.90830   0.87112   0.00000  Uiso   1.00
O1263  O     0.00105   0.91677   0.97815   0.00000  Uiso   1.00
O1264  O     0.29802   0.85265   0.50196   0.00000  Uiso   1.00
O1265  O     0.29588   0.71046   0.54863   0.00000  Uiso   1.00
O1266  O     0.30639   0.74529   0.98095   0.00000  Uiso   1.00
O1267  O     0.08205   0.81861   0.63630   0.00000  Uiso   1.00
O1268  O     0.07058   0.88823   0.63134   0.00000  Uiso   1.00
O1269  O     0.09940   0.73125   0.96207   0.00000  Uiso   1.00
O1270  O     0.20488   0.77225   0.75000   0.00000  Uiso   1.00
O1271  O     0.16859   0.69541   0.93828   0.00000  Uiso   1.00
O1272  O     0.20490   0.89441   0.75000   0.00000  Uiso   1.00
O1273  O     0.12843   0.77226   0.75000   0.00000  Uiso   1.00
O1274  O     0.10661   0.83334   0.81613   0.00000  Uiso   1.00
O1275  O     0.22672   0.83333   0.68388   0.00000  Uiso   1.00
O1276  O     0.18305   0.83333   0.81612   0.00000  Uiso   1.00
O1277  O     0.15028   0.83334   0.68388   0.00000  Uiso   1.00
O1278  O     0.31011   0.80260   0.61887   0.00000  Uiso   1.00
Zn1279 Zn    0.11562   0.83334   0.75000   0.00000  Uiso   1.00
Zn1280 Zn    0.21771   0.83333   0.75000   0.00000  Uiso   1.00
C1281  C     0.49999   0.91319   0.75105   0.00000  Uiso   1.00
C1282  C     0.49890   0.97827   0.79130   0.00000  Uiso   1.00
C1283  C     0.49855   0.70948   0.75046   0.00000  Uiso   1.00
C1284  C     0.50035   0.95746   0.75103   0.00000  Uiso   1.00
C1285  C     0.64795   0.80088   0.73220   0.00000  Uiso   1.00
C1286  C     0.35161   0.86552   0.76857   0.00000  Uiso   1.00
C1287  C     0.36164   0.80015   0.73327   0.00000  Uiso   1.00
C1288  C     0.63695   0.86515   0.76965   0.00000  Uiso   1.00
C1289  C     0.46966   0.83346   0.83852   0.00000  Uiso   1.00
C1290  C     0.53013   0.83236   0.66168   0.00000  Uiso   1.00
C1291  C     0.44888   0.83533   0.89049   0.00000  Uiso   1.00
C1292  C     0.49968   0.75356   0.74965   0.00000  Uiso   1.00
C1293  C     0.54737   0.82161   0.61173   0.00000  Uiso   1.00
C1294  C     0.38643   0.86041   0.96121   0.00000  Uiso   1.00
C1295  C     0.57574   0.76559   0.55615   0.00000  Uiso   1.00
C1296  C     0.40342   0.85355   0.91282   0.00000  Uiso   1.00
C1297  C     0.57837   0.78790   0.59484   0.00000  Uiso   1.00
C1298  C     0.47341   0.81871   0.91838   0.00000  Uiso   1.00
C1299  C     0.52112   0.83621   0.58537   0.00000  Uiso   1.00
C1300  C     0.45267   0.82028   0.96770   0.00000  Uiso   1.00
C1301  C     0.50943   0.80939   0.55500   0.00000  Uiso   1.00
C1302  C     0.41310   0.84657   0.98881   0.00000  Uiso   1.00
C1303  C     0.43252   0.84402   0.56024   0.00000  Uiso   1.00
C1304  C     0.53705   0.77317   0.54011   0.00000  Uiso   1.00
C1305  C     0.47398   0.79956   0.99629   0.00000  Uiso   1.00
C1306  C     0.47255   0.81877   0.53728   0.00000  Uiso   1.00
C1307  C     0.61350   0.77654   0.61697   0.00000  Uiso   1.00
C1308  C     0.37270   0.86672   0.88611   0.00000  Uiso   1.00
C1309  C     0.33854   0.87896   0.98156   0.00000  Uiso   1.00
C1310  C     0.61632   0.73883   0.52912   0.00000  Uiso   1.00
C1311  C     0.41655   0.84909   0.61150   0.00000  Uiso   1.00
C1312  C     0.47371   0.72815   0.96200   0.00000  Uiso   1.00
C1313  C     0.49276   0.75864   0.98806   0.00000  Uiso   1.00
C1314  C     0.40232   0.85741   0.53644   0.00000  Uiso   1.00
C1315  C     0.52374   0.74517   0.51112   0.00000  Uiso   1.00
C1316  C     0.49905   0.97888   0.71138   0.00000  Uiso   1.00
C1317  C     0.49809   0.68826   0.79086   0.00000  Uiso   1.00
C1318  C     0.49875   0.68867   0.71076   0.00000  Uiso   1.00
Cl1319 Cl    0.35375   0.88968   0.56730   0.00000  Uiso   1.00
Cl1320 Cl    0.60072   0.90523   0.79997   0.00000  Uiso   1.00
Cl1321 Cl    0.53785   0.69146   0.51142   0.00000  Uiso   1.00
Cl1322 Cl    0.51601   0.89075   0.58059   0.00000  Uiso   1.00
Cl1323 Cl    0.53333   0.80108   0.89222   0.00000  Uiso   1.00
Cl1324 Cl    0.49731   0.95198   0.66255   0.00000  Uiso   1.00
Cl1325 Cl    0.49484   0.71613   0.84103   0.00000  Uiso   1.00
Cl1326 Cl    0.49995   0.71621   0.65985   0.00000  Uiso   1.00
Cl1327 Cl    0.49499   0.95039   0.84287   0.00000  Uiso   1.00
Cl1328 Cl    0.39296   0.75465   0.71235   0.00000  Uiso   1.00
H1329  H     0.63418   0.77494   0.71797   0.00000  Uiso   1.00
H1330  H     0.36491   0.89111   0.78374   0.00000  Uiso   1.00
H1331  H     0.63805   0.73226   0.64973   0.00000  Uiso   1.00
H1332  H     0.39522   0.92717   0.88118   0.00000  Uiso   1.00
H1333  H     0.60045   0.86847   0.51031   0.00000  Uiso   1.00
H1334  H     0.62743   0.77020   0.96815   0.00000  Uiso   1.00
H1335  H     0.39442   0.88719   0.66655   0.00000  Uiso   1.00
H1336  H     0.48319   0.67460   0.92623   0.00000  Uiso   1.00
N1337  N     0.38093   0.83334   0.75001   0.00000  Uiso   1.00
N1338  N     0.61907   0.83332   0.74999   0.00000  Uiso   1.00
O1339  O     0.46179   0.89442   0.75001   0.00000  Uiso   1.00
O1340  O     0.61196   0.73629   0.63612   0.00000  Uiso   1.00
O1341  O     0.34579   0.84093   0.87825   0.00000  Uiso   1.00
O1342  O     0.37309   0.90830   0.87112   0.00000  Uiso   1.00
O1343  O     0.33438   0.91677   0.97815   0.00000  Uiso   1.00
O1344  O     0.63135   0.85265   0.50196   0.00000  Uiso   1.00
O1345  O     0.62921   0.71046   0.54863   0.00000  Uiso   1.00
O1346  O     0.63972   0.74529   0.98095   0.00000  Uiso   1.00
O1347  O     0.41538   0.81861   0.63630   0.00000  Uiso   1.00
O1348  O     0.40392   0.88823   0.63134   0.00000  Uiso   1.00
O1349  O     0.43273   0.73125   0.96207   0.00000  Uiso   1.00
O1350  O     0.53821   0.77225   0.75000   0.00000  Uiso   1.00
O1351  O     0.50192   0.69541   0.93828   0.00000  Uiso   1.00
O1352  O     0.53823   0.89441   0.75000   0.00000  Uiso   1.00
O1353  O     0.46177   0.77226   0.75000   0.00000  Uiso   1.00
O1354  O     0.43994   0.83334   0.81613   0.00000  Uiso   1.00
O1355  O     0.56006   0.83333   0.68388   0.00000  Uiso   1.00
O1356  O     0.51639   0.83333   0.81612   0.00000  Uiso   1.00
O1357  O     0.48361   0.83334   0.68388   0.00000  Uiso   1.00
O1358  O     0.64344   0.80260   0.61887   0.00000  Uiso   1.00
Zn1359 Zn    0.44896   0.83334   0.75000   0.00000  Uiso   1.00
Zn1360 Zn    0.55104   0.83333   0.75000   0.00000  Uiso   1.00
C1361  C     0.83333   0.91319   0.75105   0.00000  Uiso   1.00
C1362  C     0.83223   0.97827   0.79130   0.00000  Uiso   1.00
C1363  C     0.83189   0.70948   0.75046   0.00000  Uiso   1.00
C1364  C     0.83368   0.95746   0.75103   0.00000  Uiso   1.00
C1365  C     0.98128   0.80088   0.73220   0.00000  Uiso   1.00
C1366  C     0.68494   0.86552   0.76857   0.00000  Uiso   1.00
C1367  C     0.69498   0.80015   0.73327   0.00000  Uiso   1.00
C1368  C     0.97029   0.86515   0.76965   0.00000  Uiso   1.00
C1369  C     0.80300   0.83346   0.83852   0.00000  Uiso   1.00
C1370  C     0.86346   0.83236   0.66168   0.00000  Uiso   1.00
C1371  C     0.78221   0.83533   0.89049   0.00000  Uiso   1.00
C1372  C     0.83301   0.75356   0.74965   0.00000  Uiso   1.00
C1373  C     0.88071   0.82161   0.61173   0.00000  Uiso   1.00
C1374  C     0.71976   0.86041   0.96121   0.00000  Uiso   1.00
C1375  C     0.90907   0.76559   0.55615   0.00000  Uiso   1.00
C1376  C     0.73675   0.85355   0.91282   0.00000  Uiso   1.00
C1377  C     0.91170   0.78790   0.59484   0.00000  Uiso   1.00
C1378  C     0.80675   0.81871   0.91838   0.00000  Uiso   1.00
C1379  C     0.85445   0.83621   0.58537   0.00000  Uiso   1.00
C1380  C     0.78601   0.82028   0.96770   0.00000  Uiso   1.00
C1381  C     0.84276   0.80939   0.55500   0.00000  Uiso   1.00
C1382  C     0.74644   0.84657   0.98881   0.00000  Uiso   1.00
C1383  C     0.76585   0.84402   0.56024   0.00000  Uiso   1.00
C1384  C     0.87038   0.77317   0.54011   0.00000  Uiso   1.00
C1385  C     0.80731   0.79956   0.99629   0.00000  Uiso   1.00
C1386  C     0.80588   0.81877   0.53728   0.00000  Uiso   1.00
C1387  C     0.94683   0.77654   0.61697   0.00000  Uiso   1.00
C1388  C     0.70604   0.86672   0.88611   0.00000  Uiso   1.00
C1389  C     0.67187   0.87896   0.98156   0.00000  Uiso   1.00
C1390  C     0.94966   0.73883   0.52912   0.00000  Uiso   1.00
C1391  C     0.74988   0.84909   0.61150   0.00000  Uiso   1.00
C1392  C     0.80704   0.72815   0.96200   0.00000  Uiso   1.00
C1393  C     0.82609   0.75864   0.98806   0.00000  Uiso   1.00
C1394  C     0.73565   0.85741   0.53644   0.00000  Uiso   1.00
C1395  C     0.85708   0.74517   0.51112   0.00000  Uiso   1.00
C1396  C     0.83238   0.97888   0.71138   0.00000  Uiso   1.00
C1397  C     0.83142   0.68826   0.79086   0.00000  Uiso   1.00
C1398  C     0.83209   0.68867   0.71076   0.00000  Uiso   1.00
Cl1399 Cl    0.68708   0.88968   0.56730   0.00000  Uiso   1.00
Cl1400 Cl    0.93405   0.90523   0.79997   0.00000  Uiso   1.00
Cl1401 Cl    0.87119   0.69146   0.51142   0.00000  Uiso   1.00
Cl1402 Cl    0.84935   0.89075   0.58059   0.00000  Uiso   1.00
Cl1403 Cl    0.86666   0.80108   0.89222   0.00000  Uiso   1.00
Cl1404 Cl    0.83064   0.95198   0.66255   0.00000  Uiso   1.00
Cl1405 Cl    0.82817   0.71613   0.84103   0.00000  Uiso   1.00
Cl1406 Cl    0.83328   0.71621   0.65985   0.00000  Uiso   1.00
Cl1407 Cl    0.82833   0.95039   0.84287   0.00000  Uiso   1.00
Cl1408 Cl    0.72630   0.75465   0.71235   0.00000  Uiso   1.00
H1409  H     0.96752   0.77494   0.71797   0.00000  Uiso   1.00
H1410  H     0.69824   0.89111   0.78374   0.00000  Uiso   1.00
H1411  H     0.97138   0.73226   0.64973   0.00000  Uiso   1.00
H1412  H     0.72855   0.92717   0.88118   0.00000  Uiso   1.00
H1413  H     0.93379   0.86847   0.51031   0.00000  Uiso   1.00
H1414  H     0.96077   0.77020   0.96815   0.00000  Uiso   1.00
H1415  H     0.72776   0.88719   0.66655   0.00000  Uiso   1.00
H1416  H     0.81652   0.67460   0.92623   0.00000  Uiso   1.00
N1417  N     0.71426   0.83334   0.75001   0.00000  Uiso   1.00
N1418  N     0.95241   0.83332   0.74999   0.00000  Uiso   1.00
O1419  O     0.79512   0.89442   0.75001   0.00000  Uiso   1.00
O1420  O     0.94529   0.73629   0.63612   0.00000  Uiso   1.00
O1421  O     0.67912   0.84093   0.87825   0.00000  Uiso   1.00
O1422  O     0.70643   0.90830   0.87112   0.00000  Uiso   1.00
O1423  O     0.66771   0.91677   0.97815   0.00000  Uiso   1.00
O1424  O     0.96468   0.85265   0.50196   0.00000  Uiso   1.00
O1425  O     0.96255   0.71046   0.54863   0.00000  Uiso   1.00
O1426  O     0.97306   0.74529   0.98095   0.00000  Uiso   1.00
O1427  O     0.74872   0.81861   0.63630   0.00000  Uiso   1.00
O1428  O     0.73725   0.88823   0.63134   0.00000  Uiso   1.00
O1429  O     0.76606   0.73125   0.96207   0.00000  Uiso   1.00
O1430  O     0.87154   0.77225   0.75000   0.00000  Uiso   1.00
O1431  O     0.83526   0.69541   0.93828   0.00000  Uiso   1.00
O1432  O     0.87157   0.89441   0.75000   0.00000  Uiso   1.00
O1433  O     0.79510   0.77226   0.75000   0.00000  Uiso   1.00
O1434  O     0.77328   0.83334   0.81613   0.00000  Uiso   1.00
O1435  O     0.89339   0.83333   0.68388   0.00000  Uiso   1.00
O1436  O     0.84972   0.83333   0.81612   0.00000  Uiso   1.00
O1437  O     0.81695   0.83334   0.68388   0.00000  Uiso   1.00
O1438  O     0.97678   0.80260   0.61887   0.00000  Uiso   1.00
Zn1439 Zn    0.78229   0.83334   0.75000   0.00000  Uiso   1.00
Zn1440 Zn    0.88438   0.83333   0.75000   0.00000  Uiso   1.00
loop_
_geom_bond_atom_site_label_1
_geom_bond_atom_site_label_2
_geom_bond_distance
_geom_bond_site_symmetry_2
_ccdc_geom_bond_type
C1     O59     1.283   .     A
C1     O72     1.288   .     A
C1     C4      1.414   .     S
C2     C4      1.400   .     A
C2     Cl47    1.768   .     S
C2     C277    1.384   .     S
C3     C12     1.407   .     S
C3     C38     1.395   .     A
C3     C37     1.398   .     A
C4     C36     1.399   .     A
C5     N58     1.354   .     A
C5     H49     1.081   .     S
C5     C87     1.411   .     S
C6     N57     1.358   .     A
C6     H50     1.081   .     S
C6     C168    1.415   1_455 S
C7     Cl48    1.748   .     S
C7     N57     1.384   .     A
C7     C165    1.411   1_455 S
C8     N58     1.380   .     A
C8     Cl40    1.746   .     S
C8     C86     1.415   .     S
C9     O76     1.310   .     A
C9     C11     1.492   .     S
C9     O74     1.299   .     A
C10    O75     1.300   .     A
C10    O77     1.305   .     A
C10    C13     1.480   .     S
C11    C18     1.413   .     A
C11    C16     1.421   .     A
C12    O73     1.284   .     A
C12    O70     1.283   .     A
C13    C19     1.392   .     A
C13    C17     1.414   .     A
C14    C16     1.409   .     A
C14    C29     1.477   .     S
C14    C22     1.424   .     A
C15    C24     1.428   .     A
C15    C30     1.492   .     S
C15    C17     1.419   .     A
C16    C28     1.492   .     S
C17    C27     1.484   .     S
C18    Cl43    1.780   .     S
C18    C20     1.417   .     A
C19    C21     1.402   .     A
C19    Cl42    1.760   .     S
C20    C25     1.417   .     A
C20    C22     1.423   .     A
C21    C26     1.423   .     A
C21    C24     1.419   .     A
C22    C754    1.430   .     S
C23    C26     1.423   .     A
C23    C34     1.414   .     A
C23    C31     1.484   .     S
C24    C35     1.417   .     A
C25    C33     1.424   .     A
C25    C746    1.396   .     S
C26    C745    1.396   1_554 S
C27    O78     1.222   .     D
C27    O60     1.397   .     S
C28    O61     1.221   .     D
C28    O62     1.397   .     S
C29    O63     1.223   .     D
C29    O944    1.394   1_455 S
C30    O65     1.220   .     D
C30    O786    1.399   1_554 S
C31    O67     1.218   .     D
C31    O68     1.399   .     S
C32    O71     1.398   .     S
C32    O69     1.224   .     D
C32    C33     1.494   .     S
C33    C755    1.418   .     S
C34    Cl39    1.779   .     S
C34    C742    1.430   1_554 S
C35    Cl41    1.776   .     S
C35    C753    1.418   1_554 S
C36    Cl44    1.755   .     S
C36    C278    1.377   .     S
C37    Cl45    1.764   .     S
C37    C482    1.384   1_545 S
C38    Cl46    1.769   .     S
C38    C516    1.377   1_545 S
H51    O60     1.014   .     S
H52    O62     1.012   .     S
H53    O64     1.011   .     S
H54    O66     1.013   .     S
H55    O68     1.013   .     S
H56    O71     1.013   .     S
N57    Zn79    2.022   .     S
N58    Zn80    2.022   .     S
O59    Zn79    1.979   .     S
O64    C829    1.394   1_554 S
O66    C750    1.399   .     S
O70    Zn80    1.979   .     S
O72    Zn80    1.996   .     S
O73    Zn79    1.996   .     S
O74    Zn79    1.949   .     S
O75    Zn80    1.949   .     S
O76    Zn80    1.918   .     S
O77    Zn79    1.918   .     S
C81    O139    1.283   .     A
C81    O152    1.288   .     A
C81    C84     1.414   .     S
C82    C84     1.400   .     A
C82    Cl127   1.768   .     S
C82    C357    1.384   .     S
C83    C92     1.407   .     S
C83    C118    1.395   .     A
C83    C117    1.398   .     A
C84    C116    1.399   .     A
C85    N138    1.354   .     A
C85    H129    1.081   .     S
C85    C167    1.411   .     S
C86    N137    1.358   .     A
C86    H130    1.081   .     S
C87    Cl128   1.748   .     S
C87    N137    1.384   .     A
C88    N138    1.380   .     A
C88    Cl120   1.746   .     S
C88    C166    1.415   .     S
C89    O156    1.310   .     A
C89    C91     1.492   .     S
C89    O154    1.299   .     A
C90    O155    1.300   .     A
C90    O157    1.305   .     A
C90    C93     1.480   .     S
C91    C98     1.413   .     A
C91    C96     1.421   .     A
C92    O153    1.284   .     A
C92    O150    1.283   .     A
C93    C99     1.392   .     A
C93    C97     1.414   .     A
C94    C96     1.409   .     A
C94    C109    1.477   .     S
C94    C102    1.424   .     A
C95    C104    1.428   .     A
C95    C110    1.492   .     S
C95    C97     1.419   .     A
C96    C108    1.492   .     S
C97    C107    1.484   .     S
C98    Cl123   1.780   .     S
C98    C100    1.417   .     A
C99    C101    1.402   .     A
C99    Cl122   1.760   .     S
C100   C105    1.417   .     A
C100   C102    1.423   .     A
C101   C106    1.423   .     A
C101   C104    1.419   .     A
C102   C834    1.430   .     S
C103   C106    1.423   .     A
C103   C114    1.414   .     A
C103   C111    1.484   .     S
C104   C115    1.417   .     A
C105   C113    1.424   .     A
C105   C826    1.396   .     S
C106   C825    1.396   1_554 S
C107   O158    1.222   .     D
C107   O140    1.397   .     S
C108   O141    1.221   .     D
C108   O142    1.397   .     S
C109   O143    1.223   .     D
C109   O784    1.394   .     S
C110   O145    1.220   .     D
C110   O866    1.399   1_554 S
C111   O147    1.218   .     D
C111   O148    1.399   .     S
C112   O151    1.398   .     S
C112   O149    1.224   .     D
C112   C113    1.494   .     S
C113   C835    1.418   .     S
C114   Cl119   1.779   .     S
C114   C822    1.430   1_554 S
C115   Cl121   1.776   .     S
C115   C833    1.418   1_554 S
C116   Cl124   1.755   .     S
C116   C358    1.377   .     S
C117   Cl125   1.764   .     S
C117   C562    1.384   1_545 S
C118   Cl126   1.769   .     S
C118   C596    1.377   1_545 S
H131   O140    1.014   .     S
H132   O142    1.012   .     S
H133   O144    1.011   .     S
H134   O146    1.013   .     S
H135   O148    1.013   .     S
H136   O151    1.013   .     S
N137   Zn159   2.022   .     S
N138   Zn160   2.022   .     S
O139   Zn159   1.979   .     S
O144   C909    1.394   1_554 S
O146   C830    1.399   .     S
O150   Zn160   1.979   .     S
O152   Zn160   1.996   .     S
O153   Zn159   1.996   .     S
O154   Zn159   1.949   .     S
O155   Zn160   1.949   .     S
O156   Zn160   1.918   .     S
O157   Zn159   1.918   .     S
C161   O219    1.283   .     A
C161   O232    1.288   .     A
C161   C164    1.414   .     S
C162   C164    1.400   .     A
C162   Cl207   1.768   .     S
C162   C437    1.384   .     S
C163   C172    1.407   .     S
C163   C198    1.395   .     A
C163   C197    1.398   .     A
C164   C196    1.399   .     A
C165   N218    1.354   .     A
C165   H209    1.081   .     S
C165   C7      1.411   1_655 S
C166   N217    1.358   .     A
C166   H210    1.081   .     S
C167   Cl208   1.748   .     S
C167   N217    1.384   .     A
C168   N218    1.380   .     A
C168   Cl200   1.746   .     S
C168   C6      1.415   1_655 S
C169   O236    1.310   .     A
C169   C171    1.492   .     S
C169   O234    1.299   .     A
C170   O235    1.300   .     A
C170   O237    1.305   .     A
C170   C173    1.480   .     S
C171   C178    1.413   .     A
C171   C176    1.421   .     A
C172   O233    1.284   .     A
C172   O230    1.283   .     A
C173   C179    1.392   .     A
C173   C177    1.414   .     A
C174   C176    1.409   .     A
C174   C189    1.477   .     S
C174   C182    1.424   .     A
C175   C184    1.428   .     A
C175   C190    1.492   .     S
C175   C177    1.419   .     A
C176   C188    1.492   .     S
C177   C187    1.484   .     S
C178   Cl203   1.780   .     S
C178   C180    1.417   .     A
C179   C181    1.402   .     A
C179   Cl202   1.760   .     S
C180   C185    1.417   .     A
C180   C182    1.423   .     A
C181   C186    1.423   .     A
C181   C184    1.419   .     A
C182   C914    1.430   .     S
C183   C186    1.423   .     A
C183   C194    1.414   .     A
C183   C191    1.484   .     S
C184   C195    1.417   .     A
C185   C193    1.424   .     A
C185   C906    1.396   .     S
C186   C905    1.396   1_554 S
C187   O238    1.222   .     D
C187   O220    1.397   .     S
C188   O221    1.221   .     D
C188   O222    1.397   .     S
C189   O223    1.223   .     D
C189   O864    1.394   .     S
C190   O225    1.220   .     D
C190   O946    1.399   1_554 S
C191   O227    1.218   .     D
C191   O228    1.399   .     S
C192   O231    1.398   .     S
C192   O229    1.224   .     D
C192   C193    1.494   .     S
C193   C915    1.418   .     S
C194   Cl199   1.779   .     S
C194   C902    1.430   1_554 S
C195   Cl201   1.776   .     S
C195   C913    1.418   1_554 S
C196   Cl204   1.755   .     S
C196   C438    1.377   .     S
C197   Cl205   1.764   .     S
C197   C642    1.384   1_545 S
C198   Cl206   1.769   .     S
C198   C676    1.377   1_545 S
H211   O220    1.014   .     S
H212   O222    1.012   .     S
H213   O224    1.011   .     S
H214   O226    1.013   .     S
H215   O228    1.013   .     S
H216   O231    1.013   .     S
N217   Zn239   2.022   .     S
N218   Zn240   2.022   .     S
O219   Zn239   1.979   .     S
O224   C749    1.394   1_654 S
O226   C910    1.399   .     S
O230   Zn240   1.979   .     S
O232   Zn240   1.996   .     S
O233   Zn239   1.996   .     S
O234   Zn239   1.949   .     S
O235   Zn240   1.949   .     S
O236   Zn240   1.918   .     S
O237   Zn239   1.918   .     S
C241   O299    1.283   .     A
C241   O312    1.288   .     A
C241   C244    1.414   .     S
C242   C244    1.400   .     A
C242   Cl287   1.768   .     S
C242   C517    1.384   .     S
C243   C252    1.407   .     S
C243   C278    1.395   .     A
C243   C277    1.398   .     A
C244   C276    1.399   .     A
C245   N298    1.354   .     A
C245   H289    1.081   .     S
C245   C327    1.411   .     S
C246   N297    1.358   .     A
C246   H290    1.081   .     S
C246   C408    1.415   1_455 S
C247   Cl288   1.748   .     S
C247   N297    1.384   .     A
C247   C405    1.411   1_455 S
C248   N298    1.380   .     A
C248   Cl280   1.746   .     S
C248   C326    1.415   .     S
C249   O316    1.310   .     A
C249   C251    1.492   .     S
C249   O314    1.299   .     A
C250   O315    1.300   .     A
C250   O317    1.305   .     A
C250   C253    1.480   .     S
C251   C258    1.413   .     A
C251   C256    1.421   .     A
C252   O313    1.284   .     A
C252   O310    1.283   .     A
C253   C259    1.392   .     A
C253   C257    1.414   .     A
C254   C256    1.409   .     A
C254   C269    1.477   .     S
C254   C262    1.424   .     A
C255   C264    1.428   .     A
C255   C270    1.492   .     S
C255   C257    1.419   .     A
C256   C268    1.492   .     S
C257   C267    1.484   .     S
C258   Cl283   1.780   .     S
C258   C260    1.417   .     A
C259   C261    1.402   .     A
C259   Cl282   1.760   .     S
C260   C265    1.417   .     A
C260   C262    1.423   .     A
C261   C266    1.423   .     A
C261   C264    1.419   .     A
C262   C994    1.430   .     S
C263   C266    1.423   .     A
C263   C274    1.414   .     A
C263   C271    1.484   .     S
C264   C275    1.417   .     A
C265   C273    1.424   .     A
C265   C986    1.396   .     S
C266   C985    1.396   1_554 S
C267   O318    1.222   .     D
C267   O300    1.397   .     S
C268   O301    1.221   .     D
C268   O302    1.397   .     S
C269   O303    1.223   .     D
C269   O1184   1.394   1_455 S
C270   O305    1.220   .     D
C270   O1026   1.399   1_554 S
C271   O307    1.218   .     D
C271   O308    1.399   .     S
C272   O311    1.398   .     S
C272   O309    1.224   .     D
C272   C273    1.494   .     S
C273   C995    1.418   .     S
C274   Cl279   1.779   .     S
C274   C982    1.430   1_554 S
C275   Cl281   1.776   .     S
C275   C993    1.418   1_554 S
C276   Cl284   1.755   .     S
C276   C518    1.377   .     S
C277   Cl285   1.764   .     S
C278   Cl286   1.769   .     S
H291   O300    1.014   .     S
H292   O302    1.012   .     S
H293   O304    1.011   .     S
H294   O306    1.013   .     S
H295   O308    1.013   .     S
H296   O311    1.013   .     S
N297   Zn319   2.022   .     S
N298   Zn320   2.022   .     S
O299   Zn319   1.979   .     S
O304   C1069   1.394   1_554 S
O306   C990    1.399   .     S
O310   Zn320   1.979   .     S
O312   Zn320   1.996   .     S
O313   Zn319   1.996   .     S
O314   Zn319   1.949   .     S
O315   Zn320   1.949   .     S
O316   Zn320   1.918   .     S
O317   Zn319   1.918   .     S
C321   O379    1.283   .     A
C321   O392    1.288   .     A
C321   C324    1.414   .     S
C322   C324    1.400   .     A
C322   Cl367   1.768   .     S
C322   C597    1.384   .     S
C323   C332    1.407   .     S
C323   C358    1.395   .     A
C323   C357    1.398   .     A
C324   C356    1.399   .     A
C325   N378    1.354   .     A
C325   H369    1.081   .     S
C325   C407    1.411   .     S
C326   N377    1.358   .     A
C326   H370    1.081   .     S
C327   Cl368   1.748   .     S
C327   N377    1.384   .     A
C328   N378    1.380   .     A
C328   Cl360   1.746   .     S
C328   C406    1.415   .     S
C329   O396    1.310   .     A
C329   C331    1.492   .     S
C329   O394    1.299   .     A
C330   O395    1.300   .     A
C330   O397    1.305   .     A
C330   C333    1.480   .     S
C331   C338    1.413   .     A
C331   C336    1.421   .     A
C332   O393    1.284   .     A
C332   O390    1.283   .     A
C333   C339    1.392   .     A
C333   C337    1.414   .     A
C334   C336    1.409   .     A
C334   C349    1.477   .     S
C334   C342    1.424   .     A
C335   C344    1.428   .     A
C335   C350    1.492   .     S
C335   C337    1.419   .     A
C336   C348    1.492   .     S
C337   C347    1.484   .     S
C338   Cl363   1.780   .     S
C338   C340    1.417   .     A
C339   C341    1.402   .     A
C339   Cl362   1.760   .     S
C340   C345    1.417   .     A
C340   C342    1.423   .     A
C341   C346    1.423   .     A
C341   C344    1.419   .     A
C342   C1074   1.430   .     S
C343   C346    1.423   .     A
C343   C354    1.414   .     A
C343   C351    1.484   .     S
C344   C355    1.417   .     A
C345   C353    1.424   .     A
C345   C1066   1.396   .     S
C346   C1065   1.396   1_554 S
C347   O398    1.222   .     D
C347   O380    1.397   .     S
C348   O381    1.221   .     D
C348   O382    1.397   .     S
C349   O383    1.223   .     D
C349   O1024   1.394   .     S
C350   O385    1.220   .     D
C350   O1106   1.399   1_554 S
C351   O387    1.218   .     D
C351   O388    1.399   .     S
C352   O391    1.398   .     S
C352   O389    1.224   .     D
C352   C353    1.494   .     S
C353   C1075   1.418   .     S
C354   Cl359   1.779   .     S
C354   C1062   1.430   1_554 S
C355   Cl361   1.776   .     S
C355   C1073   1.418   1_554 S
C356   Cl364   1.755   .     S
C356   C598    1.377   .     S
C357   Cl365   1.764   .     S
C358   Cl366   1.769   .     S
H371   O380    1.014   .     S
H372   O382    1.012   .     S
H373   O384    1.011   .     S
H374   O386    1.013   .     S
H375   O388    1.013   .     S
H376   O391    1.013   .     S
N377   Zn399   2.022   .     S
N378   Zn400   2.022   .     S
O379   Zn399   1.979   .     S
O384   C1149   1.394   1_554 S
O386   C1070   1.399   .     S
O390   Zn400   1.979   .     S
O392   Zn400   1.996   .     S
O393   Zn399   1.996   .     S
O394   Zn399   1.949   .     S
O395   Zn400   1.949   .     S
O396   Zn400   1.918   .     S
O397   Zn399   1.918   .     S
C401   O459    1.283   .     A
C401   O472    1.288   .     A
C401   C404    1.414   .     S
C402   C404    1.400   .     A
C402   Cl447   1.768   .     S
C402   C677    1.384   .     S
C403   C412    1.407   .     S
C403   C438    1.395   .     A
C403   C437    1.398   .     A
C404   C436    1.399   .     A
C405   N458    1.354   .     A
C405   H449    1.081   .     S
C405   C247    1.411   1_655 S
C406   N457    1.358   .     A
C406   H450    1.081   .     S
C407   Cl448   1.748   .     S
C407   N457    1.384   .     A
C408   N458    1.380   .     A
C408   Cl440   1.746   .     S
C408   C246    1.415   1_655 S
C409   O476    1.310   .     A
C409   C411    1.492   .     S
C409   O474    1.299   .     A
C410   O475    1.300   .     A
C410   O477    1.305   .     A
C410   C413    1.480   .     S
C411   C418    1.413   .     A
C411   C416    1.421   .     A
C412   O473    1.284   .     A
C412   O470    1.283   .     A
C413   C419    1.392   .     A
C413   C417    1.414   .     A
C414   C416    1.409   .     A
C414   C429    1.477   .     S
C414   C422    1.424   .     A
C415   C424    1.428   .     A
C415   C430    1.492   .     S
C415   C417    1.419   .     A
C416   C428    1.492   .     S
C417   C427    1.484   .     S
C418   Cl443   1.780   .     S
C418   C420    1.417   .     A
C419   C421    1.402   .     A
C419   Cl442   1.760   .     S
C420   C425    1.417   .     A
C420   C422    1.423   .     A
C421   C426    1.423   .     A
C421   C424    1.419   .     A
C422   C1154   1.430   .     S
C423   C426    1.423   .     A
C423   C434    1.414   .     A
C423   C431    1.484   .     S
C424   C435    1.417   .     A
C425   C433    1.424   .     A
C425   C1146   1.396   .     S
C426   C1145   1.396   1_554 S
C427   O478    1.222   .     D
C427   O460    1.397   .     S
C428   O461    1.221   .     D
C428   O462    1.397   .     S
C429   O463    1.223   .     D
C429   O1104   1.394   .     S
C430   O465    1.220   .     D
C430   O1186   1.399   1_554 S
C431   O467    1.218   .     D
C431   O468    1.399   .     S
C432   O471    1.398   .     S
C432   O469    1.224   .     D
C432   C433    1.494   .     S
C433   C1155   1.418   .     S
C434   Cl439   1.779   .     S
C434   C1142   1.430   1_554 S
C435   Cl441   1.776   .     S
C435   C1153   1.418   1_554 S
C436   Cl444   1.755   .     S
C436   C678    1.377   .     S
C437   Cl445   1.764   .     S
C438   Cl446   1.769   .     S
H451   O460    1.014   .     S
H452   O462    1.012   .     S
H453   O464    1.011   .     S
H454   O466    1.013   .     S
H455   O468    1.013   .     S
H456   O471    1.013   .     S
N457   Zn479   2.022   .     S
N458   Zn480   2.022   .     S
O459   Zn479   1.979   .     S
O464   C989    1.394   1_654 S
O466   C1150   1.399   .     S
O470   Zn480   1.979   .     S
O472   Zn480   1.996   .     S
O473   Zn479   1.996   .     S
O474   Zn479   1.949   .     S
O475   Zn480   1.949   .     S
O476   Zn480   1.918   .     S
O477   Zn479   1.918   .     S
C481   O539    1.283   .     A
C481   O552    1.288   .     A
C481   C484    1.414   .     S
C482   C484    1.400   .     A
C482   Cl527   1.768   .     S
C482   C37     1.384   1_565 S
C483   C492    1.407   .     S
C483   C518    1.395   .     A
C483   C517    1.398   .     A
C484   C516    1.399   .     A
C485   N538    1.354   .     A
C485   H529    1.081   .     S
C485   C567    1.411   .     S
C486   N537    1.358   .     A
C486   H530    1.081   .     S
C486   C648    1.415   1_455 S
C487   Cl528   1.748   .     S
C487   N537    1.384   .     A
C487   C645    1.411   1_455 S
C488   N538    1.380   .     A
C488   Cl520   1.746   .     S
C488   C566    1.415   .     S
C489   O556    1.310   .     A
C489   C491    1.492   .     S
C489   O554    1.299   .     A
C490   O555    1.300   .     A
C490   O557    1.305   .     A
C490   C493    1.480   .     S
C491   C498    1.413   .     A
C491   C496    1.421   .     A
C492   O553    1.284   .     A
C492   O550    1.283   .     A
C493   C499    1.392   .     A
C493   C497    1.414   .     A
C494   C496    1.409   .     A
C494   C509    1.477   .     S
C494   C502    1.424   .     A
C495   C504    1.428   .     A
C495   C510    1.492   .     S
C495   C497    1.419   .     A
C496   C508    1.492   .     S
C497   C507    1.484   .     S
C498   Cl523   1.780   .     S
C498   C500    1.417   .     A
C499   C501    1.402   .     A
C499   Cl522   1.760   .     S
C500   C505    1.417   .     A
C500   C502    1.423   .     A
C501   C506    1.423   .     A
C501   C504    1.419   .     A
C502   C1234   1.430   .     S
C503   C506    1.423   .     A
C503   C514    1.414   .     A
C503   C511    1.484   .     S
C504   C515    1.417   .     A
C505   C513    1.424   .     A
C505   C1226   1.396   .     S
C506   C1225   1.396   1_554 S
C507   O558    1.222   .     D
C507   O540    1.397   .     S
C508   O541    1.221   .     D
C508   O542    1.397   .     S
C509   O543    1.223   .     D
C509   O1424   1.394   1_455 S
C510   O545    1.220   .     D
C510   O1266   1.399   1_554 S
C511   O547    1.218   .     D
C511   O548    1.399   .     S
C512   O551    1.398   .     S
C512   O549    1.224   .     D
C512   C513    1.494   .     S
C513   C1235   1.418   .     S
C514   Cl519   1.779   .     S
C514   C1222   1.430   1_554 S
C515   Cl521   1.776   .     S
C515   C1233   1.418   1_554 S
C516   Cl524   1.755   .     S
C516   C38     1.377   1_565 S
C517   Cl525   1.764   .     S
C518   Cl526   1.769   .     S
H531   O540    1.014   .     S
H532   O542    1.012   .     S
H533   O544    1.011   .     S
H534   O546    1.013   .     S
H535   O548    1.013   .     S
H536   O551    1.013   .     S
N537   Zn559   2.022   .     S
N538   Zn560   2.022   .     S
O539   Zn559   1.979   .     S
O544   C1309   1.394   1_554 S
O546   C1230   1.399   .     S
O550   Zn560   1.979   .     S
O552   Zn560   1.996   .     S
O553   Zn559   1.996   .     S
O554   Zn559   1.949   .     S
O555   Zn560   1.949   .     S
O556   Zn560   1.918   .     S
O557   Zn559   1.918   .     S
C561   O619    1.283   .     A
C561   O632    1.288   .     A
C561   C564    1.414   .     S
C562   C564    1.400   .     A
C562   Cl607   1.768   .     S
C562   C117    1.384   1_565 S
C563   C572    1.407   .     S
C563   C598    1.395   .     A
C563   C597    1.398   .     A
C564   C596    1.399   .     A
C565   N618    1.354   .     A
C565   H609    1.081   .     S
C565   C647    1.411   .     S
C566   N617    1.358   .     A
C566   H610    1.081   .     S
C567   Cl608   1.748   .     S
C567   N617    1.384   .     A
C568   N618    1.380   .     A
C568   Cl600   1.746   .     S
C568   C646    1.415   .     S
C569   O636    1.310   .     A
C569   C571    1.492   .     S
C569   O634    1.299   .     A
C570   O635    1.300   .     A
C570   O637    1.305   .     A
C570   C573    1.480   .     S
C571   C578    1.413   .     A
C571   C576    1.421   .     A
C572   O633    1.284   .     A
C572   O630    1.283   .     A
C573   C579    1.392   .     A
C573   C577    1.414   .     A
C574   C576    1.409   .     A
C574   C589    1.477   .     S
C574   C582    1.424   .     A
C575   C584    1.428   .     A
C575   C590    1.492   .     S
C575   C577    1.419   .     A
C576   C588    1.492   .     S
C577   C587    1.484   .     S
C578   Cl603   1.780   .     S
C578   C580    1.417   .     A
C579   C581    1.402   .     A
C579   Cl602   1.760   .     S
C580   C585    1.417   .     A
C580   C582    1.423   .     A
C581   C586    1.423   .     A
C581   C584    1.419   .     A
C582   C1314   1.430   .     S
C583   C586    1.423   .     A
C583   C594    1.414   .     A
C583   C591    1.484   .     S
C584   C595    1.417   .     A
C585   C593    1.424   .     A
C585   C1306   1.396   .     S
C586   C1305   1.396   1_554 S
C587   O638    1.222   .     D
C587   O620    1.397   .     S
C588   O621    1.221   .     D
C588   O622    1.397   .     S
C589   O623    1.223   .     D
C589   O1264   1.394   .     S
C590   O625    1.220   .     D
C590   O1346   1.399   1_554 S
C591   O627    1.218   .     D
C591   O628    1.399   .     S
C592   O631    1.398   .     S
C592   O629    1.224   .     D
C592   C593    1.494   .     S
C593   C1315   1.418   .     S
C594   Cl599   1.779   .     S
C594   C1302   1.430   1_554 S
C595   Cl601   1.776   .     S
C595   C1313   1.418   1_554 S
C596   Cl604   1.755   .     S
C596   C118    1.377   1_565 S
C597   Cl605   1.764   .     S
C598   Cl606   1.769   .     S
H611   O620    1.014   .     S
H612   O622    1.012   .     S
H613   O624    1.011   .     S
H614   O626    1.013   .     S
H615   O628    1.013   .     S
H616   O631    1.013   .     S
N617   Zn639   2.022   .     S
N618   Zn640   2.022   .     S
O619   Zn639   1.979   .     S
O624   C1389   1.394   1_554 S
O626   C1310   1.399   .     S
O630   Zn640   1.979   .     S
O632   Zn640   1.996   .     S
O633   Zn639   1.996   .     S
O634   Zn639   1.949   .     S
O635   Zn640   1.949   .     S
O636   Zn640   1.918   .     S
O637   Zn639   1.918   .     S
C641   O699    1.283   .     A
C641   O712    1.288   .     A
C641   C644    1.414   .     S
C642   C644    1.400   .     A
C642   Cl687   1.768   .     S
C642   C197    1.384   1_565 S
C643   C652    1.407   .     S
C643   C678    1.395   .     A
C643   C677    1.398   .     A
C644   C676    1.399   .     A
C645   N698    1.354   .     A
C645   H689    1.081   .     S
C645   C487    1.411   1_655 S
C646   N697    1.358   .     A
C646   H690    1.081   .     S
C647   Cl688   1.748   .     S
C647   N697    1.384   .     A
C648   N698    1.380   .     A
C648   Cl680   1.746   .     S
C648   C486    1.415   1_655 S
C649   O716    1.310   .     A
C649   C651    1.492   .     S
C649   O714    1.299   .     A
C650   O715    1.300   .     A
C650   O717    1.305   .     A
C650   C653    1.480   .     S
C651   C658    1.413   .     A
C651   C656    1.421   .     A
C652   O713    1.284   .     A
C652   O710    1.283   .     A
C653   C659    1.392   .     A
C653   C657    1.414   .     A
C654   C656    1.409   .     A
C654   C669    1.477   .     S
C654   C662    1.424   .     A
C655   C664    1.428   .     A
C655   C670    1.492   .     S
C655   C657    1.419   .     A
C656   C668    1.492   .     S
C657   C667    1.484   .     S
C658   Cl683   1.780   .     S
C658   C660    1.417   .     A
C659   C661    1.402   .     A
C659   Cl682   1.760   .     S
C660   C665    1.417   .     A
C660   C662    1.423   .     A
C661   C666    1.423   .     A
C661   C664    1.419   .     A
C662   C1394   1.430   .     S
C663   C666    1.423   .     A
C663   C674    1.414   .     A
C663   C671    1.484   .     S
C664   C675    1.417   .     A
C665   C673    1.424   .     A
C665   C1386   1.396   .     S
C666   C1385   1.396   1_554 S
C667   O718    1.222   .     D
C667   O700    1.397   .     S
C668   O701    1.221   .     D
C668   O702    1.397   .     S
C669   O703    1.223   .     D
C669   O1344   1.394   .     S
C670   O705    1.220   .     D
C670   O1426   1.399   1_554 S
C671   O707    1.218   .     D
C671   O708    1.399   .     S
C672   O711    1.398   .     S
C672   O709    1.224   .     D
C672   C673    1.494   .     S
C673   C1395   1.418   .     S
C674   Cl679   1.779   .     S
C674   C1382   1.430   1_554 S
C675   Cl681   1.776   .     S
C675   C1393   1.418   1_554 S
C676   Cl684   1.755   .     S
C676   C198    1.377   1_565 S
C677   Cl685   1.764   .     S
C678   Cl686   1.769   .     S
H691   O700    1.014   .     S
H692   O702    1.012   .     S
H693   O704    1.011   .     S
H694   O706    1.013   .     S
H695   O708    1.013   .     S
H696   O711    1.013   .     S
N697   Zn719   2.022   .     S
N698   Zn720   2.022   .     S
O699   Zn719   1.979   .     S
O704   C1229   1.394   1_654 S
O706   C1390   1.399   .     S
O710   Zn720   1.979   .     S
O712   Zn720   1.996   .     S
O713   Zn719   1.996   .     S
O714   Zn719   1.949   .     S
O715   Zn720   1.949   .     S
O716   Zn720   1.918   .     S
O717   Zn719   1.918   .     S
C721   O779    1.283   .     A
C721   O792    1.288   .     A
C721   C724    1.414   .     S
C722   C724    1.400   .     A
C722   Cl767   1.768   .     S
C722   C997    1.384   .     S
C723   C732    1.407   .     S
C723   C758    1.395   .     A
C723   C757    1.398   .     A
C724   C756    1.399   .     A
C725   N778    1.354   .     A
C725   H769    1.081   .     S
C725   C807    1.411   .     S
C726   N777    1.358   .     A
C726   H770    1.081   .     S
C726   C888    1.415   1_455 S
C727   Cl768   1.748   .     S
C727   N777    1.384   .     A
C727   C885    1.411   1_455 S
C728   N778    1.380   .     A
C728   Cl760   1.746   .     S
C728   C806    1.415   .     S
C729   O796    1.310   .     A
C729   C731    1.492   .     S
C729   O794    1.299   .     A
C730   O795    1.300   .     A
C730   O797    1.305   .     A
C730   C733    1.480   .     S
C731   C738    1.413   .     A
C731   C736    1.421   .     A
C732   O793    1.284   .     A
C732   O790    1.283   .     A
C733   C739    1.392   .     A
C733   C737    1.414   .     A
C734   C736    1.409   .     A
C734   C749    1.477   .     S
C734   C742    1.424   .     A
C735   C744    1.428   .     A
C735   C750    1.492   .     S
C735   C737    1.419   .     A
C736   C748    1.492   .     S
C737   C747    1.484   .     S
C738   Cl763   1.780   .     S
C738   C740    1.417   .     A
C739   C741    1.402   .     A
C739   Cl762   1.760   .     S
C740   C745    1.417   .     A
C740   C742    1.423   .     A
C741   C746    1.423   .     A
C741   C744    1.419   .     A
C742   C34     1.430   1_556 S
C743   C746    1.423   .     A
C743   C754    1.414   .     A
C743   C751    1.484   .     S
C744   C755    1.417   .     A
C745   C753    1.424   .     A
C745   C26     1.396   1_556 S
C747   O798    1.222   .     D
C747   O780    1.397   .     S
C748   O781    1.221   .     D
C748   O782    1.397   .     S
C749   O783    1.223   .     D
C749   O224    1.394   1_456 S
C750   O785    1.220   .     D
C751   O787    1.218   .     D
C751   O788    1.399   .     S
C752   O791    1.398   .     S
C752   O789    1.224   .     D
C752   C753    1.494   .     S
C753   C35     1.418   1_556 S
C754   Cl759   1.779   .     S
C755   Cl761   1.776   .     S
C756   Cl764   1.755   .     S
C756   C998    1.377   .     S
C757   Cl765   1.764   .     S
C757   C1202   1.384   1_545 S
C758   Cl766   1.769   .     S
C758   C1236   1.377   1_545 S
H771   O780    1.014   .     S
H772   O782    1.012   .     S
H773   O784    1.011   .     S
H774   O786    1.013   .     S
H775   O788    1.013   .     S
H776   O791    1.013   .     S
N777   Zn799   2.022   .     S
N778   Zn800   2.022   .     S
O779   Zn799   1.979   .     S
O786   C30     1.399   1_556 S
O790   Zn800   1.979   .     S
O792   Zn800   1.996   .     S
O793   Zn799   1.996   .     S
O794   Zn799   1.949   .     S
O795   Zn800   1.949   .     S
O796   Zn800   1.918   .     S
O797   Zn799   1.918   .     S
C801   O859    1.283   .     A
C801   O872    1.288   .     A
C801   C804    1.414   .     S
C802   C804    1.400   .     A
C802   Cl847   1.768   .     S
C802   C1077   1.384   .     S
C803   C812    1.407   .     S
C803   C838    1.395   .     A
C803   C837    1.398   .     A
C804   C836    1.399   .     A
C805   N858    1.354   .     A
C805   H849    1.081   .     S
C805   C887    1.411   .     S
C806   N857    1.358   .     A
C806   H850    1.081   .     S
C807   Cl848   1.748   .     S
C807   N857    1.384   .     A
C808   N858    1.380   .     A
C808   Cl840   1.746   .     S
C808   C886    1.415   .     S
C809   O876    1.310   .     A
C809   C811    1.492   .     S
C809   O874    1.299   .     A
C810   O875    1.300   .     A
C810   O877    1.305   .     A
C810   C813    1.480   .     S
C811   C818    1.413   .     A
C811   C816    1.421   .     A
C812   O873    1.284   .     A
C812   O870    1.283   .     A
C813   C819    1.392   .     A
C813   C817    1.414   .     A
C814   C816    1.409   .     A
C814   C829    1.477   .     S
C814   C822    1.424   .     A
C815   C824    1.428   .     A
C815   C830    1.492   .     S
C815   C817    1.419   .     A
C816   C828    1.492   .     S
C817   C827    1.484   .     S
C818   Cl843   1.780   .     S
C818   C820    1.417   .     A
C819   C821    1.402   .     A
C819   Cl842   1.760   .     S
C820   C825    1.417   .     A
C820   C822    1.423   .     A
C821   C826    1.423   .     A
C821   C824    1.419   .     A
C822   C114    1.430   1_556 S
C823   C826    1.423   .     A
C823   C834    1.414   .     A
C823   C831    1.484   .     S
C824   C835    1.417   .     A
C825   C833    1.424   .     A
C825   C106    1.396   1_556 S
C827   O878    1.222   .     D
C827   O860    1.397   .     S
C828   O861    1.221   .     D
C828   O862    1.397   .     S
C829   O863    1.223   .     D
C829   O64     1.394   1_556 S
C830   O865    1.220   .     D
C831   O867    1.218   .     D
C831   O868    1.399   .     S
C832   O871    1.398   .     S
C832   O869    1.224   .     D
C832   C833    1.494   .     S
C833   C115    1.418   1_556 S
C834   Cl839   1.779   .     S
C835   Cl841   1.776   .     S
C836   Cl844   1.755   .     S
C836   C1078   1.377   .     S
C837   Cl845   1.764   .     S
C837   C1282   1.384   1_545 S
C838   Cl846   1.769   .     S
C838   C1316   1.377   1_545 S
H851   O860    1.014   .     S
H852   O862    1.012   .     S
H853   O864    1.011   .     S
H854   O866    1.013   .     S
H855   O868    1.013   .     S
H856   O871    1.013   .     S
N857   Zn879   2.022   .     S
N858   Zn880   2.022   .     S
O859   Zn879   1.979   .     S
O866   C110    1.399   1_556 S
O870   Zn880   1.979   .     S
O872   Zn880   1.996   .     S
O873   Zn879   1.996   .     S
O874   Zn879   1.949   .     S
O875   Zn880   1.949   .     S
O876   Zn880   1.918   .     S
O877   Zn879   1.918   .     S
C881   O939    1.283   .     A
C881   O952    1.288   .     A
C881   C884    1.414   .     S
C882   C884    1.400   .     A
C882   Cl927   1.768   .     S
C882   C1157   1.384   .     S
C883   C892    1.407   .     S
C883   C918    1.395   .     A
C883   C917    1.398   .     A
C884   C916    1.399   .     A
C885   N938    1.354   .     A
C885   H929    1.081   .     S
C885   C727    1.411   1_655 S
C886   N937    1.358   .     A
C886   H930    1.081   .     S
C887   Cl928   1.748   .     S
C887   N937    1.384   .     A
C888   N938    1.380   .     A
C888   Cl920   1.746   .     S
C888   C726    1.415   1_655 S
C889   O956    1.310   .     A
C889   C891    1.492   .     S
C889   O954    1.299   .     A
C890   O955    1.300   .     A
C890   O957    1.305   .     A
C890   C893    1.480   .     S
C891   C898    1.413   .     A
C891   C896    1.421   .     A
C892   O953    1.284   .     A
C892   O950    1.283   .     A
C893   C899    1.392   .     A
C893   C897    1.414   .     A
C894   C896    1.409   .     A
C894   C909    1.477   .     S
C894   C902    1.424   .     A
C895   C904    1.428   .     A
C895   C910    1.492   .     S
C895   C897    1.419   .     A
C896   C908    1.492   .     S
C897   C907    1.484   .     S
C898   Cl923   1.780   .     S
C898   C900    1.417   .     A
C899   C901    1.402   .     A
C899   Cl922   1.760   .     S
C900   C905    1.417   .     A
C900   C902    1.423   .     A
C901   C906    1.423   .     A
C901   C904    1.419   .     A
C902   C194    1.430   1_556 S
C903   C906    1.423   .     A
C903   C914    1.414   .     A
C903   C911    1.484   .     S
C904   C915    1.417   .     A
C905   C913    1.424   .     A
C905   C186    1.396   1_556 S
C907   O958    1.222   .     D
C907   O940    1.397   .     S
C908   O941    1.221   .     D
C908   O942    1.397   .     S
C909   O943    1.223   .     D
C909   O144    1.394   1_556 S
C910   O945    1.220   .     D
C911   O947    1.218   .     D
C911   O948    1.399   .     S
C912   O951    1.398   .     S
C912   O949    1.224   .     D
C912   C913    1.494   .     S
C913   C195    1.418   1_556 S
C914   Cl919   1.779   .     S
C915   Cl921   1.776   .     S
C916   Cl924   1.755   .     S
C916   C1158   1.377   .     S
C917   Cl925   1.764   .     S
C917   C1362   1.384   1_545 S
C918   Cl926   1.769   .     S
C918   C1396   1.377   1_545 S
H931   O940    1.014   .     S
H932   O942    1.012   .     S
H933   O944    1.011   .     S
H934   O946    1.013   .     S
H935   O948    1.013   .     S
H936   O951    1.013   .     S
N937   Zn959   2.022   .     S
N938   Zn960   2.022   .     S
O939   Zn959   1.979   .     S
O944   C29     1.394   1_655 S
O946   C190    1.399   1_556 S
O950   Zn960   1.979   .     S
O952   Zn960   1.996   .     S
O953   Zn959   1.996   .     S
O954   Zn959   1.949   .     S
O955   Zn960   1.949   .     S
O956   Zn960   1.918   .     S
O957   Zn959   1.918   .     S
C961   O1019   1.283   .     A
C961   O1032   1.288   .     A
C961   C964    1.414   .     S
C962   C964    1.400   .     A
C962   Cl1007  1.768   .     S
C962   C1237   1.384   .     S
C963   C972    1.407   .     S
C963   C998    1.395   .     A
C963   C997    1.398   .     A
C964   C996    1.399   .     A
C965   N1018   1.354   .     A
C965   H1009   1.081   .     S
C965   C1047   1.411   .     S
C966   N1017   1.358   .     A
C966   H1010   1.081   .     S
C966   C1128   1.415   1_455 S
C967   Cl1008  1.748   .     S
C967   N1017   1.384   .     A
C967   C1125   1.411   1_455 S
C968   N1018   1.380   .     A
C968   Cl1000  1.746   .     S
C968   C1046   1.415   .     S
C969   O1036   1.310   .     A
C969   C971    1.492   .     S
C969   O1034   1.299   .     A
C970   O1035   1.300   .     A
C970   O1037   1.305   .     A
C970   C973    1.480   .     S
C971   C978    1.413   .     A
C971   C976    1.421   .     A
C972   O1033   1.284   .     A
C972   O1030   1.283   .     A
C973   C979    1.392   .     A
C973   C977    1.414   .     A
C974   C976    1.409   .     A
C974   C989    1.477   .     S
C974   C982    1.424   .     A
C975   C984    1.428   .     A
C975   C990    1.492   .     S
C975   C977    1.419   .     A
C976   C988    1.492   .     S
C977   C987    1.484   .     S
C978   Cl1003  1.780   .     S
C978   C980    1.417   .     A
C979   C981    1.402   .     A
C979   Cl1002  1.760   .     S
C980   C985    1.417   .     A
C980   C982    1.423   .     A
C981   C986    1.423   .     A
C981   C984    1.419   .     A
C982   C274    1.430   1_556 S
C983   C986    1.423   .     A
C983   C994    1.414   .     A
C983   C991    1.484   .     S
C984   C995    1.417   .     A
C985   C993    1.424   .     A
C985   C266    1.396   1_556 S
C987   O1038   1.222   .     D
C987   O1020   1.397   .     S
C988   O1021   1.221   .     D
C988   O1022   1.397   .     S
C989   O1023   1.223   .     D
C989   O464    1.394   1_456 S
C990   O1025   1.220   .     D
C991   O1027   1.218   .     D
C991   O1028   1.399   .     S
C992   O1031   1.398   .     S
C992   O1029   1.224   .     D
C992   C993    1.494   .     S
C993   C275    1.418   1_556 S
C994   Cl999   1.779   .     S
C995   Cl1001  1.776   .     S
C996   Cl1004  1.755   .     S
C996   C1238   1.377   .     S
C997   Cl1005  1.764   .     S
C998   Cl1006  1.769   .     S
H1011  O1020   1.014   .     S
H1012  O1022   1.012   .     S
H1013  O1024   1.011   .     S
H1014  O1026   1.013   .     S
H1015  O1028   1.013   .     S
H1016  O1031   1.013   .     S
N1017  Zn1039  2.022   .     S
N1018  Zn1040  2.022   .     S
O1019  Zn1039  1.979   .     S
O1026  C270    1.399   1_556 S
O1030  Zn1040  1.979   .     S
O1032  Zn1040  1.996   .     S
O1033  Zn1039  1.996   .     S
O1034  Zn1039  1.949   .     S
O1035  Zn1040  1.949   .     S
O1036  Zn1040  1.918   .     S
O1037  Zn1039  1.918   .     S
C1041  O1099   1.283   .     A
C1041  O1112   1.288   .     A
C1041  C1044   1.414   .     S
C1042  C1044   1.400   .     A
C1042  Cl1087  1.768   .     S
C1042  C1317   1.384   .     S
C1043  C1052   1.407   .     S
C1043  C1078   1.395   .     A
C1043  C1077   1.398   .     A
C1044  C1076   1.399   .     A
C1045  N1098   1.354   .     A
C1045  H1089   1.081   .     S
C1045  C1127   1.411   .     S
C1046  N1097   1.358   .     A
C1046  H1090   1.081   .     S
C1047  Cl1088  1.748   .     S
C1047  N1097   1.384   .     A
C1048  N1098   1.380   .     A
C1048  Cl1080  1.746   .     S
C1048  C1126   1.415   .     S
C1049  O1116   1.310   .     A
C1049  C1051   1.492   .     S
C1049  O1114   1.299   .     A
C1050  O1115   1.300   .     A
C1050  O1117   1.305   .     A
C1050  C1053   1.480   .     S
C1051  C1058   1.413   .     A
C1051  C1056   1.421   .     A
C1052  O1113   1.284   .     A
C1052  O1110   1.283   .     A
C1053  C1059   1.392   .     A
C1053  C1057   1.414   .     A
C1054  C1056   1.409   .     A
C1054  C1069   1.477   .     S
C1054  C1062   1.424   .     A
C1055  C1064   1.428   .     A
C1055  C1070   1.492   .     S
C1055  C1057   1.419   .     A
C1056  C1068   1.492   .     S
C1057  C1067   1.484   .     S
C1058  Cl1083  1.780   .     S
C1058  C1060   1.417   .     A
C1059  C1061   1.402   .     A
C1059  Cl1082  1.760   .     S
C1060  C1065   1.417   .     A
C1060  C1062   1.423   .     A
C1061  C1066   1.423   .     A
C1061  C1064   1.419   .     A
C1062  C354    1.430   1_556 S
C1063  C1066   1.423   .     A
C1063  C1074   1.414   .     A
C1063  C1071   1.484   .     S
C1064  C1075   1.417   .     A
C1065  C1073   1.424   .     A
C1065  C346    1.396   1_556 S
C1067  O1118   1.222   .     D
C1067  O1100   1.397   .     S
C1068  O1101   1.221   .     D
C1068  O1102   1.397   .     S
C1069  O1103   1.223   .     D
C1069  O304    1.394   1_556 S
C1070  O1105   1.220   .     D
C1071  O1107   1.218   .     D
C1071  O1108   1.399   .     S
C1072  O1111   1.398   .     S
C1072  O1109   1.224   .     D
C1072  C1073   1.494   .     S
C1073  C355    1.418   1_556 S
C1074  Cl1079  1.779   .     S
C1075  Cl1081  1.776   .     S
C1076  Cl1084  1.755   .     S
C1076  C1318   1.377   .     S
C1077  Cl1085  1.764   .     S
C1078  Cl1086  1.769   .     S
H1091  O1100   1.014   .     S
H1092  O1102   1.012   .     S
H1093  O1104   1.011   .     S
H1094  O1106   1.013   .     S
H1095  O1108   1.013   .     S
H1096  O1111   1.013   .     S
N1097  Zn1119  2.022   .     S
N1098  Zn1120  2.022   .     S
O1099  Zn1119  1.979   .     S
O1106  C350    1.399   1_556 S
O1110  Zn1120  1.979   .     S
O1112  Zn1120  1.996   .     S
O1113  Zn1119  1.996   .     S
O1114  Zn1119  1.949   .     S
O1115  Zn1120  1.949   .     S
O1116  Zn1120  1.918   .     S
O1117  Zn1119  1.918   .     S
C1121  O1179   1.283   .     A
C1121  O1192   1.288   .     A
C1121  C1124   1.414   .     S
C1122  C1124   1.400   .     A
C1122  Cl1167  1.768   .     S
C1122  C1397   1.384   .     S
C1123  C1132   1.407   .     S
C1123  C1158   1.395   .     A
C1123  C1157   1.398   .     A
C1124  C1156   1.399   .     A
C1125  N1178   1.354   .     A
C1125  H1169   1.081   .     S
C1125  C967    1.411   1_655 S
C1126  N1177   1.358   .     A
C1126  H1170   1.081   .     S
C1127  Cl1168  1.748   .     S
C1127  N1177   1.384   .     A
C1128  N1178   1.380   .     A
C1128  Cl1160  1.746   .     S
C1128  C966    1.415   1_655 S
C1129  O1196   1.310   .     A
C1129  C1131   1.492   .     S
C1129  O1194   1.299   .     A
C1130  O1195   1.300   .     A
C1130  O1197   1.305   .     A
C1130  C1133   1.480   .     S
C1131  C1138   1.413   .     A
C1131  C1136   1.421   .     A
C1132  O1193   1.284   .     A
C1132  O1190   1.283   .     A
C1133  C1139   1.392   .     A
C1133  C1137   1.414   .     A
C1134  C1136   1.409   .     A
C1134  C1149   1.477   .     S
C1134  C1142   1.424   .     A
C1135  C1144   1.428   .     A
C1135  C1150   1.492   .     S
C1135  C1137   1.419   .     A
C1136  C1148   1.492   .     S
C1137  C1147   1.484   .     S
C1138  Cl1163  1.780   .     S
C1138  C1140   1.417   .     A
C1139  C1141   1.402   .     A
C1139  Cl1162  1.760   .     S
C1140  C1145   1.417   .     A
C1140  C1142   1.423   .     A
C1141  C1146   1.423   .     A
C1141  C1144   1.419   .     A
C1142  C434    1.430   1_556 S
C1143  C1146   1.423   .     A
C1143  C1154   1.414   .     A
C1143  C1151   1.484   .     S
C1144  C1155   1.417   .     A
C1145  C1153   1.424   .     A
C1145  C426    1.396   1_556 S
C1147  O1198   1.222   .     D
C1147  O1180   1.397   .     S
C1148  O1181   1.221   .     D
C1148  O1182   1.397   .     S
C1149  O1183   1.223   .     D
C1149  O384    1.394   1_556 S
C1150  O1185   1.220   .     D
C1151  O1187   1.218   .     D
C1151  O1188   1.399   .     S
C1152  O1191   1.398   .     S
C1152  O1189   1.224   .     D
C1152  C1153   1.494   .     S
C1153  C435    1.418   1_556 S
C1154  Cl1159  1.779   .     S
C1155  Cl1161  1.776   .     S
C1156  Cl1164  1.755   .     S
C1156  C1398   1.377   .     S
C1157  Cl1165  1.764   .     S
C1158  Cl1166  1.769   .     S
H1171  O1180   1.014   .     S
H1172  O1182   1.012   .     S
H1173  O1184   1.011   .     S
H1174  O1186   1.013   .     S
H1175  O1188   1.013   .     S
H1176  O1191   1.013   .     S
N1177  Zn1199  2.022   .     S
N1178  Zn1200  2.022   .     S
O1179  Zn1199  1.979   .     S
O1184  C269    1.394   1_655 S
O1186  C430    1.399   1_556 S
O1190  Zn1200  1.979   .     S
O1192  Zn1200  1.996   .     S
O1193  Zn1199  1.996   .     S
O1194  Zn1199  1.949   .     S
O1195  Zn1200  1.949   .     S
O1196  Zn1200  1.918   .     S
O1197  Zn1199  1.918   .     S
C1201  O1259   1.283   .     A
C1201  O1272   1.288   .     A
C1201  C1204   1.414   .     S
C1202  C1204   1.400   .     A
C1202  Cl1247  1.768   .     S
C1202  C757    1.384   1_565 S
C1203  C1212   1.407   .     S
C1203  C1238   1.395   .     A
C1203  C1237   1.398   .     A
C1204  C1236   1.399   .     A
C1205  N1258   1.354   .     A
C1205  H1249   1.081   .     S
C1205  C1287   1.411   .     S
C1206  N1257   1.358   .     A
C1206  H1250   1.081   .     S
C1206  C1368   1.415   1_455 S
C1207  Cl1248  1.748   .     S
C1207  N1257   1.384   .     A
C1207  C1365   1.411   1_455 S
C1208  N1258   1.380   .     A
C1208  Cl1240  1.746   .     S
C1208  C1286   1.415   .     S
C1209  O1276   1.310   .     A
C1209  C1211   1.492   .     S
C1209  O1274   1.299   .     A
C1210  O1275   1.300   .     A
C1210  O1277   1.305   .     A
C1210  C1213   1.480   .     S
C1211  C1218   1.413   .     A
C1211  C1216   1.421   .     A
C1212  O1273   1.284   .     A
C1212  O1270   1.283   .     A
C1213  C1219   1.392   .     A
C1213  C1217   1.414   .     A
C1214  C1216   1.409   .     A
C1214  C1229   1.477   .     S
C1214  C1222   1.424   .     A
C1215  C1224   1.428   .     A
C1215  C1230   1.492   .     S
C1215  C1217   1.419   .     A
C1216  C1228   1.492   .     S
C1217  C1227   1.484   .     S
C1218  Cl1243  1.780   .     S
C1218  C1220   1.417   .     A
C1219  C1221   1.402   .     A
C1219  Cl1242  1.760   .     S
C1220  C1225   1.417   .     A
C1220  C1222   1.423   .     A
C1221  C1226   1.423   .     A
C1221  C1224   1.419   .     A
C1222  C514    1.430   1_556 S
C1223  C1226   1.423   .     A
C1223  C1234   1.414   .     A
C1223  C1231   1.484   .     S
C1224  C1235   1.417   .     A
C1225  C1233   1.424   .     A
C1225  C506    1.396   1_556 S
C1227  O1278   1.222   .     D
C1227  O1260   1.397   .     S
C1228  O1261   1.221   .     D
C1228  O1262   1.397   .     S
C1229  O1263   1.223   .     D
C1229  O704    1.394   1_456 S
C1230  O1265   1.220   .     D
C1231  O1267   1.218   .     D
C1231  O1268   1.399   .     S
C1232  O1271   1.398   .     S
C1232  O1269   1.224   .     D
C1232  C1233   1.494   .     S
C1233  C515    1.418   1_556 S
C1234  Cl1239  1.779   .     S
C1235  Cl1241  1.776   .     S
C1236  Cl1244  1.755   .     S
C1236  C758    1.377   1_565 S
C1237  Cl1245  1.764   .     S
C1238  Cl1246  1.769   .     S
H1251  O1260   1.014   .     S
H1252  O1262   1.012   .     S
H1253  O1264   1.011   .     S
H1254  O1266   1.013   .     S
H1255  O1268   1.013   .     S
H1256  O1271   1.013   .     S
N1257  Zn1279  2.022   .     S
N1258  Zn1280  2.022   .     S
O1259  Zn1279  1.979   .     S
O1266  C510    1.399   1_556 S
O1270  Zn1280  1.979   .     S
O1272  Zn1280  1.996   .     S
O1273  Zn1279  1.996   .     S
O1274  Zn1279  1.949   .     S
O1275  Zn1280  1.949   .     S
O1276  Zn1280  1.918   .     S
O1277  Zn1279  1.918   .     S
C1281  O1339   1.283   .     A
C1281  O1352   1.288   .     A
C1281  C1284   1.414   .     S
C1282  C1284   1.400   .     A
C1282  Cl1327  1.768   .     S
C1282  C837    1.384   1_565 S
C1283  C1292   1.407   .     S
C1283  C1318   1.395   .     A
C1283  C1317   1.398   .     A
C1284  C1316   1.399   .     A
C1285  N1338   1.354   .     A
C1285  H1329   1.081   .     S
C1285  C1367   1.411   .     S
C1286  N1337   1.358   .     A
C1286  H1330   1.081   .     S
C1287  Cl1328  1.748   .     S
C1287  N1337   1.384   .     A
C1288  N1338   1.380   .     A
C1288  Cl1320  1.746   .     S
C1288  C1366   1.415   .     S
C1289  O1356   1.310   .     A
C1289  C1291   1.492   .     S
C1289  O1354   1.299   .     A
C1290  O1355   1.300   .     A
C1290  O1357   1.305   .     A
C1290  C1293   1.480   .     S
C1291  C1298   1.413   .     A
C1291  C1296   1.421   .     A
C1292  O1353   1.284   .     A
C1292  O1350   1.283   .     A
C1293  C1299   1.392   .     A
C1293  C1297   1.414   .     A
C1294  C1296   1.409   .     A
C1294  C1309   1.477   .     S
C1294  C1302   1.424   .     A
C1295  C1304   1.428   .     A
C1295  C1310   1.492   .     S
C1295  C1297   1.419   .     A
C1296  C1308   1.492   .     S
C1297  C1307   1.484   .     S
C1298  Cl1323  1.780   .     S
C1298  C1300   1.417   .     A
C1299  C1301   1.402   .     A
C1299  Cl1322  1.760   .     S
C1300  C1305   1.417   .     A
C1300  C1302   1.423   .     A
C1301  C1306   1.423   .     A
C1301  C1304   1.419   .     A
C1302  C594    1.430   1_556 S
C1303  C1306   1.423   .     A
C1303  C1314   1.414   .     A
C1303  C1311   1.484   .     S
C1304  C1315   1.417   .     A
C1305  C1313   1.424   .     A
C1305  C586    1.396   1_556 S
C1307  O1358   1.222   .     D
C1307  O1340   1.397   .     S
C1308  O1341   1.221   .     D
C1308  O1342   1.397   .     S
C1309  O1343   1.223   .     D
C1309  O544    1.394   1_556 S
C1310  O1345   1.220   .     D
C1311  O1347   1.218   .     D
C1311  O1348   1.399   .     S
C1312  O1351   1.398   .     S
C1312  O1349   1.224   .     D
C1312  C1313   1.494   .     S
C1313  C595    1.418   1_556 S
C1314  Cl1319  1.779   .     S
C1315  Cl1321  1.776   .     S
C1316  Cl1324  1.755   .     S
C1316  C838    1.377   1_565 S
C1317  Cl1325  1.764   .     S
C1318  Cl1326  1.769   .     S
H1331  O1340   1.014   .     S
H1332  O1342   1.012   .     S
H1333  O1344   1.011   .     S
H1334  O1346   1.013   .     S
H1335  O1348   1.013   .     S
H1336  O1351   1.013   .     S
N1337  Zn1359  2.022   .     S
N1338  Zn1360  2.022   .     S
O1339  Zn1359  1.979   .     S
O1346  C590    1.399   1_556 S
O1350  Zn1360  1.979   .     S
O1352  Zn1360  1.996   .     S
O1353  Zn1359  1.996   .     S
O1354  Zn1359  1.949   .     S
O1355  Zn1360  1.949   .     S
O1356  Zn1360  1.918   .     S
O1357  Zn1359  1.918   .     S
C1361  O1419   1.283   .     A
C1361  O1432   1.288   .     A
C1361  C1364   1.414   .     S
C1362  C1364   1.400   .     A
C1362  Cl1407  1.768   .     S
C1362  C917    1.384   1_565 S
C1363  C1372   1.407   .     S
C1363  C1398   1.395   .     A
C1363  C1397   1.398   .     A
C1364  C1396   1.399   .     A
C1365  N1418   1.354   .     A
C1365  H1409   1.081   .     S
C1365  C1207   1.411   1_655 S
C1366  N1417   1.358   .     A
C1366  H1410   1.081   .     S
C1367  Cl1408  1.748   .     S
C1367  N1417   1.384   .     A
C1368  N1418   1.380   .     A
C1368  Cl1400  1.746   .     S
C1368  C1206   1.415   1_655 S
C1369  O1436   1.310   .     A
C1369  C1371   1.492   .     S
C1369  O1434   1.299   .     A
C1370  O1435   1.300   .     A
C1370  O1437   1.305   .     A
C1370  C1373   1.480   .     S
C1371  C1378   1.413   .     A
C1371  C1376   1.421   .     A
C1372  O1433   1.284   .     A
C1372  O1430   1.283   .     A
C1373  C1379   1.392   .     A
C1373  C1377   1.414   .     A
C1374  C1376   1.409   .     A
C1374  C1389   1.477   .     S
C1374  C1382   1.424   .     A
C1375  C1384   1.428   .     A
C1375  C1390   1.492   .     S
C1375  C1377   1.419   .     A
C1376  C1388   1.492   .     S
C1377  C1387   1.484   .     S
C1378  Cl1403  1.780   .     S
C1378  C1380   1.417   .     A
C1379  C1381   1.402   .     A
C1379  Cl1402  1.760   .     S
C1380  C1385   1.417   .     A
C1380  C1382   1.423   .     A
C1381  C1386   1.423   .     A
C1381  C1384   1.419   .     A
C1382  C674    1.430   1_556 S
C1383  C1386   1.423   .     A
C1383  C1394   1.414   .     A
C1383  C1391   1.484   .     S
C1384  C1395   1.417   .     A
C1385  C1393   1.424   .     A
C1385  C666    1.396   1_556 S
C1387  O1438   1.222   .     D
C1387  O1420   1.397   .     S
C1388  O1421   1.221   .     D
C1388  O1422   1.397   .     S
C1389  O1423   1.223   .     D
C1389  O624    1.394   1_556 S
C1390  O1425   1.220   .     D
C1391  O1427   1.218   .     D
C1391  O1428   1.399   .     S
C1392  O1431   1.398   .     S
C1392  O1429   1.224   .     D
C1392  C1393   1.494   .     S
C1393  C675    1.418   1_556 S
C1394  Cl1399  1.779   .     S
C1395  Cl1401  1.776   .     S
C1396  Cl1404  1.755   .     S
C1396  C918    1.377   1_565 S
C1397  Cl1405  1.764   .     S
C1398  Cl1406  1.769   .     S
H1411  O1420   1.014   .     S
H1412  O1422   1.012   .     S
H1413  O1424   1.011   .     S
H1414  O1426   1.013   .     S
H1415  O1428   1.013   .     S
H1416  O1431   1.013   .     S
N1417  Zn1439  2.022   .     S
N1418  Zn1440  2.022   .     S
O1419  Zn1439  1.979   .     S
O1424  C509    1.394   1_655 S
O1426  C670    1.399   1_556 S
O1430  Zn1440  1.979   .     S
O1432  Zn1440  1.996   .     S
O1433  Zn1439  1.996   .     S
O1434  Zn1439  1.949   .     S
O1435  Zn1440  1.949   .     S
O1436  Zn1440  1.918   .     S
O1437  Zn1439  1.918   .     S
