data_str_m3_o1_o16_pcu_sym.251
_audit_creation_date              2020-01-03
_audit_creation_method            'Materials Studio'
_symmetry_space_group_name_H-M    'P1'
_symmetry_Int_Tables_number       1
_symmetry_cell_setting            triclinic
loop_
_symmetry_equiv_pos_as_xyz
  x,y,z
_cell_length_a                    29.6033
_cell_length_b                    31.8890
_cell_length_c                    26.3788
_cell_angle_alpha                 89.9892
_cell_angle_beta                  71.8776
_cell_angle_gamma                 90.1668
loop_
_atom_site_label
_atom_site_type_symbol
_atom_site_fract_x
_atom_site_fract_y
_atom_site_fract_z
_atom_site_U_iso_or_equiv
_atom_site_adp_type
_atom_site_occupancy
C1     C     0.16674   0.24653   0.25006   0.00000  Uiso   1.00
C2     C     0.15074   0.19747   0.48703   0.00000  Uiso   1.00
C3     C     0.16440   0.19610   0.43108   0.00000  Uiso   1.00
C4     C     0.18576   0.18959   0.01223   0.00000  Uiso   1.00
C5     C     0.23432   0.18554   0.48136   0.00000  Uiso   1.00
C6     C     0.24792   0.19259   0.42644   0.00000  Uiso   1.00
C7     C     0.21322   0.20112   0.40261   0.00000  Uiso   1.00
C8     C     0.17329   0.18211   0.06681   0.00000  Uiso   1.00
C9     C     0.25520   0.16795   0.06046   0.00000  Uiso   1.00
C10    C     0.12879   0.18869   0.40609   0.00000  Uiso   1.00
C11    C     0.18084   0.31164   0.28826   0.00000  Uiso   1.00
C12    C     0.14148   0.17279   0.35085   0.00000  Uiso   1.00
C13    C     0.18157   0.02163   0.28779   0.00000  Uiso   1.00
C14    C     0.16721   0.04245   0.24848   0.00000  Uiso   1.00
C15    C     0.15502   0.02091   0.20792   0.00000  Uiso   1.00
C16    C     0.15454   0.31101   0.20934   0.00000  Uiso   1.00
C17    C     0.16720   0.29050   0.24936   0.00000  Uiso   1.00
C18    C     0.31289   0.13133   0.23698   0.00000  Uiso   1.00
C19    C     0.02733   0.13131   0.23718   0.00000  Uiso   1.00
C20    C     0.02062   0.20219   0.26230   0.00000  Uiso   1.00
C21    C     0.30611   0.20217   0.26228   0.00000  Uiso   1.00
C22    C     0.16681   0.08674   0.24931   0.00000  Uiso   1.00
C23    C     0.19250   0.16701   0.14834   0.00000  Uiso   1.00
C24    C     0.26842   0.17445   0.00586   0.00000  Uiso   1.00
C25    C     0.20757   0.17183   0.09090   0.00000  Uiso   1.00
C26    C     0.08106   0.19613   0.43506   0.00000  Uiso   1.00
C27    C     0.06873   0.20866   0.48861   0.00000  Uiso   1.00
C28    C     0.10268   0.20632   0.01515   0.00000  Uiso   1.00
H29    H     0.28208   0.15977   0.07873   0.00000  Uiso   1.00
H30    H     0.14511   0.29317   0.17906   0.00000  Uiso   1.00
H31    H     0.29779   0.10299   0.22647   0.00000  Uiso   1.00
H32    H     0.04784   0.10288   0.22724   0.00000  Uiso   1.00
H33    H     0.03577   0.23058   0.27260   0.00000  Uiso   1.00
H34    H     0.28547   0.23060   0.27241   0.00000  Uiso   1.00
H35    H     0.30534   0.17042   0.48286   0.00000  Uiso   1.00
H36    H     0.13661   0.18303   0.09119   0.00000  Uiso   1.00
H37    H     0.05364   0.19287   0.41611   0.00000  Uiso   1.00
H38    H     0.09086   0.21355   0.05718   0.00000  Uiso   1.00
H39    H     0.22553   0.21134   0.36162   0.00000  Uiso   1.00
H40    H     0.18951   0.29446   0.31947   0.00000  Uiso   1.00
N41    N     0.04760   0.16668   0.25002   0.00000  Uiso   1.00
N42    N     0.28573   0.16665   0.25001   0.00000  Uiso   1.00
O43    O     0.12846   0.22775   0.25001   0.00000  Uiso   1.00
O44    O     0.20490   0.22774   0.25001   0.00000  Uiso   1.00
O45    O     0.10947   0.16666   0.32681   0.00000  Uiso   1.00
O46    O     0.18591   0.16665   0.32681   0.00000  Uiso   1.00
O47    O     0.12843   0.10559   0.25000   0.00000  Uiso   1.00
O48    O     0.20488   0.10558   0.25000   0.00000  Uiso   1.00
O49    O     0.14742   0.16668   0.17319   0.00000  Uiso   1.00
O50    O     0.22387   0.16667   0.17319   0.00000  Uiso   1.00
Zn51   Zn    0.11562   0.16667   0.25000   0.00000  Uiso   1.00
Zn52   Zn    0.21771   0.16666   0.25000   0.00000  Uiso   1.00
O53    O     0.19134   0.04412   0.32823   0.00000  Uiso   1.00
C54    C     0.23860   0.03668   0.32718   0.00000  Uiso   1.00
H55    H     0.24860   0.06074   0.35216   0.00000  Uiso   1.00
H56    H     0.24186   0.00553   0.34455   0.00000  Uiso   1.00
H57    H     0.26419   0.03945   0.28618   0.00000  Uiso   1.00
C58    C     0.14452   0.04316   0.16232   0.00000  Uiso   1.00
H59    H     0.17411   0.06491   0.14246   0.00000  Uiso   1.00
H60    H     0.14044   0.02074   0.13179   0.00000  Uiso   1.00
H61    H     0.11101   0.06105   0.17721   0.00000  Uiso   1.00
O62    O     0.29506   0.19066   0.39545   0.00000  Uiso   1.00
C63    C     0.30515   0.14881   0.37817   0.00000  Uiso   1.00
H64    H     0.01016   0.14636   0.35576   0.00000  Uiso   1.00
H65    H     0.28450   0.13927   0.35135   0.00000  Uiso   1.00
H66    H     0.29793   0.12641   0.41213   0.00000  Uiso   1.00
O67    O     0.02275   0.21949   0.01742   0.00000  Uiso   1.00
C68    C     0.01003   0.25651   0.49595   0.00000  Uiso   1.00
H69    H     0.00529   0.25066   0.45638   0.00000  Uiso   1.00
H70    H     0.03643   0.28209   0.49312   0.00000  Uiso   1.00
H71    H     0.30871   0.26746   0.02303   0.00000  Uiso   1.00
C72    C     0.50007   0.24653   0.25006   0.00000  Uiso   1.00
C73    C     0.48407   0.19747   0.48703   0.00000  Uiso   1.00
C74    C     0.49773   0.19610   0.43108   0.00000  Uiso   1.00
C75    C     0.51910   0.18959   0.01223   0.00000  Uiso   1.00
C76    C     0.56766   0.18554   0.48136   0.00000  Uiso   1.00
C77    C     0.58125   0.19259   0.42644   0.00000  Uiso   1.00
C78    C     0.54655   0.20112   0.40261   0.00000  Uiso   1.00
C79    C     0.50662   0.18211   0.06681   0.00000  Uiso   1.00
C80    C     0.58853   0.16795   0.06046   0.00000  Uiso   1.00
C81    C     0.46212   0.18869   0.40609   0.00000  Uiso   1.00
C82    C     0.51418   0.31164   0.28826   0.00000  Uiso   1.00
C83    C     0.47482   0.17279   0.35085   0.00000  Uiso   1.00
C84    C     0.51490   0.02163   0.28779   0.00000  Uiso   1.00
C85    C     0.50055   0.04245   0.24848   0.00000  Uiso   1.00
C86    C     0.48836   0.02091   0.20792   0.00000  Uiso   1.00
C87    C     0.48788   0.31101   0.20934   0.00000  Uiso   1.00
C88    C     0.50053   0.29050   0.24936   0.00000  Uiso   1.00
C89    C     0.64623   0.13133   0.23698   0.00000  Uiso   1.00
C90    C     0.36067   0.13131   0.23718   0.00000  Uiso   1.00
C91    C     0.35396   0.20219   0.26230   0.00000  Uiso   1.00
C92    C     0.63944   0.20217   0.26228   0.00000  Uiso   1.00
C93    C     0.50014   0.08674   0.24931   0.00000  Uiso   1.00
C94    C     0.52583   0.16701   0.14834   0.00000  Uiso   1.00
C95    C     0.60175   0.17445   0.00586   0.00000  Uiso   1.00
C96    C     0.54090   0.17183   0.09090   0.00000  Uiso   1.00
C97    C     0.41439   0.19613   0.43506   0.00000  Uiso   1.00
C98    C     0.40207   0.20866   0.48861   0.00000  Uiso   1.00
C99    C     0.43601   0.20632   0.01515   0.00000  Uiso   1.00
H100   H     0.61541   0.15977   0.07873   0.00000  Uiso   1.00
H101   H     0.47845   0.29317   0.17906   0.00000  Uiso   1.00
H102   H     0.63113   0.10299   0.22647   0.00000  Uiso   1.00
H103   H     0.38117   0.10288   0.22724   0.00000  Uiso   1.00
H104   H     0.36910   0.23058   0.27260   0.00000  Uiso   1.00
H105   H     0.61880   0.23060   0.27241   0.00000  Uiso   1.00
H106   H     0.63867   0.17042   0.48286   0.00000  Uiso   1.00
H107   H     0.46995   0.18303   0.09119   0.00000  Uiso   1.00
H108   H     0.38697   0.19287   0.41611   0.00000  Uiso   1.00
H109   H     0.42419   0.21355   0.05718   0.00000  Uiso   1.00
H110   H     0.55887   0.21134   0.36162   0.00000  Uiso   1.00
H111   H     0.52284   0.29446   0.31947   0.00000  Uiso   1.00
N112   N     0.38093   0.16668   0.25002   0.00000  Uiso   1.00
N113   N     0.61906   0.16665   0.25001   0.00000  Uiso   1.00
O114   O     0.46179   0.22775   0.25001   0.00000  Uiso   1.00
O115   O     0.53823   0.22774   0.25001   0.00000  Uiso   1.00
O116   O     0.44280   0.16666   0.32681   0.00000  Uiso   1.00
O117   O     0.51924   0.16665   0.32681   0.00000  Uiso   1.00
O118   O     0.46177   0.10559   0.25000   0.00000  Uiso   1.00
O119   O     0.53821   0.10558   0.25000   0.00000  Uiso   1.00
O120   O     0.48076   0.16668   0.17319   0.00000  Uiso   1.00
O121   O     0.55720   0.16667   0.17319   0.00000  Uiso   1.00
Zn122  Zn    0.44896   0.16667   0.25000   0.00000  Uiso   1.00
Zn123  Zn    0.55104   0.16666   0.25000   0.00000  Uiso   1.00
O124   O     0.52467   0.04412   0.32823   0.00000  Uiso   1.00
C125   C     0.57193   0.03668   0.32718   0.00000  Uiso   1.00
H126   H     0.58194   0.06074   0.35216   0.00000  Uiso   1.00
H127   H     0.57520   0.00553   0.34455   0.00000  Uiso   1.00
H128   H     0.59753   0.03945   0.28618   0.00000  Uiso   1.00
C129   C     0.47785   0.04316   0.16232   0.00000  Uiso   1.00
H130   H     0.50744   0.06491   0.14246   0.00000  Uiso   1.00
H131   H     0.47377   0.02074   0.13179   0.00000  Uiso   1.00
H132   H     0.44434   0.06105   0.17721   0.00000  Uiso   1.00
O133   O     0.62839   0.19066   0.39545   0.00000  Uiso   1.00
C134   C     0.63848   0.14881   0.37817   0.00000  Uiso   1.00
H135   H     0.34349   0.14636   0.35576   0.00000  Uiso   1.00
H136   H     0.61783   0.13927   0.35135   0.00000  Uiso   1.00
H137   H     0.63126   0.12641   0.41213   0.00000  Uiso   1.00
O138   O     0.35608   0.21949   0.01742   0.00000  Uiso   1.00
C139   C     0.34337   0.25651   0.49595   0.00000  Uiso   1.00
H140   H     0.33862   0.25066   0.45638   0.00000  Uiso   1.00
H141   H     0.36977   0.28209   0.49312   0.00000  Uiso   1.00
H142   H     0.64204   0.26746   0.02303   0.00000  Uiso   1.00
C143   C     0.83341   0.24653   0.25006   0.00000  Uiso   1.00
C144   C     0.81741   0.19747   0.48703   0.00000  Uiso   1.00
C145   C     0.83106   0.19610   0.43108   0.00000  Uiso   1.00
C146   C     0.85243   0.18959   0.01223   0.00000  Uiso   1.00
C147   C     0.90099   0.18554   0.48136   0.00000  Uiso   1.00
C148   C     0.91458   0.19259   0.42644   0.00000  Uiso   1.00
C149   C     0.87989   0.20112   0.40261   0.00000  Uiso   1.00
C150   C     0.83996   0.18211   0.06681   0.00000  Uiso   1.00
C151   C     0.92187   0.16795   0.06046   0.00000  Uiso   1.00
C152   C     0.79546   0.18869   0.40609   0.00000  Uiso   1.00
C153   C     0.84751   0.31164   0.28826   0.00000  Uiso   1.00
C154   C     0.80815   0.17279   0.35085   0.00000  Uiso   1.00
C155   C     0.84824   0.02163   0.28779   0.00000  Uiso   1.00
C156   C     0.83388   0.04245   0.24848   0.00000  Uiso   1.00
C157   C     0.82169   0.02091   0.20792   0.00000  Uiso   1.00
C158   C     0.82121   0.31101   0.20934   0.00000  Uiso   1.00
C159   C     0.83386   0.29050   0.24936   0.00000  Uiso   1.00
C160   C     0.97956   0.13133   0.23698   0.00000  Uiso   1.00
C161   C     0.69400   0.13131   0.23718   0.00000  Uiso   1.00
C162   C     0.68729   0.20219   0.26230   0.00000  Uiso   1.00
C163   C     0.97278   0.20217   0.26228   0.00000  Uiso   1.00
C164   C     0.83348   0.08674   0.24931   0.00000  Uiso   1.00
C165   C     0.85917   0.16701   0.14834   0.00000  Uiso   1.00
C166   C     0.93509   0.17445   0.00586   0.00000  Uiso   1.00
C167   C     0.87423   0.17183   0.09090   0.00000  Uiso   1.00
C168   C     0.74773   0.19613   0.43506   0.00000  Uiso   1.00
C169   C     0.73540   0.20866   0.48861   0.00000  Uiso   1.00
C170   C     0.76935   0.20632   0.01515   0.00000  Uiso   1.00
H171   H     0.94875   0.15977   0.07873   0.00000  Uiso   1.00
H172   H     0.81178   0.29317   0.17906   0.00000  Uiso   1.00
H173   H     0.96446   0.10299   0.22647   0.00000  Uiso   1.00
H174   H     0.71451   0.10288   0.22724   0.00000  Uiso   1.00
H175   H     0.70244   0.23058   0.27260   0.00000  Uiso   1.00
H176   H     0.95214   0.23060   0.27241   0.00000  Uiso   1.00
H177   H     0.97201   0.17042   0.48286   0.00000  Uiso   1.00
H178   H     0.80328   0.18303   0.09119   0.00000  Uiso   1.00
H179   H     0.72030   0.19287   0.41611   0.00000  Uiso   1.00
H180   H     0.75752   0.21355   0.05718   0.00000  Uiso   1.00
H181   H     0.89220   0.21134   0.36162   0.00000  Uiso   1.00
H182   H     0.85617   0.29446   0.31947   0.00000  Uiso   1.00
N183   N     0.71426   0.16668   0.25002   0.00000  Uiso   1.00
N184   N     0.95239   0.16665   0.25001   0.00000  Uiso   1.00
O185   O     0.79512   0.22775   0.25001   0.00000  Uiso   1.00
O186   O     0.87157   0.22774   0.25001   0.00000  Uiso   1.00
O187   O     0.77613   0.16666   0.32681   0.00000  Uiso   1.00
O188   O     0.85258   0.16665   0.32681   0.00000  Uiso   1.00
O189   O     0.79510   0.10559   0.25000   0.00000  Uiso   1.00
O190   O     0.87154   0.10558   0.25000   0.00000  Uiso   1.00
O191   O     0.81409   0.16668   0.17319   0.00000  Uiso   1.00
O192   O     0.89053   0.16667   0.17319   0.00000  Uiso   1.00
Zn193  Zn    0.78229   0.16667   0.25000   0.00000  Uiso   1.00
Zn194  Zn    0.88438   0.16666   0.25000   0.00000  Uiso   1.00
O195   O     0.85800   0.04412   0.32823   0.00000  Uiso   1.00
C196   C     0.90527   0.03668   0.32718   0.00000  Uiso   1.00
H197   H     0.91527   0.06074   0.35216   0.00000  Uiso   1.00
H198   H     0.90853   0.00553   0.34455   0.00000  Uiso   1.00
H199   H     0.93086   0.03945   0.28618   0.00000  Uiso   1.00
C200   C     0.81119   0.04316   0.16232   0.00000  Uiso   1.00
H201   H     0.84078   0.06491   0.14246   0.00000  Uiso   1.00
H202   H     0.80710   0.02074   0.13179   0.00000  Uiso   1.00
H203   H     0.77767   0.06105   0.17721   0.00000  Uiso   1.00
O204   O     0.96172   0.19066   0.39545   0.00000  Uiso   1.00
C205   C     0.97182   0.14881   0.37817   0.00000  Uiso   1.00
H206   H     0.67682   0.14636   0.35576   0.00000  Uiso   1.00
H207   H     0.95117   0.13927   0.35135   0.00000  Uiso   1.00
H208   H     0.96459   0.12641   0.41213   0.00000  Uiso   1.00
O209   O     0.68941   0.21949   0.01742   0.00000  Uiso   1.00
C210   C     0.67670   0.25651   0.49595   0.00000  Uiso   1.00
H211   H     0.67196   0.25066   0.45638   0.00000  Uiso   1.00
H212   H     0.70310   0.28209   0.49312   0.00000  Uiso   1.00
H213   H     0.97538   0.26746   0.02303   0.00000  Uiso   1.00
C214   C     0.16674   0.57986   0.25006   0.00000  Uiso   1.00
C215   C     0.15074   0.53081   0.48703   0.00000  Uiso   1.00
C216   C     0.16440   0.52943   0.43108   0.00000  Uiso   1.00
C217   C     0.18576   0.52292   0.01223   0.00000  Uiso   1.00
C218   C     0.23432   0.51887   0.48136   0.00000  Uiso   1.00
C219   C     0.24792   0.52592   0.42644   0.00000  Uiso   1.00
C220   C     0.21322   0.53445   0.40261   0.00000  Uiso   1.00
C221   C     0.17329   0.51545   0.06681   0.00000  Uiso   1.00
C222   C     0.25520   0.50129   0.06046   0.00000  Uiso   1.00
C223   C     0.12879   0.52202   0.40609   0.00000  Uiso   1.00
C224   C     0.18084   0.64497   0.28826   0.00000  Uiso   1.00
C225   C     0.14148   0.50612   0.35085   0.00000  Uiso   1.00
C226   C     0.18157   0.35496   0.28779   0.00000  Uiso   1.00
C227   C     0.16721   0.37579   0.24848   0.00000  Uiso   1.00
C228   C     0.15502   0.35424   0.20792   0.00000  Uiso   1.00
C229   C     0.15454   0.64434   0.20934   0.00000  Uiso   1.00
C230   C     0.16720   0.62383   0.24936   0.00000  Uiso   1.00
C231   C     0.31289   0.46466   0.23698   0.00000  Uiso   1.00
C232   C     0.02733   0.46464   0.23718   0.00000  Uiso   1.00
C233   C     0.02062   0.53552   0.26230   0.00000  Uiso   1.00
C234   C     0.30611   0.53550   0.26228   0.00000  Uiso   1.00
C235   C     0.16681   0.42007   0.24931   0.00000  Uiso   1.00
C236   C     0.19250   0.50035   0.14834   0.00000  Uiso   1.00
C237   C     0.26842   0.50778   0.00586   0.00000  Uiso   1.00
C238   C     0.20757   0.50517   0.09090   0.00000  Uiso   1.00
C239   C     0.08106   0.52946   0.43506   0.00000  Uiso   1.00
C240   C     0.06873   0.54200   0.48861   0.00000  Uiso   1.00
C241   C     0.10268   0.53965   0.01515   0.00000  Uiso   1.00
H242   H     0.28208   0.49310   0.07873   0.00000  Uiso   1.00
H243   H     0.14511   0.62650   0.17906   0.00000  Uiso   1.00
H244   H     0.29779   0.43632   0.22647   0.00000  Uiso   1.00
H245   H     0.04784   0.43621   0.22724   0.00000  Uiso   1.00
H246   H     0.03577   0.56392   0.27260   0.00000  Uiso   1.00
H247   H     0.28547   0.56394   0.27241   0.00000  Uiso   1.00
H248   H     0.30534   0.50376   0.48286   0.00000  Uiso   1.00
H249   H     0.13661   0.51637   0.09119   0.00000  Uiso   1.00
H250   H     0.05364   0.52620   0.41611   0.00000  Uiso   1.00
H251   H     0.09086   0.54689   0.05718   0.00000  Uiso   1.00
H252   H     0.22553   0.54467   0.36162   0.00000  Uiso   1.00
H253   H     0.18951   0.62779   0.31947   0.00000  Uiso   1.00
N254   N     0.04760   0.50001   0.25002   0.00000  Uiso   1.00
N255   N     0.28573   0.49998   0.25001   0.00000  Uiso   1.00
O256   O     0.12846   0.56108   0.25001   0.00000  Uiso   1.00
O257   O     0.20490   0.56107   0.25001   0.00000  Uiso   1.00
O258   O     0.10947   0.50000   0.32681   0.00000  Uiso   1.00
O259   O     0.18591   0.49999   0.32681   0.00000  Uiso   1.00
O260   O     0.12843   0.43893   0.25000   0.00000  Uiso   1.00
O261   O     0.20488   0.43892   0.25000   0.00000  Uiso   1.00
O262   O     0.14742   0.50001   0.17319   0.00000  Uiso   1.00
O263   O     0.22387   0.50000   0.17319   0.00000  Uiso   1.00
Zn264  Zn    0.11562   0.50001   0.25000   0.00000  Uiso   1.00
Zn265  Zn    0.21771   0.49999   0.25000   0.00000  Uiso   1.00
O266   O     0.19134   0.37746   0.32823   0.00000  Uiso   1.00
C267   C     0.23860   0.37001   0.32718   0.00000  Uiso   1.00
H268   H     0.24860   0.39408   0.35216   0.00000  Uiso   1.00
H269   H     0.24186   0.33886   0.34455   0.00000  Uiso   1.00
H270   H     0.26419   0.37278   0.28618   0.00000  Uiso   1.00
C271   C     0.14452   0.37649   0.16232   0.00000  Uiso   1.00
H272   H     0.17411   0.39824   0.14246   0.00000  Uiso   1.00
H273   H     0.14044   0.35407   0.13179   0.00000  Uiso   1.00
H274   H     0.11101   0.39438   0.17721   0.00000  Uiso   1.00
O275   O     0.29506   0.52399   0.39545   0.00000  Uiso   1.00
C276   C     0.30515   0.48215   0.37817   0.00000  Uiso   1.00
H277   H     0.01016   0.47969   0.35576   0.00000  Uiso   1.00
H278   H     0.28450   0.47260   0.35135   0.00000  Uiso   1.00
H279   H     0.29793   0.45974   0.41213   0.00000  Uiso   1.00
O280   O     0.02275   0.55282   0.01742   0.00000  Uiso   1.00
C281   C     0.01003   0.58985   0.49595   0.00000  Uiso   1.00
H282   H     0.00529   0.58399   0.45638   0.00000  Uiso   1.00
H283   H     0.03643   0.61542   0.49312   0.00000  Uiso   1.00
H284   H     0.30871   0.60079   0.02303   0.00000  Uiso   1.00
C285   C     0.50007   0.57986   0.25006   0.00000  Uiso   1.00
C286   C     0.48407   0.53081   0.48703   0.00000  Uiso   1.00
C287   C     0.49773   0.52943   0.43108   0.00000  Uiso   1.00
C288   C     0.51910   0.52292   0.01223   0.00000  Uiso   1.00
C289   C     0.56766   0.51887   0.48136   0.00000  Uiso   1.00
C290   C     0.58125   0.52592   0.42644   0.00000  Uiso   1.00
C291   C     0.54655   0.53445   0.40261   0.00000  Uiso   1.00
C292   C     0.50662   0.51545   0.06681   0.00000  Uiso   1.00
C293   C     0.58853   0.50129   0.06046   0.00000  Uiso   1.00
C294   C     0.46212   0.52202   0.40609   0.00000  Uiso   1.00
C295   C     0.51418   0.64497   0.28826   0.00000  Uiso   1.00
C296   C     0.47482   0.50612   0.35085   0.00000  Uiso   1.00
C297   C     0.51490   0.35496   0.28779   0.00000  Uiso   1.00
C298   C     0.50055   0.37579   0.24848   0.00000  Uiso   1.00
C299   C     0.48836   0.35424   0.20792   0.00000  Uiso   1.00
C300   C     0.48788   0.64434   0.20934   0.00000  Uiso   1.00
C301   C     0.50053   0.62383   0.24936   0.00000  Uiso   1.00
C302   C     0.64623   0.46466   0.23698   0.00000  Uiso   1.00
C303   C     0.36067   0.46464   0.23718   0.00000  Uiso   1.00
C304   C     0.35396   0.53552   0.26230   0.00000  Uiso   1.00
C305   C     0.63944   0.53550   0.26228   0.00000  Uiso   1.00
C306   C     0.50014   0.42007   0.24931   0.00000  Uiso   1.00
C307   C     0.52583   0.50035   0.14834   0.00000  Uiso   1.00
C308   C     0.60175   0.50778   0.00586   0.00000  Uiso   1.00
C309   C     0.54090   0.50517   0.09090   0.00000  Uiso   1.00
C310   C     0.41439   0.52946   0.43506   0.00000  Uiso   1.00
C311   C     0.40207   0.54200   0.48861   0.00000  Uiso   1.00
C312   C     0.43601   0.53965   0.01515   0.00000  Uiso   1.00
H313   H     0.61541   0.49310   0.07873   0.00000  Uiso   1.00
H314   H     0.47845   0.62650   0.17906   0.00000  Uiso   1.00
H315   H     0.63113   0.43632   0.22647   0.00000  Uiso   1.00
H316   H     0.38117   0.43621   0.22724   0.00000  Uiso   1.00
H317   H     0.36910   0.56392   0.27260   0.00000  Uiso   1.00
H318   H     0.61880   0.56394   0.27241   0.00000  Uiso   1.00
H319   H     0.63867   0.50376   0.48286   0.00000  Uiso   1.00
H320   H     0.46995   0.51637   0.09119   0.00000  Uiso   1.00
H321   H     0.38697   0.52620   0.41611   0.00000  Uiso   1.00
H322   H     0.42419   0.54689   0.05718   0.00000  Uiso   1.00
H323   H     0.55887   0.54467   0.36162   0.00000  Uiso   1.00
H324   H     0.52284   0.62779   0.31947   0.00000  Uiso   1.00
N325   N     0.38093   0.50001   0.25002   0.00000  Uiso   1.00
N326   N     0.61906   0.49998   0.25001   0.00000  Uiso   1.00
O327   O     0.46179   0.56108   0.25001   0.00000  Uiso   1.00
O328   O     0.53823   0.56107   0.25001   0.00000  Uiso   1.00
O329   O     0.44280   0.50000   0.32681   0.00000  Uiso   1.00
O330   O     0.51924   0.49999   0.32681   0.00000  Uiso   1.00
O331   O     0.46177   0.43893   0.25000   0.00000  Uiso   1.00
O332   O     0.53821   0.43892   0.25000   0.00000  Uiso   1.00
O333   O     0.48076   0.50001   0.17319   0.00000  Uiso   1.00
O334   O     0.55720   0.50000   0.17319   0.00000  Uiso   1.00
Zn335  Zn    0.44896   0.50001   0.25000   0.00000  Uiso   1.00
Zn336  Zn    0.55104   0.49999   0.25000   0.00000  Uiso   1.00
O337   O     0.52467   0.37746   0.32823   0.00000  Uiso   1.00
C338   C     0.57193   0.37001   0.32718   0.00000  Uiso   1.00
H339   H     0.58194   0.39408   0.35216   0.00000  Uiso   1.00
H340   H     0.57520   0.33886   0.34455   0.00000  Uiso   1.00
H341   H     0.59753   0.37278   0.28618   0.00000  Uiso   1.00
C342   C     0.47785   0.37649   0.16232   0.00000  Uiso   1.00
H343   H     0.50744   0.39824   0.14246   0.00000  Uiso   1.00
H344   H     0.47377   0.35407   0.13179   0.00000  Uiso   1.00
H345   H     0.44434   0.39438   0.17721   0.00000  Uiso   1.00
O346   O     0.62839   0.52399   0.39545   0.00000  Uiso   1.00
C347   C     0.63848   0.48215   0.37817   0.00000  Uiso   1.00
H348   H     0.34349   0.47969   0.35576   0.00000  Uiso   1.00
H349   H     0.61783   0.47260   0.35135   0.00000  Uiso   1.00
H350   H     0.63126   0.45974   0.41213   0.00000  Uiso   1.00
O351   O     0.35608   0.55282   0.01742   0.00000  Uiso   1.00
C352   C     0.34337   0.58985   0.49595   0.00000  Uiso   1.00
H353   H     0.33862   0.58399   0.45638   0.00000  Uiso   1.00
H354   H     0.36977   0.61542   0.49312   0.00000  Uiso   1.00
H355   H     0.64204   0.60079   0.02303   0.00000  Uiso   1.00
C356   C     0.83341   0.57986   0.25006   0.00000  Uiso   1.00
C357   C     0.81741   0.53081   0.48703   0.00000  Uiso   1.00
C358   C     0.83106   0.52943   0.43108   0.00000  Uiso   1.00
C359   C     0.85243   0.52292   0.01223   0.00000  Uiso   1.00
C360   C     0.90099   0.51887   0.48136   0.00000  Uiso   1.00
C361   C     0.91458   0.52592   0.42644   0.00000  Uiso   1.00
C362   C     0.87989   0.53445   0.40261   0.00000  Uiso   1.00
C363   C     0.83996   0.51545   0.06681   0.00000  Uiso   1.00
C364   C     0.92187   0.50129   0.06046   0.00000  Uiso   1.00
C365   C     0.79546   0.52202   0.40609   0.00000  Uiso   1.00
C366   C     0.84751   0.64497   0.28826   0.00000  Uiso   1.00
C367   C     0.80815   0.50612   0.35085   0.00000  Uiso   1.00
C368   C     0.84824   0.35496   0.28779   0.00000  Uiso   1.00
C369   C     0.83388   0.37579   0.24848   0.00000  Uiso   1.00
C370   C     0.82169   0.35424   0.20792   0.00000  Uiso   1.00
C371   C     0.82121   0.64434   0.20934   0.00000  Uiso   1.00
C372   C     0.83386   0.62383   0.24936   0.00000  Uiso   1.00
C373   C     0.97956   0.46466   0.23698   0.00000  Uiso   1.00
C374   C     0.69400   0.46464   0.23718   0.00000  Uiso   1.00
C375   C     0.68729   0.53552   0.26230   0.00000  Uiso   1.00
C376   C     0.97278   0.53550   0.26228   0.00000  Uiso   1.00
C377   C     0.83348   0.42007   0.24931   0.00000  Uiso   1.00
C378   C     0.85917   0.50035   0.14834   0.00000  Uiso   1.00
C379   C     0.93509   0.50778   0.00586   0.00000  Uiso   1.00
C380   C     0.87423   0.50517   0.09090   0.00000  Uiso   1.00
C381   C     0.74773   0.52946   0.43506   0.00000  Uiso   1.00
C382   C     0.73540   0.54200   0.48861   0.00000  Uiso   1.00
C383   C     0.76935   0.53965   0.01515   0.00000  Uiso   1.00
H384   H     0.94875   0.49310   0.07873   0.00000  Uiso   1.00
H385   H     0.81178   0.62650   0.17906   0.00000  Uiso   1.00
H386   H     0.96446   0.43632   0.22647   0.00000  Uiso   1.00
H387   H     0.71451   0.43621   0.22724   0.00000  Uiso   1.00
H388   H     0.70244   0.56392   0.27260   0.00000  Uiso   1.00
H389   H     0.95214   0.56394   0.27241   0.00000  Uiso   1.00
H390   H     0.97201   0.50376   0.48286   0.00000  Uiso   1.00
H391   H     0.80328   0.51637   0.09119   0.00000  Uiso   1.00
H392   H     0.72030   0.52620   0.41611   0.00000  Uiso   1.00
H393   H     0.75752   0.54689   0.05718   0.00000  Uiso   1.00
H394   H     0.89220   0.54467   0.36162   0.00000  Uiso   1.00
H395   H     0.85617   0.62779   0.31947   0.00000  Uiso   1.00
N396   N     0.71426   0.50001   0.25002   0.00000  Uiso   1.00
N397   N     0.95239   0.49998   0.25001   0.00000  Uiso   1.00
O398   O     0.79512   0.56108   0.25001   0.00000  Uiso   1.00
O399   O     0.87157   0.56107   0.25001   0.00000  Uiso   1.00
O400   O     0.77613   0.50000   0.32681   0.00000  Uiso   1.00
O401   O     0.85258   0.49999   0.32681   0.00000  Uiso   1.00
O402   O     0.79510   0.43893   0.25000   0.00000  Uiso   1.00
O403   O     0.87154   0.43892   0.25000   0.00000  Uiso   1.00
O404   O     0.81409   0.50001   0.17319   0.00000  Uiso   1.00
O405   O     0.89053   0.50000   0.17319   0.00000  Uiso   1.00
Zn406  Zn    0.78229   0.50001   0.25000   0.00000  Uiso   1.00
Zn407  Zn    0.88438   0.49999   0.25000   0.00000  Uiso   1.00
O408   O     0.85800   0.37746   0.32823   0.00000  Uiso   1.00
C409   C     0.90527   0.37001   0.32718   0.00000  Uiso   1.00
H410   H     0.91527   0.39408   0.35216   0.00000  Uiso   1.00
H411   H     0.90853   0.33886   0.34455   0.00000  Uiso   1.00
H412   H     0.93086   0.37278   0.28618   0.00000  Uiso   1.00
C413   C     0.81119   0.37649   0.16232   0.00000  Uiso   1.00
H414   H     0.84078   0.39824   0.14246   0.00000  Uiso   1.00
H415   H     0.80710   0.35407   0.13179   0.00000  Uiso   1.00
H416   H     0.77767   0.39438   0.17721   0.00000  Uiso   1.00
O417   O     0.96172   0.52399   0.39545   0.00000  Uiso   1.00
C418   C     0.97182   0.48215   0.37817   0.00000  Uiso   1.00
H419   H     0.67682   0.47969   0.35576   0.00000  Uiso   1.00
H420   H     0.95117   0.47260   0.35135   0.00000  Uiso   1.00
H421   H     0.96459   0.45974   0.41213   0.00000  Uiso   1.00
O422   O     0.68941   0.55282   0.01742   0.00000  Uiso   1.00
C423   C     0.67670   0.58985   0.49595   0.00000  Uiso   1.00
H424   H     0.67196   0.58399   0.45638   0.00000  Uiso   1.00
H425   H     0.70310   0.61542   0.49312   0.00000  Uiso   1.00
H426   H     0.97538   0.60079   0.02303   0.00000  Uiso   1.00
C427   C     0.16674   0.91320   0.25006   0.00000  Uiso   1.00
C428   C     0.15074   0.86414   0.48703   0.00000  Uiso   1.00
C429   C     0.16440   0.86277   0.43108   0.00000  Uiso   1.00
C430   C     0.18576   0.85625   0.01223   0.00000  Uiso   1.00
C431   C     0.23432   0.85221   0.48136   0.00000  Uiso   1.00
C432   C     0.24792   0.85925   0.42644   0.00000  Uiso   1.00
C433   C     0.21322   0.86778   0.40261   0.00000  Uiso   1.00
C434   C     0.17329   0.84878   0.06681   0.00000  Uiso   1.00
C435   C     0.25520   0.83462   0.06046   0.00000  Uiso   1.00
C436   C     0.12879   0.85535   0.40609   0.00000  Uiso   1.00
C437   C     0.18084   0.97831   0.28826   0.00000  Uiso   1.00
C438   C     0.14148   0.83946   0.35085   0.00000  Uiso   1.00
C439   C     0.18157   0.68829   0.28779   0.00000  Uiso   1.00
C440   C     0.16721   0.70912   0.24848   0.00000  Uiso   1.00
C441   C     0.15502   0.68758   0.20792   0.00000  Uiso   1.00
C442   C     0.15454   0.97767   0.20934   0.00000  Uiso   1.00
C443   C     0.16720   0.95716   0.24936   0.00000  Uiso   1.00
C444   C     0.31289   0.79799   0.23698   0.00000  Uiso   1.00
C445   C     0.02733   0.79798   0.23718   0.00000  Uiso   1.00
C446   C     0.02062   0.86885   0.26230   0.00000  Uiso   1.00
C447   C     0.30611   0.86884   0.26228   0.00000  Uiso   1.00
C448   C     0.16681   0.75341   0.24931   0.00000  Uiso   1.00
C449   C     0.19250   0.83368   0.14834   0.00000  Uiso   1.00
C450   C     0.26842   0.84112   0.00586   0.00000  Uiso   1.00
C451   C     0.20757   0.83850   0.09090   0.00000  Uiso   1.00
C452   C     0.08106   0.86279   0.43506   0.00000  Uiso   1.00
C453   C     0.06873   0.87533   0.48861   0.00000  Uiso   1.00
C454   C     0.10268   0.87298   0.01515   0.00000  Uiso   1.00
H455   H     0.28208   0.82643   0.07873   0.00000  Uiso   1.00
H456   H     0.14511   0.95984   0.17906   0.00000  Uiso   1.00
H457   H     0.29779   0.76966   0.22647   0.00000  Uiso   1.00
H458   H     0.04784   0.76955   0.22724   0.00000  Uiso   1.00
H459   H     0.03577   0.89725   0.27260   0.00000  Uiso   1.00
H460   H     0.28547   0.89727   0.27241   0.00000  Uiso   1.00
H461   H     0.30534   0.83709   0.48286   0.00000  Uiso   1.00
H462   H     0.13661   0.84970   0.09119   0.00000  Uiso   1.00
H463   H     0.05364   0.85954   0.41611   0.00000  Uiso   1.00
H464   H     0.09086   0.88022   0.05718   0.00000  Uiso   1.00
H465   H     0.22553   0.87800   0.36162   0.00000  Uiso   1.00
H466   H     0.18951   0.96113   0.31947   0.00000  Uiso   1.00
N467   N     0.04760   0.83334   0.25002   0.00000  Uiso   1.00
N468   N     0.28573   0.83331   0.25001   0.00000  Uiso   1.00
O469   O     0.12846   0.89442   0.25001   0.00000  Uiso   1.00
O470   O     0.20490   0.89441   0.25001   0.00000  Uiso   1.00
O471   O     0.10947   0.83333   0.32681   0.00000  Uiso   1.00
O472   O     0.18591   0.83332   0.32681   0.00000  Uiso   1.00
O473   O     0.12843   0.77226   0.25000   0.00000  Uiso   1.00
O474   O     0.20488   0.77225   0.25000   0.00000  Uiso   1.00
O475   O     0.14742   0.83335   0.17319   0.00000  Uiso   1.00
O476   O     0.22387   0.83334   0.17319   0.00000  Uiso   1.00
Zn477  Zn    0.11562   0.83334   0.25000   0.00000  Uiso   1.00
Zn478  Zn    0.21771   0.83333   0.25000   0.00000  Uiso   1.00
O479   O     0.19134   0.71079   0.32823   0.00000  Uiso   1.00
C480   C     0.23860   0.70335   0.32718   0.00000  Uiso   1.00
H481   H     0.24860   0.72741   0.35216   0.00000  Uiso   1.00
H482   H     0.24186   0.67219   0.34455   0.00000  Uiso   1.00
H483   H     0.26419   0.70611   0.28618   0.00000  Uiso   1.00
C484   C     0.14452   0.70983   0.16232   0.00000  Uiso   1.00
H485   H     0.17411   0.73158   0.14246   0.00000  Uiso   1.00
H486   H     0.14044   0.68741   0.13179   0.00000  Uiso   1.00
H487   H     0.11101   0.72772   0.17721   0.00000  Uiso   1.00
O488   O     0.29506   0.85733   0.39545   0.00000  Uiso   1.00
C489   C     0.30515   0.81548   0.37817   0.00000  Uiso   1.00
H490   H     0.01016   0.81302   0.35576   0.00000  Uiso   1.00
H491   H     0.28450   0.80594   0.35135   0.00000  Uiso   1.00
H492   H     0.29793   0.79308   0.41213   0.00000  Uiso   1.00
O493   O     0.02275   0.88616   0.01742   0.00000  Uiso   1.00
C494   C     0.01003   0.92318   0.49595   0.00000  Uiso   1.00
H495   H     0.00529   0.91732   0.45638   0.00000  Uiso   1.00
H496   H     0.03643   0.94875   0.49312   0.00000  Uiso   1.00
H497   H     0.30871   0.93412   0.02303   0.00000  Uiso   1.00
C498   C     0.50007   0.91320   0.25006   0.00000  Uiso   1.00
C499   C     0.48407   0.86414   0.48703   0.00000  Uiso   1.00
C500   C     0.49773   0.86277   0.43108   0.00000  Uiso   1.00
C501   C     0.51910   0.85625   0.01223   0.00000  Uiso   1.00
C502   C     0.56766   0.85221   0.48136   0.00000  Uiso   1.00
C503   C     0.58125   0.85925   0.42644   0.00000  Uiso   1.00
C504   C     0.54655   0.86778   0.40261   0.00000  Uiso   1.00
C505   C     0.50662   0.84878   0.06681   0.00000  Uiso   1.00
C506   C     0.58853   0.83462   0.06046   0.00000  Uiso   1.00
C507   C     0.46212   0.85535   0.40609   0.00000  Uiso   1.00
C508   C     0.51418   0.97831   0.28826   0.00000  Uiso   1.00
C509   C     0.47482   0.83946   0.35085   0.00000  Uiso   1.00
C510   C     0.51490   0.68829   0.28779   0.00000  Uiso   1.00
C511   C     0.50055   0.70912   0.24848   0.00000  Uiso   1.00
C512   C     0.48836   0.68758   0.20792   0.00000  Uiso   1.00
C513   C     0.48788   0.97767   0.20934   0.00000  Uiso   1.00
C514   C     0.50053   0.95716   0.24936   0.00000  Uiso   1.00
C515   C     0.64623   0.79799   0.23698   0.00000  Uiso   1.00
C516   C     0.36067   0.79798   0.23718   0.00000  Uiso   1.00
C517   C     0.35396   0.86885   0.26230   0.00000  Uiso   1.00
C518   C     0.63944   0.86884   0.26228   0.00000  Uiso   1.00
C519   C     0.50014   0.75341   0.24931   0.00000  Uiso   1.00
C520   C     0.52583   0.83368   0.14834   0.00000  Uiso   1.00
C521   C     0.60175   0.84112   0.00586   0.00000  Uiso   1.00
C522   C     0.54090   0.83850   0.09090   0.00000  Uiso   1.00
C523   C     0.41439   0.86279   0.43506   0.00000  Uiso   1.00
C524   C     0.40207   0.87533   0.48861   0.00000  Uiso   1.00
C525   C     0.43601   0.87298   0.01515   0.00000  Uiso   1.00
H526   H     0.61541   0.82643   0.07873   0.00000  Uiso   1.00
H527   H     0.47845   0.95984   0.17906   0.00000  Uiso   1.00
H528   H     0.63113   0.76966   0.22647   0.00000  Uiso   1.00
H529   H     0.38117   0.76955   0.22724   0.00000  Uiso   1.00
H530   H     0.36910   0.89725   0.27260   0.00000  Uiso   1.00
H531   H     0.61880   0.89727   0.27241   0.00000  Uiso   1.00
H532   H     0.63867   0.83709   0.48286   0.00000  Uiso   1.00
H533   H     0.46995   0.84970   0.09119   0.00000  Uiso   1.00
H534   H     0.38697   0.85954   0.41611   0.00000  Uiso   1.00
H535   H     0.42419   0.88022   0.05718   0.00000  Uiso   1.00
H536   H     0.55887   0.87800   0.36162   0.00000  Uiso   1.00
H537   H     0.52284   0.96113   0.31947   0.00000  Uiso   1.00
N538   N     0.38093   0.83334   0.25002   0.00000  Uiso   1.00
N539   N     0.61906   0.83331   0.25001   0.00000  Uiso   1.00
O540   O     0.46179   0.89442   0.25001   0.00000  Uiso   1.00
O541   O     0.53823   0.89441   0.25001   0.00000  Uiso   1.00
O542   O     0.44280   0.83333   0.32681   0.00000  Uiso   1.00
O543   O     0.51924   0.83332   0.32681   0.00000  Uiso   1.00
O544   O     0.46177   0.77226   0.25000   0.00000  Uiso   1.00
O545   O     0.53821   0.77225   0.25000   0.00000  Uiso   1.00
O546   O     0.48076   0.83335   0.17319   0.00000  Uiso   1.00
O547   O     0.55720   0.83334   0.17319   0.00000  Uiso   1.00
Zn548  Zn    0.44896   0.83334   0.25000   0.00000  Uiso   1.00
Zn549  Zn    0.55104   0.83333   0.25000   0.00000  Uiso   1.00
O550   O     0.52467   0.71079   0.32823   0.00000  Uiso   1.00
C551   C     0.57193   0.70335   0.32718   0.00000  Uiso   1.00
H552   H     0.58194   0.72741   0.35216   0.00000  Uiso   1.00
H553   H     0.57520   0.67219   0.34455   0.00000  Uiso   1.00
H554   H     0.59753   0.70611   0.28618   0.00000  Uiso   1.00
C555   C     0.47785   0.70983   0.16232   0.00000  Uiso   1.00
H556   H     0.50744   0.73158   0.14246   0.00000  Uiso   1.00
H557   H     0.47377   0.68741   0.13179   0.00000  Uiso   1.00
H558   H     0.44434   0.72772   0.17721   0.00000  Uiso   1.00
O559   O     0.62839   0.85733   0.39545   0.00000  Uiso   1.00
C560   C     0.63848   0.81548   0.37817   0.00000  Uiso   1.00
H561   H     0.34349   0.81302   0.35576   0.00000  Uiso   1.00
H562   H     0.61783   0.80594   0.35135   0.00000  Uiso   1.00
H563   H     0.63126   0.79308   0.41213   0.00000  Uiso   1.00
O564   O     0.35608   0.88616   0.01742   0.00000  Uiso   1.00
C565   C     0.34337   0.92318   0.49595   0.00000  Uiso   1.00
H566   H     0.33862   0.91732   0.45638   0.00000  Uiso   1.00
H567   H     0.36977   0.94875   0.49312   0.00000  Uiso   1.00
H568   H     0.64204   0.93412   0.02303   0.00000  Uiso   1.00
C569   C     0.83341   0.91320   0.25006   0.00000  Uiso   1.00
C570   C     0.81741   0.86414   0.48703   0.00000  Uiso   1.00
C571   C     0.83106   0.86277   0.43108   0.00000  Uiso   1.00
C572   C     0.85243   0.85625   0.01223   0.00000  Uiso   1.00
C573   C     0.90099   0.85221   0.48136   0.00000  Uiso   1.00
C574   C     0.91458   0.85925   0.42644   0.00000  Uiso   1.00
C575   C     0.87989   0.86778   0.40261   0.00000  Uiso   1.00
C576   C     0.83996   0.84878   0.06681   0.00000  Uiso   1.00
C577   C     0.92187   0.83462   0.06046   0.00000  Uiso   1.00
C578   C     0.79546   0.85535   0.40609   0.00000  Uiso   1.00
C579   C     0.84751   0.97831   0.28826   0.00000  Uiso   1.00
C580   C     0.80815   0.83946   0.35085   0.00000  Uiso   1.00
C581   C     0.84824   0.68829   0.28779   0.00000  Uiso   1.00
C582   C     0.83388   0.70912   0.24848   0.00000  Uiso   1.00
C583   C     0.82169   0.68758   0.20792   0.00000  Uiso   1.00
C584   C     0.82121   0.97767   0.20934   0.00000  Uiso   1.00
C585   C     0.83386   0.95716   0.24936   0.00000  Uiso   1.00
C586   C     0.97956   0.79799   0.23698   0.00000  Uiso   1.00
C587   C     0.69400   0.79798   0.23718   0.00000  Uiso   1.00
C588   C     0.68729   0.86885   0.26230   0.00000  Uiso   1.00
C589   C     0.97278   0.86884   0.26228   0.00000  Uiso   1.00
C590   C     0.83348   0.75341   0.24931   0.00000  Uiso   1.00
C591   C     0.85917   0.83368   0.14834   0.00000  Uiso   1.00
C592   C     0.93509   0.84112   0.00586   0.00000  Uiso   1.00
C593   C     0.87423   0.83850   0.09090   0.00000  Uiso   1.00
C594   C     0.74773   0.86279   0.43506   0.00000  Uiso   1.00
C595   C     0.73540   0.87533   0.48861   0.00000  Uiso   1.00
C596   C     0.76935   0.87298   0.01515   0.00000  Uiso   1.00
H597   H     0.94875   0.82643   0.07873   0.00000  Uiso   1.00
H598   H     0.81178   0.95984   0.17906   0.00000  Uiso   1.00
H599   H     0.96446   0.76966   0.22647   0.00000  Uiso   1.00
H600   H     0.71451   0.76955   0.22724   0.00000  Uiso   1.00
H601   H     0.70244   0.89725   0.27260   0.00000  Uiso   1.00
H602   H     0.95214   0.89727   0.27241   0.00000  Uiso   1.00
H603   H     0.97201   0.83709   0.48286   0.00000  Uiso   1.00
H604   H     0.80328   0.84970   0.09119   0.00000  Uiso   1.00
H605   H     0.72030   0.85954   0.41611   0.00000  Uiso   1.00
H606   H     0.75752   0.88022   0.05718   0.00000  Uiso   1.00
H607   H     0.89220   0.87800   0.36162   0.00000  Uiso   1.00
H608   H     0.85617   0.96113   0.31947   0.00000  Uiso   1.00
N609   N     0.71426   0.83334   0.25002   0.00000  Uiso   1.00
N610   N     0.95239   0.83331   0.25001   0.00000  Uiso   1.00
O611   O     0.79512   0.89442   0.25001   0.00000  Uiso   1.00
O612   O     0.87157   0.89441   0.25001   0.00000  Uiso   1.00
O613   O     0.77613   0.83333   0.32681   0.00000  Uiso   1.00
O614   O     0.85258   0.83332   0.32681   0.00000  Uiso   1.00
O615   O     0.79510   0.77226   0.25000   0.00000  Uiso   1.00
O616   O     0.87154   0.77225   0.25000   0.00000  Uiso   1.00
O617   O     0.81409   0.83335   0.17319   0.00000  Uiso   1.00
O618   O     0.89053   0.83334   0.17319   0.00000  Uiso   1.00
Zn619  Zn    0.78229   0.83334   0.25000   0.00000  Uiso   1.00
Zn620  Zn    0.88438   0.83333   0.25000   0.00000  Uiso   1.00
O621   O     0.85800   0.71079   0.32823   0.00000  Uiso   1.00
C622   C     0.90527   0.70335   0.32718   0.00000  Uiso   1.00
H623   H     0.91527   0.72741   0.35216   0.00000  Uiso   1.00
H624   H     0.90853   0.67219   0.34455   0.00000  Uiso   1.00
H625   H     0.93086   0.70611   0.28618   0.00000  Uiso   1.00
C626   C     0.81119   0.70983   0.16232   0.00000  Uiso   1.00
H627   H     0.84078   0.73158   0.14246   0.00000  Uiso   1.00
H628   H     0.80710   0.68741   0.13179   0.00000  Uiso   1.00
H629   H     0.77767   0.72772   0.17721   0.00000  Uiso   1.00
O630   O     0.96172   0.85733   0.39545   0.00000  Uiso   1.00
C631   C     0.97182   0.81548   0.37817   0.00000  Uiso   1.00
H632   H     0.67682   0.81302   0.35576   0.00000  Uiso   1.00
H633   H     0.95117   0.80594   0.35135   0.00000  Uiso   1.00
H634   H     0.96459   0.79308   0.41213   0.00000  Uiso   1.00
O635   O     0.68941   0.88616   0.01742   0.00000  Uiso   1.00
C636   C     0.67670   0.92318   0.49595   0.00000  Uiso   1.00
H637   H     0.67196   0.91732   0.45638   0.00000  Uiso   1.00
H638   H     0.70310   0.94875   0.49312   0.00000  Uiso   1.00
H639   H     0.97538   0.93412   0.02303   0.00000  Uiso   1.00
C640   C     0.16674   0.24653   0.75006   0.00000  Uiso   1.00
C641   C     0.15074   0.19747   0.98703   0.00000  Uiso   1.00
C642   C     0.16440   0.19610   0.93108   0.00000  Uiso   1.00
C643   C     0.18576   0.18959   0.51223   0.00000  Uiso   1.00
C644   C     0.23432   0.18554   0.98136   0.00000  Uiso   1.00
C645   C     0.24792   0.19259   0.92644   0.00000  Uiso   1.00
C646   C     0.21322   0.20112   0.90261   0.00000  Uiso   1.00
C647   C     0.17329   0.18211   0.56681   0.00000  Uiso   1.00
C648   C     0.25520   0.16795   0.56046   0.00000  Uiso   1.00
C649   C     0.12879   0.18869   0.90609   0.00000  Uiso   1.00
C650   C     0.18084   0.31164   0.78826   0.00000  Uiso   1.00
C651   C     0.14148   0.17279   0.85085   0.00000  Uiso   1.00
C652   C     0.18157   0.02163   0.78779   0.00000  Uiso   1.00
C653   C     0.16721   0.04245   0.74848   0.00000  Uiso   1.00
C654   C     0.15502   0.02091   0.70792   0.00000  Uiso   1.00
C655   C     0.15454   0.31101   0.70934   0.00000  Uiso   1.00
C656   C     0.16720   0.29050   0.74936   0.00000  Uiso   1.00
C657   C     0.31289   0.13133   0.73698   0.00000  Uiso   1.00
C658   C     0.02733   0.13131   0.73718   0.00000  Uiso   1.00
C659   C     0.02062   0.20219   0.76230   0.00000  Uiso   1.00
C660   C     0.30611   0.20217   0.76228   0.00000  Uiso   1.00
C661   C     0.16681   0.08674   0.74931   0.00000  Uiso   1.00
C662   C     0.19250   0.16701   0.64834   0.00000  Uiso   1.00
C663   C     0.26842   0.17445   0.50586   0.00000  Uiso   1.00
C664   C     0.20757   0.17183   0.59090   0.00000  Uiso   1.00
C665   C     0.08106   0.19613   0.93506   0.00000  Uiso   1.00
C666   C     0.06873   0.20866   0.98861   0.00000  Uiso   1.00
C667   C     0.10268   0.20632   0.51515   0.00000  Uiso   1.00
H668   H     0.28208   0.15977   0.57873   0.00000  Uiso   1.00
H669   H     0.14511   0.29317   0.67906   0.00000  Uiso   1.00
H670   H     0.29779   0.10299   0.72647   0.00000  Uiso   1.00
H671   H     0.04784   0.10288   0.72724   0.00000  Uiso   1.00
H672   H     0.03577   0.23058   0.77260   0.00000  Uiso   1.00
H673   H     0.28547   0.23060   0.77241   0.00000  Uiso   1.00
H674   H     0.30534   0.17042   0.98286   0.00000  Uiso   1.00
H675   H     0.13661   0.18303   0.59119   0.00000  Uiso   1.00
H676   H     0.05364   0.19287   0.91611   0.00000  Uiso   1.00
H677   H     0.09086   0.21355   0.55718   0.00000  Uiso   1.00
H678   H     0.22553   0.21134   0.86162   0.00000  Uiso   1.00
H679   H     0.18951   0.29446   0.81947   0.00000  Uiso   1.00
N680   N     0.04760   0.16668   0.75002   0.00000  Uiso   1.00
N681   N     0.28573   0.16665   0.75001   0.00000  Uiso   1.00
O682   O     0.12846   0.22775   0.75001   0.00000  Uiso   1.00
O683   O     0.20490   0.22774   0.75001   0.00000  Uiso   1.00
O684   O     0.10947   0.16666   0.82681   0.00000  Uiso   1.00
O685   O     0.18591   0.16665   0.82681   0.00000  Uiso   1.00
O686   O     0.12843   0.10559   0.75000   0.00000  Uiso   1.00
O687   O     0.20488   0.10558   0.75000   0.00000  Uiso   1.00
O688   O     0.14742   0.16668   0.67319   0.00000  Uiso   1.00
O689   O     0.22387   0.16667   0.67319   0.00000  Uiso   1.00
Zn690  Zn    0.11562   0.16667   0.75000   0.00000  Uiso   1.00
Zn691  Zn    0.21771   0.16666   0.75000   0.00000  Uiso   1.00
O692   O     0.19134   0.04412   0.82823   0.00000  Uiso   1.00
C693   C     0.23860   0.03668   0.82718   0.00000  Uiso   1.00
H694   H     0.24860   0.06074   0.85216   0.00000  Uiso   1.00
H695   H     0.24186   0.00553   0.84455   0.00000  Uiso   1.00
H696   H     0.26419   0.03945   0.78618   0.00000  Uiso   1.00
C697   C     0.14452   0.04316   0.66232   0.00000  Uiso   1.00
H698   H     0.17411   0.06491   0.64246   0.00000  Uiso   1.00
H699   H     0.14044   0.02074   0.63179   0.00000  Uiso   1.00
H700   H     0.11101   0.06105   0.67721   0.00000  Uiso   1.00
O701   O     0.29506   0.19066   0.89545   0.00000  Uiso   1.00
C702   C     0.30515   0.14881   0.87817   0.00000  Uiso   1.00
H703   H     0.01016   0.14636   0.85576   0.00000  Uiso   1.00
H704   H     0.28450   0.13927   0.85135   0.00000  Uiso   1.00
H705   H     0.29793   0.12641   0.91213   0.00000  Uiso   1.00
O706   O     0.02275   0.21949   0.51742   0.00000  Uiso   1.00
C707   C     0.01003   0.25651   0.99595   0.00000  Uiso   1.00
H708   H     0.00529   0.25066   0.95638   0.00000  Uiso   1.00
H709   H     0.03643   0.28209   0.99312   0.00000  Uiso   1.00
H710   H     0.30871   0.26746   0.52303   0.00000  Uiso   1.00
C711   C     0.50007   0.24653   0.75006   0.00000  Uiso   1.00
C712   C     0.48407   0.19747   0.98703   0.00000  Uiso   1.00
C713   C     0.49773   0.19610   0.93108   0.00000  Uiso   1.00
C714   C     0.51910   0.18959   0.51223   0.00000  Uiso   1.00
C715   C     0.56766   0.18554   0.98136   0.00000  Uiso   1.00
C716   C     0.58125   0.19259   0.92644   0.00000  Uiso   1.00
C717   C     0.54655   0.20112   0.90261   0.00000  Uiso   1.00
C718   C     0.50662   0.18211   0.56681   0.00000  Uiso   1.00
C719   C     0.58853   0.16795   0.56046   0.00000  Uiso   1.00
C720   C     0.46212   0.18869   0.90609   0.00000  Uiso   1.00
C721   C     0.51418   0.31164   0.78826   0.00000  Uiso   1.00
C722   C     0.47482   0.17279   0.85085   0.00000  Uiso   1.00
C723   C     0.51490   0.02163   0.78779   0.00000  Uiso   1.00
C724   C     0.50055   0.04245   0.74848   0.00000  Uiso   1.00
C725   C     0.48836   0.02091   0.70792   0.00000  Uiso   1.00
C726   C     0.48788   0.31101   0.70934   0.00000  Uiso   1.00
C727   C     0.50053   0.29050   0.74936   0.00000  Uiso   1.00
C728   C     0.64623   0.13133   0.73698   0.00000  Uiso   1.00
C729   C     0.36067   0.13131   0.73718   0.00000  Uiso   1.00
C730   C     0.35396   0.20219   0.76230   0.00000  Uiso   1.00
C731   C     0.63944   0.20217   0.76228   0.00000  Uiso   1.00
C732   C     0.50014   0.08674   0.74931   0.00000  Uiso   1.00
C733   C     0.52583   0.16701   0.64834   0.00000  Uiso   1.00
C734   C     0.60175   0.17445   0.50586   0.00000  Uiso   1.00
C735   C     0.54090   0.17183   0.59090   0.00000  Uiso   1.00
C736   C     0.41439   0.19613   0.93506   0.00000  Uiso   1.00
C737   C     0.40207   0.20866   0.98861   0.00000  Uiso   1.00
C738   C     0.43601   0.20632   0.51515   0.00000  Uiso   1.00
H739   H     0.61541   0.15977   0.57873   0.00000  Uiso   1.00
H740   H     0.47845   0.29317   0.67906   0.00000  Uiso   1.00
H741   H     0.63113   0.10299   0.72647   0.00000  Uiso   1.00
H742   H     0.38117   0.10288   0.72724   0.00000  Uiso   1.00
H743   H     0.36910   0.23058   0.77260   0.00000  Uiso   1.00
H744   H     0.61880   0.23060   0.77241   0.00000  Uiso   1.00
H745   H     0.63867   0.17042   0.98286   0.00000  Uiso   1.00
H746   H     0.46995   0.18303   0.59119   0.00000  Uiso   1.00
H747   H     0.38697   0.19287   0.91611   0.00000  Uiso   1.00
H748   H     0.42419   0.21355   0.55718   0.00000  Uiso   1.00
H749   H     0.55887   0.21134   0.86162   0.00000  Uiso   1.00
H750   H     0.52284   0.29446   0.81947   0.00000  Uiso   1.00
N751   N     0.38093   0.16668   0.75002   0.00000  Uiso   1.00
N752   N     0.61906   0.16665   0.75001   0.00000  Uiso   1.00
O753   O     0.46179   0.22775   0.75001   0.00000  Uiso   1.00
O754   O     0.53823   0.22774   0.75001   0.00000  Uiso   1.00
O755   O     0.44280   0.16666   0.82681   0.00000  Uiso   1.00
O756   O     0.51924   0.16665   0.82681   0.00000  Uiso   1.00
O757   O     0.46177   0.10559   0.75000   0.00000  Uiso   1.00
O758   O     0.53821   0.10558   0.75000   0.00000  Uiso   1.00
O759   O     0.48076   0.16668   0.67319   0.00000  Uiso   1.00
O760   O     0.55720   0.16667   0.67319   0.00000  Uiso   1.00
Zn761  Zn    0.44896   0.16667   0.75000   0.00000  Uiso   1.00
Zn762  Zn    0.55104   0.16666   0.75000   0.00000  Uiso   1.00
O763   O     0.52467   0.04412   0.82823   0.00000  Uiso   1.00
C764   C     0.57193   0.03668   0.82718   0.00000  Uiso   1.00
H765   H     0.58194   0.06074   0.85216   0.00000  Uiso   1.00
H766   H     0.57520   0.00553   0.84455   0.00000  Uiso   1.00
H767   H     0.59753   0.03945   0.78618   0.00000  Uiso   1.00
C768   C     0.47785   0.04316   0.66232   0.00000  Uiso   1.00
H769   H     0.50744   0.06491   0.64246   0.00000  Uiso   1.00
H770   H     0.47377   0.02074   0.63179   0.00000  Uiso   1.00
H771   H     0.44434   0.06105   0.67721   0.00000  Uiso   1.00
O772   O     0.62839   0.19066   0.89545   0.00000  Uiso   1.00
C773   C     0.63848   0.14881   0.87817   0.00000  Uiso   1.00
H774   H     0.34349   0.14636   0.85576   0.00000  Uiso   1.00
H775   H     0.61783   0.13927   0.85135   0.00000  Uiso   1.00
H776   H     0.63126   0.12641   0.91213   0.00000  Uiso   1.00
O777   O     0.35608   0.21949   0.51742   0.00000  Uiso   1.00
C778   C     0.34337   0.25651   0.99595   0.00000  Uiso   1.00
H779   H     0.33862   0.25066   0.95638   0.00000  Uiso   1.00
H780   H     0.36977   0.28209   0.99312   0.00000  Uiso   1.00
H781   H     0.64204   0.26746   0.52303   0.00000  Uiso   1.00
C782   C     0.83341   0.24653   0.75006   0.00000  Uiso   1.00
C783   C     0.81741   0.19747   0.98703   0.00000  Uiso   1.00
C784   C     0.83106   0.19610   0.93108   0.00000  Uiso   1.00
C785   C     0.85243   0.18959   0.51223   0.00000  Uiso   1.00
C786   C     0.90099   0.18554   0.98136   0.00000  Uiso   1.00
C787   C     0.91458   0.19259   0.92644   0.00000  Uiso   1.00
C788   C     0.87989   0.20112   0.90261   0.00000  Uiso   1.00
C789   C     0.83996   0.18211   0.56681   0.00000  Uiso   1.00
C790   C     0.92187   0.16795   0.56046   0.00000  Uiso   1.00
C791   C     0.79546   0.18869   0.90609   0.00000  Uiso   1.00
C792   C     0.84751   0.31164   0.78826   0.00000  Uiso   1.00
C793   C     0.80815   0.17279   0.85085   0.00000  Uiso   1.00
C794   C     0.84824   0.02163   0.78779   0.00000  Uiso   1.00
C795   C     0.83388   0.04245   0.74848   0.00000  Uiso   1.00
C796   C     0.82169   0.02091   0.70792   0.00000  Uiso   1.00
C797   C     0.82121   0.31101   0.70934   0.00000  Uiso   1.00
C798   C     0.83386   0.29050   0.74936   0.00000  Uiso   1.00
C799   C     0.97956   0.13133   0.73698   0.00000  Uiso   1.00
C800   C     0.69400   0.13131   0.73718   0.00000  Uiso   1.00
C801   C     0.68729   0.20219   0.76230   0.00000  Uiso   1.00
C802   C     0.97278   0.20217   0.76228   0.00000  Uiso   1.00
C803   C     0.83348   0.08674   0.74931   0.00000  Uiso   1.00
C804   C     0.85917   0.16701   0.64834   0.00000  Uiso   1.00
C805   C     0.93509   0.17445   0.50586   0.00000  Uiso   1.00
C806   C     0.87423   0.17183   0.59090   0.00000  Uiso   1.00
C807   C     0.74773   0.19613   0.93506   0.00000  Uiso   1.00
C808   C     0.73540   0.20866   0.98861   0.00000  Uiso   1.00
C809   C     0.76935   0.20632   0.51515   0.00000  Uiso   1.00
H810   H     0.94875   0.15977   0.57873   0.00000  Uiso   1.00
H811   H     0.81178   0.29317   0.67906   0.00000  Uiso   1.00
H812   H     0.96446   0.10299   0.72647   0.00000  Uiso   1.00
H813   H     0.71451   0.10288   0.72724   0.00000  Uiso   1.00
H814   H     0.70244   0.23058   0.77260   0.00000  Uiso   1.00
H815   H     0.95214   0.23060   0.77241   0.00000  Uiso   1.00
H816   H     0.97201   0.17042   0.98286   0.00000  Uiso   1.00
H817   H     0.80328   0.18303   0.59119   0.00000  Uiso   1.00
H818   H     0.72030   0.19287   0.91611   0.00000  Uiso   1.00
H819   H     0.75752   0.21355   0.55718   0.00000  Uiso   1.00
H820   H     0.89220   0.21134   0.86162   0.00000  Uiso   1.00
H821   H     0.85617   0.29446   0.81947   0.00000  Uiso   1.00
N822   N     0.71426   0.16668   0.75002   0.00000  Uiso   1.00
N823   N     0.95239   0.16665   0.75001   0.00000  Uiso   1.00
O824   O     0.79512   0.22775   0.75001   0.00000  Uiso   1.00
O825   O     0.87157   0.22774   0.75001   0.00000  Uiso   1.00
O826   O     0.77613   0.16666   0.82681   0.00000  Uiso   1.00
O827   O     0.85258   0.16665   0.82681   0.00000  Uiso   1.00
O828   O     0.79510   0.10559   0.75000   0.00000  Uiso   1.00
O829   O     0.87154   0.10558   0.75000   0.00000  Uiso   1.00
O830   O     0.81409   0.16668   0.67319   0.00000  Uiso   1.00
O831   O     0.89053   0.16667   0.67319   0.00000  Uiso   1.00
Zn832  Zn    0.78229   0.16667   0.75000   0.00000  Uiso   1.00
Zn833  Zn    0.88438   0.16666   0.75000   0.00000  Uiso   1.00
O834   O     0.85800   0.04412   0.82823   0.00000  Uiso   1.00
C835   C     0.90527   0.03668   0.82718   0.00000  Uiso   1.00
H836   H     0.91527   0.06074   0.85216   0.00000  Uiso   1.00
H837   H     0.90853   0.00553   0.84455   0.00000  Uiso   1.00
H838   H     0.93086   0.03945   0.78618   0.00000  Uiso   1.00
C839   C     0.81119   0.04316   0.66232   0.00000  Uiso   1.00
H840   H     0.84078   0.06491   0.64246   0.00000  Uiso   1.00
H841   H     0.80710   0.02074   0.63179   0.00000  Uiso   1.00
H842   H     0.77767   0.06105   0.67721   0.00000  Uiso   1.00
O843   O     0.96172   0.19066   0.89545   0.00000  Uiso   1.00
C844   C     0.97182   0.14881   0.87817   0.00000  Uiso   1.00
H845   H     0.67682   0.14636   0.85576   0.00000  Uiso   1.00
H846   H     0.95117   0.13927   0.85135   0.00000  Uiso   1.00
H847   H     0.96459   0.12641   0.91213   0.00000  Uiso   1.00
O848   O     0.68941   0.21949   0.51742   0.00000  Uiso   1.00
C849   C     0.67670   0.25651   0.99595   0.00000  Uiso   1.00
H850   H     0.67196   0.25066   0.95638   0.00000  Uiso   1.00
H851   H     0.70310   0.28209   0.99312   0.00000  Uiso   1.00
H852   H     0.97538   0.26746   0.52303   0.00000  Uiso   1.00
C853   C     0.16674   0.57986   0.75006   0.00000  Uiso   1.00
C854   C     0.15074   0.53081   0.98703   0.00000  Uiso   1.00
C855   C     0.16440   0.52943   0.93108   0.00000  Uiso   1.00
C856   C     0.18576   0.52292   0.51223   0.00000  Uiso   1.00
C857   C     0.23432   0.51887   0.98136   0.00000  Uiso   1.00
C858   C     0.24792   0.52592   0.92644   0.00000  Uiso   1.00
C859   C     0.21322   0.53445   0.90261   0.00000  Uiso   1.00
C860   C     0.17329   0.51545   0.56681   0.00000  Uiso   1.00
C861   C     0.25520   0.50129   0.56046   0.00000  Uiso   1.00
C862   C     0.12879   0.52202   0.90609   0.00000  Uiso   1.00
C863   C     0.18084   0.64497   0.78826   0.00000  Uiso   1.00
C864   C     0.14148   0.50612   0.85085   0.00000  Uiso   1.00
C865   C     0.18157   0.35496   0.78779   0.00000  Uiso   1.00
C866   C     0.16721   0.37579   0.74848   0.00000  Uiso   1.00
C867   C     0.15502   0.35424   0.70792   0.00000  Uiso   1.00
C868   C     0.15454   0.64434   0.70934   0.00000  Uiso   1.00
C869   C     0.16720   0.62383   0.74936   0.00000  Uiso   1.00
C870   C     0.31289   0.46466   0.73698   0.00000  Uiso   1.00
C871   C     0.02733   0.46464   0.73718   0.00000  Uiso   1.00
C872   C     0.02062   0.53552   0.76230   0.00000  Uiso   1.00
C873   C     0.30611   0.53550   0.76228   0.00000  Uiso   1.00
C874   C     0.16681   0.42007   0.74931   0.00000  Uiso   1.00
C875   C     0.19250   0.50035   0.64834   0.00000  Uiso   1.00
C876   C     0.26842   0.50778   0.50586   0.00000  Uiso   1.00
C877   C     0.20757   0.50517   0.59090   0.00000  Uiso   1.00
C878   C     0.08106   0.52946   0.93506   0.00000  Uiso   1.00
C879   C     0.06873   0.54200   0.98861   0.00000  Uiso   1.00
C880   C     0.10268   0.53965   0.51515   0.00000  Uiso   1.00
H881   H     0.28208   0.49310   0.57873   0.00000  Uiso   1.00
H882   H     0.14511   0.62650   0.67906   0.00000  Uiso   1.00
H883   H     0.29779   0.43632   0.72647   0.00000  Uiso   1.00
H884   H     0.04784   0.43621   0.72724   0.00000  Uiso   1.00
H885   H     0.03577   0.56392   0.77260   0.00000  Uiso   1.00
H886   H     0.28547   0.56394   0.77241   0.00000  Uiso   1.00
H887   H     0.30534   0.50376   0.98286   0.00000  Uiso   1.00
H888   H     0.13661   0.51637   0.59119   0.00000  Uiso   1.00
H889   H     0.05364   0.52620   0.91611   0.00000  Uiso   1.00
H890   H     0.09086   0.54689   0.55718   0.00000  Uiso   1.00
H891   H     0.22553   0.54467   0.86162   0.00000  Uiso   1.00
H892   H     0.18951   0.62779   0.81947   0.00000  Uiso   1.00
N893   N     0.04760   0.50001   0.75002   0.00000  Uiso   1.00
N894   N     0.28573   0.49998   0.75001   0.00000  Uiso   1.00
O895   O     0.12846   0.56108   0.75001   0.00000  Uiso   1.00
O896   O     0.20490   0.56107   0.75001   0.00000  Uiso   1.00
O897   O     0.10947   0.50000   0.82681   0.00000  Uiso   1.00
O898   O     0.18591   0.49999   0.82681   0.00000  Uiso   1.00
O899   O     0.12843   0.43893   0.75000   0.00000  Uiso   1.00
O900   O     0.20488   0.43892   0.75000   0.00000  Uiso   1.00
O901   O     0.14742   0.50001   0.67319   0.00000  Uiso   1.00
O902   O     0.22387   0.50000   0.67319   0.00000  Uiso   1.00
Zn903  Zn    0.11562   0.50001   0.75000   0.00000  Uiso   1.00
Zn904  Zn    0.21771   0.49999   0.75000   0.00000  Uiso   1.00
O905   O     0.19134   0.37746   0.82823   0.00000  Uiso   1.00
C906   C     0.23860   0.37001   0.82718   0.00000  Uiso   1.00
H907   H     0.24860   0.39408   0.85216   0.00000  Uiso   1.00
H908   H     0.24186   0.33886   0.84455   0.00000  Uiso   1.00
H909   H     0.26419   0.37278   0.78618   0.00000  Uiso   1.00
C910   C     0.14452   0.37649   0.66232   0.00000  Uiso   1.00
H911   H     0.17411   0.39824   0.64246   0.00000  Uiso   1.00
H912   H     0.14044   0.35407   0.63179   0.00000  Uiso   1.00
H913   H     0.11101   0.39438   0.67721   0.00000  Uiso   1.00
O914   O     0.29506   0.52399   0.89545   0.00000  Uiso   1.00
C915   C     0.30515   0.48215   0.87817   0.00000  Uiso   1.00
H916   H     0.01016   0.47969   0.85576   0.00000  Uiso   1.00
H917   H     0.28450   0.47260   0.85135   0.00000  Uiso   1.00
H918   H     0.29793   0.45974   0.91213   0.00000  Uiso   1.00
O919   O     0.02275   0.55282   0.51742   0.00000  Uiso   1.00
C920   C     0.01003   0.58985   0.99595   0.00000  Uiso   1.00
H921   H     0.00529   0.58399   0.95638   0.00000  Uiso   1.00
H922   H     0.03643   0.61542   0.99312   0.00000  Uiso   1.00
H923   H     0.30871   0.60079   0.52303   0.00000  Uiso   1.00
C924   C     0.50007   0.57986   0.75006   0.00000  Uiso   1.00
C925   C     0.48407   0.53081   0.98703   0.00000  Uiso   1.00
C926   C     0.49773   0.52943   0.93108   0.00000  Uiso   1.00
C927   C     0.51910   0.52292   0.51223   0.00000  Uiso   1.00
C928   C     0.56766   0.51887   0.98136   0.00000  Uiso   1.00
C929   C     0.58125   0.52592   0.92644   0.00000  Uiso   1.00
C930   C     0.54655   0.53445   0.90261   0.00000  Uiso   1.00
C931   C     0.50662   0.51545   0.56681   0.00000  Uiso   1.00
C932   C     0.58853   0.50129   0.56046   0.00000  Uiso   1.00
C933   C     0.46212   0.52202   0.90609   0.00000  Uiso   1.00
C934   C     0.51418   0.64497   0.78826   0.00000  Uiso   1.00
C935   C     0.47482   0.50612   0.85085   0.00000  Uiso   1.00
C936   C     0.51490   0.35496   0.78779   0.00000  Uiso   1.00
C937   C     0.50055   0.37579   0.74848   0.00000  Uiso   1.00
C938   C     0.48836   0.35424   0.70792   0.00000  Uiso   1.00
C939   C     0.48788   0.64434   0.70934   0.00000  Uiso   1.00
C940   C     0.50053   0.62383   0.74936   0.00000  Uiso   1.00
C941   C     0.64623   0.46466   0.73698   0.00000  Uiso   1.00
C942   C     0.36067   0.46464   0.73718   0.00000  Uiso   1.00
C943   C     0.35396   0.53552   0.76230   0.00000  Uiso   1.00
C944   C     0.63944   0.53550   0.76228   0.00000  Uiso   1.00
C945   C     0.50014   0.42007   0.74931   0.00000  Uiso   1.00
C946   C     0.52583   0.50035   0.64834   0.00000  Uiso   1.00
C947   C     0.60175   0.50778   0.50586   0.00000  Uiso   1.00
C948   C     0.54090   0.50517   0.59090   0.00000  Uiso   1.00
C949   C     0.41439   0.52946   0.93506   0.00000  Uiso   1.00
C950   C     0.40207   0.54200   0.98861   0.00000  Uiso   1.00
C951   C     0.43601   0.53965   0.51515   0.00000  Uiso   1.00
H952   H     0.61541   0.49310   0.57873   0.00000  Uiso   1.00
H953   H     0.47845   0.62650   0.67906   0.00000  Uiso   1.00
H954   H     0.63113   0.43632   0.72647   0.00000  Uiso   1.00
H955   H     0.38117   0.43621   0.72724   0.00000  Uiso   1.00
H956   H     0.36910   0.56392   0.77260   0.00000  Uiso   1.00
H957   H     0.61880   0.56394   0.77241   0.00000  Uiso   1.00
H958   H     0.63867   0.50376   0.98286   0.00000  Uiso   1.00
H959   H     0.46995   0.51637   0.59119   0.00000  Uiso   1.00
H960   H     0.38697   0.52620   0.91611   0.00000  Uiso   1.00
H961   H     0.42419   0.54689   0.55718   0.00000  Uiso   1.00
H962   H     0.55887   0.54467   0.86162   0.00000  Uiso   1.00
H963   H     0.52284   0.62779   0.81947   0.00000  Uiso   1.00
N964   N     0.38093   0.50001   0.75002   0.00000  Uiso   1.00
N965   N     0.61906   0.49998   0.75001   0.00000  Uiso   1.00
O966   O     0.46179   0.56108   0.75001   0.00000  Uiso   1.00
O967   O     0.53823   0.56107   0.75001   0.00000  Uiso   1.00
O968   O     0.44280   0.50000   0.82681   0.00000  Uiso   1.00
O969   O     0.51924   0.49999   0.82681   0.00000  Uiso   1.00
O970   O     0.46177   0.43893   0.75000   0.00000  Uiso   1.00
O971   O     0.53821   0.43892   0.75000   0.00000  Uiso   1.00
O972   O     0.48076   0.50001   0.67319   0.00000  Uiso   1.00
O973   O     0.55720   0.50000   0.67319   0.00000  Uiso   1.00
Zn974  Zn    0.44896   0.50001   0.75000   0.00000  Uiso   1.00
Zn975  Zn    0.55104   0.49999   0.75000   0.00000  Uiso   1.00
O976   O     0.52467   0.37746   0.82823   0.00000  Uiso   1.00
C977   C     0.57193   0.37001   0.82718   0.00000  Uiso   1.00
H978   H     0.58194   0.39408   0.85216   0.00000  Uiso   1.00
H979   H     0.57520   0.33886   0.84455   0.00000  Uiso   1.00
H980   H     0.59753   0.37278   0.78618   0.00000  Uiso   1.00
C981   C     0.47785   0.37649   0.66232   0.00000  Uiso   1.00
H982   H     0.50744   0.39824   0.64246   0.00000  Uiso   1.00
H983   H     0.47377   0.35407   0.63179   0.00000  Uiso   1.00
H984   H     0.44434   0.39438   0.67721   0.00000  Uiso   1.00
O985   O     0.62839   0.52399   0.89545   0.00000  Uiso   1.00
C986   C     0.63848   0.48215   0.87817   0.00000  Uiso   1.00
H987   H     0.34349   0.47969   0.85576   0.00000  Uiso   1.00
H988   H     0.61783   0.47260   0.85135   0.00000  Uiso   1.00
H989   H     0.63126   0.45974   0.91213   0.00000  Uiso   1.00
O990   O     0.35608   0.55282   0.51742   0.00000  Uiso   1.00
C991   C     0.34337   0.58985   0.99595   0.00000  Uiso   1.00
H992   H     0.33862   0.58399   0.95638   0.00000  Uiso   1.00
H993   H     0.36977   0.61542   0.99312   0.00000  Uiso   1.00
H994   H     0.64204   0.60079   0.52303   0.00000  Uiso   1.00
C995   C     0.83341   0.57986   0.75006   0.00000  Uiso   1.00
C996   C     0.81741   0.53081   0.98703   0.00000  Uiso   1.00
C997   C     0.83106   0.52943   0.93108   0.00000  Uiso   1.00
C998   C     0.85243   0.52292   0.51223   0.00000  Uiso   1.00
C999   C     0.90099   0.51887   0.98136   0.00000  Uiso   1.00
C1000  C     0.91458   0.52592   0.92644   0.00000  Uiso   1.00
C1001  C     0.87989   0.53445   0.90261   0.00000  Uiso   1.00
C1002  C     0.83996   0.51545   0.56681   0.00000  Uiso   1.00
C1003  C     0.92187   0.50129   0.56046   0.00000  Uiso   1.00
C1004  C     0.79546   0.52202   0.90609   0.00000  Uiso   1.00
C1005  C     0.84751   0.64497   0.78826   0.00000  Uiso   1.00
C1006  C     0.80815   0.50612   0.85085   0.00000  Uiso   1.00
C1007  C     0.84824   0.35496   0.78779   0.00000  Uiso   1.00
C1008  C     0.83388   0.37579   0.74848   0.00000  Uiso   1.00
C1009  C     0.82169   0.35424   0.70792   0.00000  Uiso   1.00
C1010  C     0.82121   0.64434   0.70934   0.00000  Uiso   1.00
C1011  C     0.83386   0.62383   0.74936   0.00000  Uiso   1.00
C1012  C     0.97956   0.46466   0.73698   0.00000  Uiso   1.00
C1013  C     0.69400   0.46464   0.73718   0.00000  Uiso   1.00
C1014  C     0.68729   0.53552   0.76230   0.00000  Uiso   1.00
C1015  C     0.97278   0.53550   0.76228   0.00000  Uiso   1.00
C1016  C     0.83348   0.42007   0.74931   0.00000  Uiso   1.00
C1017  C     0.85917   0.50035   0.64834   0.00000  Uiso   1.00
C1018  C     0.93509   0.50778   0.50586   0.00000  Uiso   1.00
C1019  C     0.87423   0.50517   0.59090   0.00000  Uiso   1.00
C1020  C     0.74773   0.52946   0.93506   0.00000  Uiso   1.00
C1021  C     0.73540   0.54200   0.98861   0.00000  Uiso   1.00
C1022  C     0.76935   0.53965   0.51515   0.00000  Uiso   1.00
H1023  H     0.94875   0.49310   0.57873   0.00000  Uiso   1.00
H1024  H     0.81178   0.62650   0.67906   0.00000  Uiso   1.00
H1025  H     0.96446   0.43632   0.72647   0.00000  Uiso   1.00
H1026  H     0.71451   0.43621   0.72724   0.00000  Uiso   1.00
H1027  H     0.70244   0.56392   0.77260   0.00000  Uiso   1.00
H1028  H     0.95214   0.56394   0.77241   0.00000  Uiso   1.00
H1029  H     0.97201   0.50376   0.98286   0.00000  Uiso   1.00
H1030  H     0.80328   0.51637   0.59119   0.00000  Uiso   1.00
H1031  H     0.72030   0.52620   0.91611   0.00000  Uiso   1.00
H1032  H     0.75752   0.54689   0.55718   0.00000  Uiso   1.00
H1033  H     0.89220   0.54467   0.86162   0.00000  Uiso   1.00
H1034  H     0.85617   0.62779   0.81947   0.00000  Uiso   1.00
N1035  N     0.71426   0.50001   0.75002   0.00000  Uiso   1.00
N1036  N     0.95239   0.49998   0.75001   0.00000  Uiso   1.00
O1037  O     0.79512   0.56108   0.75001   0.00000  Uiso   1.00
O1038  O     0.87157   0.56107   0.75001   0.00000  Uiso   1.00
O1039  O     0.77613   0.50000   0.82681   0.00000  Uiso   1.00
O1040  O     0.85258   0.49999   0.82681   0.00000  Uiso   1.00
O1041  O     0.79510   0.43893   0.75000   0.00000  Uiso   1.00
O1042  O     0.87154   0.43892   0.75000   0.00000  Uiso   1.00
O1043  O     0.81409   0.50001   0.67319   0.00000  Uiso   1.00
O1044  O     0.89053   0.50000   0.67319   0.00000  Uiso   1.00
Zn1045 Zn    0.78229   0.50001   0.75000   0.00000  Uiso   1.00
Zn1046 Zn    0.88438   0.49999   0.75000   0.00000  Uiso   1.00
O1047  O     0.85800   0.37746   0.82823   0.00000  Uiso   1.00
C1048  C     0.90527   0.37001   0.82718   0.00000  Uiso   1.00
H1049  H     0.91527   0.39408   0.85216   0.00000  Uiso   1.00
H1050  H     0.90853   0.33886   0.84455   0.00000  Uiso   1.00
H1051  H     0.93086   0.37278   0.78618   0.00000  Uiso   1.00
C1052  C     0.81119   0.37649   0.66232   0.00000  Uiso   1.00
H1053  H     0.84078   0.39824   0.64246   0.00000  Uiso   1.00
H1054  H     0.80710   0.35407   0.63179   0.00000  Uiso   1.00
H1055  H     0.77767   0.39438   0.67721   0.00000  Uiso   1.00
O1056  O     0.96172   0.52399   0.89545   0.00000  Uiso   1.00
C1057  C     0.97182   0.48215   0.87817   0.00000  Uiso   1.00
H1058  H     0.67682   0.47969   0.85576   0.00000  Uiso   1.00
H1059  H     0.95117   0.47260   0.85135   0.00000  Uiso   1.00
H1060  H     0.96459   0.45974   0.91213   0.00000  Uiso   1.00
O1061  O     0.68941   0.55282   0.51742   0.00000  Uiso   1.00
C1062  C     0.67670   0.58985   0.99595   0.00000  Uiso   1.00
H1063  H     0.67196   0.58399   0.95638   0.00000  Uiso   1.00
H1064  H     0.70310   0.61542   0.99312   0.00000  Uiso   1.00
H1065  H     0.97538   0.60079   0.52303   0.00000  Uiso   1.00
C1066  C     0.16674   0.91320   0.75006   0.00000  Uiso   1.00
C1067  C     0.15074   0.86414   0.98703   0.00000  Uiso   1.00
C1068  C     0.16440   0.86277   0.93108   0.00000  Uiso   1.00
C1069  C     0.18576   0.85625   0.51223   0.00000  Uiso   1.00
C1070  C     0.23432   0.85221   0.98136   0.00000  Uiso   1.00
C1071  C     0.24792   0.85925   0.92644   0.00000  Uiso   1.00
C1072  C     0.21322   0.86778   0.90261   0.00000  Uiso   1.00
C1073  C     0.17329   0.84878   0.56681   0.00000  Uiso   1.00
C1074  C     0.25520   0.83462   0.56046   0.00000  Uiso   1.00
C1075  C     0.12879   0.85535   0.90609   0.00000  Uiso   1.00
C1076  C     0.18084   0.97831   0.78826   0.00000  Uiso   1.00
C1077  C     0.14148   0.83946   0.85085   0.00000  Uiso   1.00
C1078  C     0.18157   0.68829   0.78779   0.00000  Uiso   1.00
C1079  C     0.16721   0.70912   0.74848   0.00000  Uiso   1.00
C1080  C     0.15502   0.68758   0.70792   0.00000  Uiso   1.00
C1081  C     0.15454   0.97767   0.70934   0.00000  Uiso   1.00
C1082  C     0.16720   0.95716   0.74936   0.00000  Uiso   1.00
C1083  C     0.31289   0.79799   0.73698   0.00000  Uiso   1.00
C1084  C     0.02733   0.79798   0.73718   0.00000  Uiso   1.00
C1085  C     0.02062   0.86885   0.76230   0.00000  Uiso   1.00
C1086  C     0.30611   0.86884   0.76228   0.00000  Uiso   1.00
C1087  C     0.16681   0.75341   0.74931   0.00000  Uiso   1.00
C1088  C     0.19250   0.83368   0.64834   0.00000  Uiso   1.00
C1089  C     0.26842   0.84112   0.50586   0.00000  Uiso   1.00
C1090  C     0.20757   0.83850   0.59090   0.00000  Uiso   1.00
C1091  C     0.08106   0.86279   0.93506   0.00000  Uiso   1.00
C1092  C     0.06873   0.87533   0.98861   0.00000  Uiso   1.00
C1093  C     0.10268   0.87298   0.51515   0.00000  Uiso   1.00
H1094  H     0.28208   0.82643   0.57873   0.00000  Uiso   1.00
H1095  H     0.14511   0.95984   0.67906   0.00000  Uiso   1.00
H1096  H     0.29779   0.76966   0.72647   0.00000  Uiso   1.00
H1097  H     0.04784   0.76955   0.72724   0.00000  Uiso   1.00
H1098  H     0.03577   0.89725   0.77260   0.00000  Uiso   1.00
H1099  H     0.28547   0.89727   0.77241   0.00000  Uiso   1.00
H1100  H     0.30534   0.83709   0.98286   0.00000  Uiso   1.00
H1101  H     0.13661   0.84970   0.59119   0.00000  Uiso   1.00
H1102  H     0.05364   0.85954   0.91611   0.00000  Uiso   1.00
H1103  H     0.09086   0.88022   0.55718   0.00000  Uiso   1.00
H1104  H     0.22553   0.87800   0.86162   0.00000  Uiso   1.00
H1105  H     0.18951   0.96113   0.81947   0.00000  Uiso   1.00
N1106  N     0.04760   0.83334   0.75002   0.00000  Uiso   1.00
N1107  N     0.28573   0.83331   0.75001   0.00000  Uiso   1.00
O1108  O     0.12846   0.89442   0.75001   0.00000  Uiso   1.00
O1109  O     0.20490   0.89441   0.75001   0.00000  Uiso   1.00
O1110  O     0.10947   0.83333   0.82681   0.00000  Uiso   1.00
O1111  O     0.18591   0.83332   0.82681   0.00000  Uiso   1.00
O1112  O     0.12843   0.77226   0.75000   0.00000  Uiso   1.00
O1113  O     0.20488   0.77225   0.75000   0.00000  Uiso   1.00
O1114  O     0.14742   0.83335   0.67319   0.00000  Uiso   1.00
O1115  O     0.22387   0.83334   0.67319   0.00000  Uiso   1.00
Zn1116 Zn    0.11562   0.83334   0.75000   0.00000  Uiso   1.00
Zn1117 Zn    0.21771   0.83333   0.75000   0.00000  Uiso   1.00
O1118  O     0.19134   0.71079   0.82823   0.00000  Uiso   1.00
C1119  C     0.23860   0.70335   0.82718   0.00000  Uiso   1.00
H1120  H     0.24860   0.72741   0.85216   0.00000  Uiso   1.00
H1121  H     0.24186   0.67219   0.84455   0.00000  Uiso   1.00
H1122  H     0.26419   0.70611   0.78618   0.00000  Uiso   1.00
C1123  C     0.14452   0.70983   0.66232   0.00000  Uiso   1.00
H1124  H     0.17411   0.73158   0.64246   0.00000  Uiso   1.00
H1125  H     0.14044   0.68741   0.63179   0.00000  Uiso   1.00
H1126  H     0.11101   0.72772   0.67721   0.00000  Uiso   1.00
O1127  O     0.29506   0.85733   0.89545   0.00000  Uiso   1.00
C1128  C     0.30515   0.81548   0.87817   0.00000  Uiso   1.00
H1129  H     0.01016   0.81302   0.85576   0.00000  Uiso   1.00
H1130  H     0.28450   0.80594   0.85135   0.00000  Uiso   1.00
H1131  H     0.29793   0.79308   0.91213   0.00000  Uiso   1.00
O1132  O     0.02275   0.88616   0.51742   0.00000  Uiso   1.00
C1133  C     0.01003   0.92318   0.99595   0.00000  Uiso   1.00
H1134  H     0.00529   0.91732   0.95638   0.00000  Uiso   1.00
H1135  H     0.03643   0.94875   0.99312   0.00000  Uiso   1.00
H1136  H     0.30871   0.93412   0.52303   0.00000  Uiso   1.00
C1137  C     0.50007   0.91320   0.75006   0.00000  Uiso   1.00
C1138  C     0.48407   0.86414   0.98703   0.00000  Uiso   1.00
C1139  C     0.49773   0.86277   0.93108   0.00000  Uiso   1.00
C1140  C     0.51910   0.85625   0.51223   0.00000  Uiso   1.00
C1141  C     0.56766   0.85221   0.98136   0.00000  Uiso   1.00
C1142  C     0.58125   0.85925   0.92644   0.00000  Uiso   1.00
C1143  C     0.54655   0.86778   0.90261   0.00000  Uiso   1.00
C1144  C     0.50662   0.84878   0.56681   0.00000  Uiso   1.00
C1145  C     0.58853   0.83462   0.56046   0.00000  Uiso   1.00
C1146  C     0.46212   0.85535   0.90609   0.00000  Uiso   1.00
C1147  C     0.51418   0.97831   0.78826   0.00000  Uiso   1.00
C1148  C     0.47482   0.83946   0.85085   0.00000  Uiso   1.00
C1149  C     0.51490   0.68829   0.78779   0.00000  Uiso   1.00
C1150  C     0.50055   0.70912   0.74848   0.00000  Uiso   1.00
C1151  C     0.48836   0.68758   0.70792   0.00000  Uiso   1.00
C1152  C     0.48788   0.97767   0.70934   0.00000  Uiso   1.00
C1153  C     0.50053   0.95716   0.74936   0.00000  Uiso   1.00
C1154  C     0.64623   0.79799   0.73698   0.00000  Uiso   1.00
C1155  C     0.36067   0.79798   0.73718   0.00000  Uiso   1.00
C1156  C     0.35396   0.86885   0.76230   0.00000  Uiso   1.00
C1157  C     0.63944   0.86884   0.76228   0.00000  Uiso   1.00
C1158  C     0.50014   0.75341   0.74931   0.00000  Uiso   1.00
C1159  C     0.52583   0.83368   0.64834   0.00000  Uiso   1.00
C1160  C     0.60175   0.84112   0.50586   0.00000  Uiso   1.00
C1161  C     0.54090   0.83850   0.59090   0.00000  Uiso   1.00
C1162  C     0.41439   0.86279   0.93506   0.00000  Uiso   1.00
C1163  C     0.40207   0.87533   0.98861   0.00000  Uiso   1.00
C1164  C     0.43601   0.87298   0.51515   0.00000  Uiso   1.00
H1165  H     0.61541   0.82643   0.57873   0.00000  Uiso   1.00
H1166  H     0.47845   0.95984   0.67906   0.00000  Uiso   1.00
H1167  H     0.63113   0.76966   0.72647   0.00000  Uiso   1.00
H1168  H     0.38117   0.76955   0.72724   0.00000  Uiso   1.00
H1169  H     0.36910   0.89725   0.77260   0.00000  Uiso   1.00
H1170  H     0.61880   0.89727   0.77241   0.00000  Uiso   1.00
H1171  H     0.63867   0.83709   0.98286   0.00000  Uiso   1.00
H1172  H     0.46995   0.84970   0.59119   0.00000  Uiso   1.00
H1173  H     0.38697   0.85954   0.91611   0.00000  Uiso   1.00
H1174  H     0.42419   0.88022   0.55718   0.00000  Uiso   1.00
H1175  H     0.55887   0.87800   0.86162   0.00000  Uiso   1.00
H1176  H     0.52284   0.96113   0.81947   0.00000  Uiso   1.00
N1177  N     0.38093   0.83334   0.75002   0.00000  Uiso   1.00
N1178  N     0.61906   0.83331   0.75001   0.00000  Uiso   1.00
O1179  O     0.46179   0.89442   0.75001   0.00000  Uiso   1.00
O1180  O     0.53823   0.89441   0.75001   0.00000  Uiso   1.00
O1181  O     0.44280   0.83333   0.82681   0.00000  Uiso   1.00
O1182  O     0.51924   0.83332   0.82681   0.00000  Uiso   1.00
O1183  O     0.46177   0.77226   0.75000   0.00000  Uiso   1.00
O1184  O     0.53821   0.77225   0.75000   0.00000  Uiso   1.00
O1185  O     0.48076   0.83335   0.67319   0.00000  Uiso   1.00
O1186  O     0.55720   0.83334   0.67319   0.00000  Uiso   1.00
Zn1187 Zn    0.44896   0.83334   0.75000   0.00000  Uiso   1.00
Zn1188 Zn    0.55104   0.83333   0.75000   0.00000  Uiso   1.00
O1189  O     0.52467   0.71079   0.82823   0.00000  Uiso   1.00
C1190  C     0.57193   0.70335   0.82718   0.00000  Uiso   1.00
H1191  H     0.58194   0.72741   0.85216   0.00000  Uiso   1.00
H1192  H     0.57520   0.67219   0.84455   0.00000  Uiso   1.00
H1193  H     0.59753   0.70611   0.78618   0.00000  Uiso   1.00
C1194  C     0.47785   0.70983   0.66232   0.00000  Uiso   1.00
H1195  H     0.50744   0.73158   0.64246   0.00000  Uiso   1.00
H1196  H     0.47377   0.68741   0.63179   0.00000  Uiso   1.00
H1197  H     0.44434   0.72772   0.67721   0.00000  Uiso   1.00
O1198  O     0.62839   0.85733   0.89545   0.00000  Uiso   1.00
C1199  C     0.63848   0.81548   0.87817   0.00000  Uiso   1.00
H1200  H     0.34349   0.81302   0.85576   0.00000  Uiso   1.00
H1201  H     0.61783   0.80594   0.85135   0.00000  Uiso   1.00
H1202  H     0.63126   0.79308   0.91213   0.00000  Uiso   1.00
O1203  O     0.35608   0.88616   0.51742   0.00000  Uiso   1.00
C1204  C     0.34337   0.92318   0.99595   0.00000  Uiso   1.00
H1205  H     0.33862   0.91732   0.95638   0.00000  Uiso   1.00
H1206  H     0.36977   0.94875   0.99312   0.00000  Uiso   1.00
H1207  H     0.64204   0.93412   0.52303   0.00000  Uiso   1.00
C1208  C     0.83341   0.91320   0.75006   0.00000  Uiso   1.00
C1209  C     0.81741   0.86414   0.98703   0.00000  Uiso   1.00
C1210  C     0.83106   0.86277   0.93108   0.00000  Uiso   1.00
C1211  C     0.85243   0.85625   0.51223   0.00000  Uiso   1.00
C1212  C     0.90099   0.85221   0.98136   0.00000  Uiso   1.00
C1213  C     0.91458   0.85925   0.92644   0.00000  Uiso   1.00
C1214  C     0.87989   0.86778   0.90261   0.00000  Uiso   1.00
C1215  C     0.83996   0.84878   0.56681   0.00000  Uiso   1.00
C1216  C     0.92187   0.83462   0.56046   0.00000  Uiso   1.00
C1217  C     0.79546   0.85535   0.90609   0.00000  Uiso   1.00
C1218  C     0.84751   0.97831   0.78826   0.00000  Uiso   1.00
C1219  C     0.80815   0.83946   0.85085   0.00000  Uiso   1.00
C1220  C     0.84824   0.68829   0.78779   0.00000  Uiso   1.00
C1221  C     0.83388   0.70912   0.74848   0.00000  Uiso   1.00
C1222  C     0.82169   0.68758   0.70792   0.00000  Uiso   1.00
C1223  C     0.82121   0.97767   0.70934   0.00000  Uiso   1.00
C1224  C     0.83386   0.95716   0.74936   0.00000  Uiso   1.00
C1225  C     0.97956   0.79799   0.73698   0.00000  Uiso   1.00
C1226  C     0.69400   0.79798   0.73718   0.00000  Uiso   1.00
C1227  C     0.68729   0.86885   0.76230   0.00000  Uiso   1.00
C1228  C     0.97278   0.86884   0.76228   0.00000  Uiso   1.00
C1229  C     0.83348   0.75341   0.74931   0.00000  Uiso   1.00
C1230  C     0.85917   0.83368   0.64834   0.00000  Uiso   1.00
C1231  C     0.93509   0.84112   0.50586   0.00000  Uiso   1.00
C1232  C     0.87423   0.83850   0.59090   0.00000  Uiso   1.00
C1233  C     0.74773   0.86279   0.93506   0.00000  Uiso   1.00
C1234  C     0.73540   0.87533   0.98861   0.00000  Uiso   1.00
C1235  C     0.76935   0.87298   0.51515   0.00000  Uiso   1.00
H1236  H     0.94875   0.82643   0.57873   0.00000  Uiso   1.00
H1237  H     0.81178   0.95984   0.67906   0.00000  Uiso   1.00
H1238  H     0.96446   0.76966   0.72647   0.00000  Uiso   1.00
H1239  H     0.71451   0.76955   0.72724   0.00000  Uiso   1.00
H1240  H     0.70244   0.89725   0.77260   0.00000  Uiso   1.00
H1241  H     0.95214   0.89727   0.77241   0.00000  Uiso   1.00
H1242  H     0.97201   0.83709   0.98286   0.00000  Uiso   1.00
H1243  H     0.80328   0.84970   0.59119   0.00000  Uiso   1.00
H1244  H     0.72030   0.85954   0.91611   0.00000  Uiso   1.00
H1245  H     0.75752   0.88022   0.55718   0.00000  Uiso   1.00
H1246  H     0.89220   0.87800   0.86162   0.00000  Uiso   1.00
H1247  H     0.85617   0.96113   0.81947   0.00000  Uiso   1.00
N1248  N     0.71426   0.83334   0.75002   0.00000  Uiso   1.00
N1249  N     0.95239   0.83331   0.75001   0.00000  Uiso   1.00
O1250  O     0.79512   0.89442   0.75001   0.00000  Uiso   1.00
O1251  O     0.87157   0.89441   0.75001   0.00000  Uiso   1.00
O1252  O     0.77613   0.83333   0.82681   0.00000  Uiso   1.00
O1253  O     0.85258   0.83332   0.82681   0.00000  Uiso   1.00
O1254  O     0.79510   0.77226   0.75000   0.00000  Uiso   1.00
O1255  O     0.87154   0.77225   0.75000   0.00000  Uiso   1.00
O1256  O     0.81409   0.83335   0.67319   0.00000  Uiso   1.00
O1257  O     0.89053   0.83334   0.67319   0.00000  Uiso   1.00
Zn1258 Zn    0.78229   0.83334   0.75000   0.00000  Uiso   1.00
Zn1259 Zn    0.88438   0.83333   0.75000   0.00000  Uiso   1.00
O1260  O     0.85800   0.71079   0.82823   0.00000  Uiso   1.00
C1261  C     0.90527   0.70335   0.82718   0.00000  Uiso   1.00
H1262  H     0.91527   0.72741   0.85216   0.00000  Uiso   1.00
H1263  H     0.90853   0.67219   0.84455   0.00000  Uiso   1.00
H1264  H     0.93086   0.70611   0.78618   0.00000  Uiso   1.00
C1265  C     0.81119   0.70983   0.66232   0.00000  Uiso   1.00
H1266  H     0.84078   0.73158   0.64246   0.00000  Uiso   1.00
H1267  H     0.80710   0.68741   0.63179   0.00000  Uiso   1.00
H1268  H     0.77767   0.72772   0.67721   0.00000  Uiso   1.00
O1269  O     0.96172   0.85733   0.89545   0.00000  Uiso   1.00
C1270  C     0.97182   0.81548   0.87817   0.00000  Uiso   1.00
H1271  H     0.67682   0.81302   0.85576   0.00000  Uiso   1.00
H1272  H     0.95117   0.80594   0.85135   0.00000  Uiso   1.00
H1273  H     0.96459   0.79308   0.91213   0.00000  Uiso   1.00
O1274  O     0.68941   0.88616   0.51742   0.00000  Uiso   1.00
C1275  C     0.67670   0.92318   0.99595   0.00000  Uiso   1.00
H1276  H     0.67196   0.91732   0.95638   0.00000  Uiso   1.00
H1277  H     0.70310   0.94875   0.99312   0.00000  Uiso   1.00
H1278  H     0.97538   0.93412   0.52303   0.00000  Uiso   1.00
loop_
_geom_bond_atom_site_label_1
_geom_bond_atom_site_label_2
_geom_bond_distance
_geom_bond_site_symmetry_2
_ccdc_geom_bond_type
C1     O44     1.280   .     A
C1     C17     1.402   .     S
C1     O43     1.281   .     A
C2     C3      1.405   .     A
C2     C643    1.418   .     S
C2     C667    1.414   .     S
C3     C10     1.425   .     A
C3     C7      1.415   .     A
C4     C8      1.391   .     A
C4     C641    1.418   1_554 S
C4     C644    1.421   1_554 S
C5     C6      1.396   .     A
C5     C643    1.421   .     S
C5     C663    1.403   .     S
C6     C7      1.388   .     A
C6     O62     1.382   .     S
C7     H39     1.078   .     S
C8     C25     1.394   .     A
C8     H36     1.077   .     S
C9     H29     1.083   .     S
C9     C25     1.395   .     A
C9     C24     1.385   .     A
C10    C12     1.477   .     S
C10    C26     1.403   .     A
C11    H40     1.084   .     S
C11    C17     1.388   .     A
C11    C226    1.382   .     S
C12    O45     1.308   .     A
C12    O46     1.286   .     A
C13    O53     1.388   .     S
C13    C14     1.404   .     A
C13    C437    1.382   1_545 S
C14    C22     1.412   .     S
C14    C15     1.409   .     A
C15    C58     1.510   .     S
C15    C442    1.379   1_545 S
C16    H30     1.085   .     S
C16    C17     1.389   .     A
C16    C228    1.379   .     S
C18    N42     1.366   .     A
C18    H31     1.081   .     S
C18    C90     1.416   .     S
C19    H32     1.079   .     S
C19    N41     1.367   .     A
C19    C160    1.416   1_455 S
C20    N41     1.367   .     A
C20    H33     1.081   .     S
C20    C163    1.417   1_455 S
C21    N42     1.367   .     A
C21    H34     1.081   .     S
C21    C91     1.417   .     S
C22    O48     1.281   .     A
C22    O47     1.282   .     A
C23    C25     1.448   .     S
C23    O49     1.291   .     A
C23    O50     1.293   .     A
C24    C644    1.403   1_554 S
C24    H674    1.081   1_554 S
C26    H37     1.082   .     S
C26    C27     1.403   .     A
C27    C667    1.394   .     S
C27    O706    1.382   .     S
C28    H38     1.079   .     S
C28    C641    1.414   1_554 S
C28    C666    1.394   1_554 S
H35    C663    1.081   .     S
N41    Zn51    2.014   .     S
N42    Zn52    2.014   .     S
O43    Zn51    1.983   .     S
O44    Zn52    1.985   .     S
O45    Zn51    1.977   .     S
O46    Zn52    1.951   .     S
O47    Zn51    1.985   .     S
O48    Zn52    1.983   .     S
O49    Zn51    1.951   .     S
O50    Zn52    1.977   .     S
O53    C54     1.412   .     S
C54    H56     1.111   .     S
C54    H55     1.109   .     S
C54    H57     1.114   .     S
C58    H61     1.107   .     S
C58    H59     1.111   .     S
C58    H60     1.111   .     S
O62    C63     1.413   .     S
C63    H65     1.111   .     S
C63    H66     1.113   .     S
C63    H135    1.108   .     S
H64    C205    1.108   1_455 S
O67    C666    1.382   1_554 S
O67    C707    1.411   1_554 S
C68    H70     1.114   .     S
C68    H69     1.112   .     S
C68    O706    1.411   .     S
C68    H852    1.109   1_455 S
H71    C778    1.109   1_554 S
C72    O115    1.280   .     A
C72    C88     1.402   .     S
C72    O114    1.281   .     A
C73    C74     1.405   .     A
C73    C714    1.418   .     S
C73    C738    1.414   .     S
C74    C81     1.425   .     A
C74    C78     1.415   .     A
C75    C79     1.391   .     A
C75    C712    1.418   1_554 S
C75    C715    1.421   1_554 S
C76    C77     1.396   .     A
C76    C714    1.421   .     S
C76    C734    1.403   .     S
C77    C78     1.388   .     A
C77    O133    1.382   .     S
C78    H110    1.078   .     S
C79    C96     1.394   .     A
C79    H107    1.077   .     S
C80    H100    1.083   .     S
C80    C96     1.395   .     A
C80    C95     1.385   .     A
C81    C83     1.477   .     S
C81    C97     1.403   .     A
C82    H111    1.084   .     S
C82    C88     1.388   .     A
C82    C297    1.382   .     S
C83    O116    1.308   .     A
C83    O117    1.286   .     A
C84    O124    1.388   .     S
C84    C85     1.404   .     A
C84    C508    1.382   1_545 S
C85    C93     1.412   .     S
C85    C86     1.409   .     A
C86    C129    1.510   .     S
C86    C513    1.379   1_545 S
C87    H101    1.085   .     S
C87    C88     1.389   .     A
C87    C299    1.379   .     S
C89    N113    1.366   .     A
C89    H102    1.081   .     S
C89    C161    1.416   .     S
C90    H103    1.079   .     S
C90    N112    1.367   .     A
C91    N112    1.367   .     A
C91    H104    1.081   .     S
C92    N113    1.367   .     A
C92    H105    1.081   .     S
C92    C162    1.417   .     S
C93    O119    1.281   .     A
C93    O118    1.282   .     A
C94    C96     1.448   .     S
C94    O120    1.291   .     A
C94    O121    1.293   .     A
C95    C715    1.403   1_554 S
C95    H745    1.081   1_554 S
C97    H108    1.082   .     S
C97    C98     1.403   .     A
C98    C738    1.394   .     S
C98    O777    1.382   .     S
C99    H109    1.079   .     S
C99    C712    1.414   1_554 S
C99    C737    1.394   1_554 S
H106   C734    1.081   .     S
N112   Zn122   2.014   .     S
N113   Zn123   2.014   .     S
O114   Zn122   1.983   .     S
O115   Zn123   1.985   .     S
O116   Zn122   1.977   .     S
O117   Zn123   1.951   .     S
O118   Zn122   1.985   .     S
O119   Zn123   1.983   .     S
O120   Zn122   1.951   .     S
O121   Zn123   1.977   .     S
O124   C125    1.412   .     S
C125   H127    1.111   .     S
C125   H126    1.109   .     S
C125   H128    1.114   .     S
C129   H132    1.107   .     S
C129   H130    1.111   .     S
C129   H131    1.111   .     S
O133   C134    1.413   .     S
C134   H136    1.111   .     S
C134   H137    1.113   .     S
C134   H206    1.108   .     S
O138   C737    1.382   1_554 S
O138   C778    1.411   1_554 S
C139   H141    1.114   .     S
C139   H140    1.112   .     S
C139   O777    1.411   .     S
C139   H710    1.109   .     S
H142   C849    1.109   1_554 S
C143   O186    1.280   .     A
C143   C159    1.402   .     S
C143   O185    1.281   .     A
C144   C145    1.405   .     A
C144   C785    1.418   .     S
C144   C809    1.414   .     S
C145   C152    1.425   .     A
C145   C149    1.415   .     A
C146   C150    1.391   .     A
C146   C783    1.418   1_554 S
C146   C786    1.421   1_554 S
C147   C148    1.396   .     A
C147   C785    1.421   .     S
C147   C805    1.403   .     S
C148   C149    1.388   .     A
C148   O204    1.382   .     S
C149   H181    1.078   .     S
C150   C167    1.394   .     A
C150   H178    1.077   .     S
C151   H171    1.083   .     S
C151   C167    1.395   .     A
C151   C166    1.385   .     A
C152   C154    1.477   .     S
C152   C168    1.403   .     A
C153   H182    1.084   .     S
C153   C159    1.388   .     A
C153   C368    1.382   .     S
C154   O187    1.308   .     A
C154   O188    1.286   .     A
C155   O195    1.388   .     S
C155   C156    1.404   .     A
C155   C579    1.382   1_545 S
C156   C164    1.412   .     S
C156   C157    1.409   .     A
C157   C200    1.510   .     S
C157   C584    1.379   1_545 S
C158   H172    1.085   .     S
C158   C159    1.389   .     A
C158   C370    1.379   .     S
C160   N184    1.366   .     A
C160   H173    1.081   .     S
C160   C19     1.416   1_655 S
C161   H174    1.079   .     S
C161   N183    1.367   .     A
C162   N183    1.367   .     A
C162   H175    1.081   .     S
C163   N184    1.367   .     A
C163   H176    1.081   .     S
C163   C20     1.417   1_655 S
C164   O190    1.281   .     A
C164   O189    1.282   .     A
C165   C167    1.448   .     S
C165   O191    1.291   .     A
C165   O192    1.293   .     A
C166   C786    1.403   1_554 S
C166   H816    1.081   1_554 S
C168   H179    1.082   .     S
C168   C169    1.403   .     A
C169   C809    1.394   .     S
C169   O848    1.382   .     S
C170   H180    1.079   .     S
C170   C783    1.414   1_554 S
C170   C808    1.394   1_554 S
H177   C805    1.081   .     S
N183   Zn193   2.014   .     S
N184   Zn194   2.014   .     S
O185   Zn193   1.983   .     S
O186   Zn194   1.985   .     S
O187   Zn193   1.977   .     S
O188   Zn194   1.951   .     S
O189   Zn193   1.985   .     S
O190   Zn194   1.983   .     S
O191   Zn193   1.951   .     S
O192   Zn194   1.977   .     S
O195   C196    1.412   .     S
C196   H198    1.111   .     S
C196   H197    1.109   .     S
C196   H199    1.114   .     S
C200   H203    1.107   .     S
C200   H201    1.111   .     S
C200   H202    1.111   .     S
O204   C205    1.413   .     S
C205   H207    1.111   .     S
C205   H208    1.113   .     S
C205   H64     1.108   1_655 S
O209   C808    1.382   1_554 S
O209   C849    1.411   1_554 S
C210   H212    1.114   .     S
C210   H211    1.112   .     S
C210   O848    1.411   .     S
C210   H781    1.109   .     S
H213   C707    1.109   1_654 S
C214   O257    1.280   .     A
C214   C230    1.402   .     S
C214   O256    1.281   .     A
C215   C216    1.405   .     A
C215   C856    1.418   .     S
C215   C880    1.414   .     S
C216   C223    1.425   .     A
C216   C220    1.415   .     A
C217   C221    1.391   .     A
C217   C854    1.418   1_554 S
C217   C857    1.421   1_554 S
C218   C219    1.396   .     A
C218   C856    1.421   .     S
C218   C876    1.403   .     S
C219   C220    1.388   .     A
C219   O275    1.382   .     S
C220   H252    1.078   .     S
C221   C238    1.394   .     A
C221   H249    1.077   .     S
C222   H242    1.083   .     S
C222   C238    1.395   .     A
C222   C237    1.385   .     A
C223   C225    1.477   .     S
C223   C239    1.403   .     A
C224   H253    1.084   .     S
C224   C230    1.388   .     A
C224   C439    1.382   .     S
C225   O258    1.308   .     A
C225   O259    1.286   .     A
C226   O266    1.388   .     S
C226   C227    1.404   .     A
C227   C235    1.412   .     S
C227   C228    1.409   .     A
C228   C271    1.510   .     S
C229   H243    1.085   .     S
C229   C230    1.389   .     A
C229   C441    1.379   .     S
C231   N255    1.366   .     A
C231   H244    1.081   .     S
C231   C303    1.416   .     S
C232   H245    1.079   .     S
C232   N254    1.367   .     A
C232   C373    1.416   1_455 S
C233   N254    1.367   .     A
C233   H246    1.081   .     S
C233   C376    1.417   1_455 S
C234   N255    1.367   .     A
C234   H247    1.081   .     S
C234   C304    1.417   .     S
C235   O261    1.281   .     A
C235   O260    1.282   .     A
C236   C238    1.448   .     S
C236   O262    1.291   .     A
C236   O263    1.293   .     A
C237   C857    1.403   1_554 S
C237   H887    1.081   1_554 S
C239   H250    1.082   .     S
C239   C240    1.403   .     A
C240   C880    1.394   .     S
C240   O919    1.382   .     S
C241   H251    1.079   .     S
C241   C854    1.414   1_554 S
C241   C879    1.394   1_554 S
H248   C876    1.081   .     S
N254   Zn264   2.014   .     S
N255   Zn265   2.014   .     S
O256   Zn264   1.983   .     S
O257   Zn265   1.985   .     S
O258   Zn264   1.977   .     S
O259   Zn265   1.951   .     S
O260   Zn264   1.985   .     S
O261   Zn265   1.983   .     S
O262   Zn264   1.951   .     S
O263   Zn265   1.977   .     S
O266   C267    1.412   .     S
C267   H269    1.111   .     S
C267   H268    1.109   .     S
C267   H270    1.114   .     S
C271   H274    1.107   .     S
C271   H272    1.111   .     S
C271   H273    1.111   .     S
O275   C276    1.413   .     S
C276   H278    1.111   .     S
C276   H279    1.113   .     S
C276   H348    1.108   .     S
H277   C418    1.108   1_455 S
O280   C879    1.382   1_554 S
O280   C920    1.411   1_554 S
C281   H283    1.114   .     S
C281   H282    1.112   .     S
C281   O919    1.411   .     S
C281   H1065   1.109   1_455 S
H284   C991    1.109   1_554 S
C285   O328    1.280   .     A
C285   C301    1.402   .     S
C285   O327    1.281   .     A
C286   C287    1.405   .     A
C286   C927    1.418   .     S
C286   C951    1.414   .     S
C287   C294    1.425   .     A
C287   C291    1.415   .     A
C288   C292    1.391   .     A
C288   C925    1.418   1_554 S
C288   C928    1.421   1_554 S
C289   C290    1.396   .     A
C289   C927    1.421   .     S
C289   C947    1.403   .     S
C290   C291    1.388   .     A
C290   O346    1.382   .     S
C291   H323    1.078   .     S
C292   C309    1.394   .     A
C292   H320    1.077   .     S
C293   H313    1.083   .     S
C293   C309    1.395   .     A
C293   C308    1.385   .     A
C294   C296    1.477   .     S
C294   C310    1.403   .     A
C295   H324    1.084   .     S
C295   C301    1.388   .     A
C295   C510    1.382   .     S
C296   O329    1.308   .     A
C296   O330    1.286   .     A
C297   O337    1.388   .     S
C297   C298    1.404   .     A
C298   C306    1.412   .     S
C298   C299    1.409   .     A
C299   C342    1.510   .     S
C300   H314    1.085   .     S
C300   C301    1.389   .     A
C300   C512    1.379   .     S
C302   N326    1.366   .     A
C302   H315    1.081   .     S
C302   C374    1.416   .     S
C303   H316    1.079   .     S
C303   N325    1.367   .     A
C304   N325    1.367   .     A
C304   H317    1.081   .     S
C305   N326    1.367   .     A
C305   H318    1.081   .     S
C305   C375    1.417   .     S
C306   O332    1.281   .     A
C306   O331    1.282   .     A
C307   C309    1.448   .     S
C307   O333    1.291   .     A
C307   O334    1.293   .     A
C308   C928    1.403   1_554 S
C308   H958    1.081   1_554 S
C310   H321    1.082   .     S
C310   C311    1.403   .     A
C311   C951    1.394   .     S
C311   O990    1.382   .     S
C312   H322    1.079   .     S
C312   C925    1.414   1_554 S
C312   C950    1.394   1_554 S
H319   C947    1.081   .     S
N325   Zn335   2.014   .     S
N326   Zn336   2.014   .     S
O327   Zn335   1.983   .     S
O328   Zn336   1.985   .     S
O329   Zn335   1.977   .     S
O330   Zn336   1.951   .     S
O331   Zn335   1.985   .     S
O332   Zn336   1.983   .     S
O333   Zn335   1.951   .     S
O334   Zn336   1.977   .     S
O337   C338    1.412   .     S
C338   H340    1.111   .     S
C338   H339    1.109   .     S
C338   H341    1.114   .     S
C342   H345    1.107   .     S
C342   H343    1.111   .     S
C342   H344    1.111   .     S
O346   C347    1.413   .     S
C347   H349    1.111   .     S
C347   H350    1.113   .     S
C347   H419    1.108   .     S
O351   C950    1.382   1_554 S
O351   C991    1.411   1_554 S
C352   H354    1.114   .     S
C352   H353    1.112   .     S
C352   O990    1.411   .     S
C352   H923    1.109   .     S
H355   C1062   1.109   1_554 S
C356   O399    1.280   .     A
C356   C372    1.402   .     S
C356   O398    1.281   .     A
C357   C358    1.405   .     A
C357   C998    1.418   .     S
C357   C1022   1.414   .     S
C358   C365    1.425   .     A
C358   C362    1.415   .     A
C359   C363    1.391   .     A
C359   C996    1.418   1_554 S
C359   C999    1.421   1_554 S
C360   C361    1.396   .     A
C360   C998    1.421   .     S
C360   C1018   1.403   .     S
C361   C362    1.388   .     A
C361   O417    1.382   .     S
C362   H394    1.078   .     S
C363   C380    1.394   .     A
C363   H391    1.077   .     S
C364   H384    1.083   .     S
C364   C380    1.395   .     A
C364   C379    1.385   .     A
C365   C367    1.477   .     S
C365   C381    1.403   .     A
C366   H395    1.084   .     S
C366   C372    1.388   .     A
C366   C581    1.382   .     S
C367   O400    1.308   .     A
C367   O401    1.286   .     A
C368   O408    1.388   .     S
C368   C369    1.404   .     A
C369   C377    1.412   .     S
C369   C370    1.409   .     A
C370   C413    1.510   .     S
C371   H385    1.085   .     S
C371   C372    1.389   .     A
C371   C583    1.379   .     S
C373   N397    1.366   .     A
C373   H386    1.081   .     S
C373   C232    1.416   1_655 S
C374   H387    1.079   .     S
C374   N396    1.367   .     A
C375   N396    1.367   .     A
C375   H388    1.081   .     S
C376   N397    1.367   .     A
C376   H389    1.081   .     S
C376   C233    1.417   1_655 S
C377   O403    1.281   .     A
C377   O402    1.282   .     A
C378   C380    1.448   .     S
C378   O404    1.291   .     A
C378   O405    1.293   .     A
C379   C999    1.403   1_554 S
C379   H1029   1.081   1_554 S
C381   H392    1.082   .     S
C381   C382    1.403   .     A
C382   C1022   1.394   .     S
C382   O1061   1.382   .     S
C383   H393    1.079   .     S
C383   C996    1.414   1_554 S
C383   C1021   1.394   1_554 S
H390   C1018   1.081   .     S
N396   Zn406   2.014   .     S
N397   Zn407   2.014   .     S
O398   Zn406   1.983   .     S
O399   Zn407   1.985   .     S
O400   Zn406   1.977   .     S
O401   Zn407   1.951   .     S
O402   Zn406   1.985   .     S
O403   Zn407   1.983   .     S
O404   Zn406   1.951   .     S
O405   Zn407   1.977   .     S
O408   C409    1.412   .     S
C409   H411    1.111   .     S
C409   H410    1.109   .     S
C409   H412    1.114   .     S
C413   H416    1.107   .     S
C413   H414    1.111   .     S
C413   H415    1.111   .     S
O417   C418    1.413   .     S
C418   H420    1.111   .     S
C418   H421    1.113   .     S
C418   H277    1.108   1_655 S
O422   C1021   1.382   1_554 S
O422   C1062   1.411   1_554 S
C423   H425    1.114   .     S
C423   H424    1.112   .     S
C423   O1061   1.411   .     S
C423   H994    1.109   .     S
H426   C920    1.109   1_654 S
C427   O470    1.280   .     A
C427   C443    1.402   .     S
C427   O469    1.281   .     A
C428   C429    1.405   .     A
C428   C1069   1.418   .     S
C428   C1093   1.414   .     S
C429   C436    1.425   .     A
C429   C433    1.415   .     A
C430   C434    1.391   .     A
C430   C1067   1.418   1_554 S
C430   C1070   1.421   1_554 S
C431   C432    1.396   .     A
C431   C1069   1.421   .     S
C431   C1089   1.403   .     S
C432   C433    1.388   .     A
C432   O488    1.382   .     S
C433   H465    1.078   .     S
C434   C451    1.394   .     A
C434   H462    1.077   .     S
C435   H455    1.083   .     S
C435   C451    1.395   .     A
C435   C450    1.385   .     A
C436   C438    1.477   .     S
C436   C452    1.403   .     A
C437   H466    1.084   .     S
C437   C443    1.388   .     A
C437   C13     1.382   1_565 S
C438   O471    1.308   .     A
C438   O472    1.286   .     A
C439   O479    1.388   .     S
C439   C440    1.404   .     A
C440   C448    1.412   .     S
C440   C441    1.409   .     A
C441   C484    1.510   .     S
C442   H456    1.085   .     S
C442   C443    1.389   .     A
C442   C15     1.379   1_565 S
C444   N468    1.366   .     A
C444   H457    1.081   .     S
C444   C516    1.416   .     S
C445   H458    1.079   .     S
C445   N467    1.367   .     A
C445   C586    1.416   1_455 S
C446   N467    1.367   .     A
C446   H459    1.081   .     S
C446   C589    1.417   1_455 S
C447   N468    1.367   .     A
C447   H460    1.081   .     S
C447   C517    1.417   .     S
C448   O474    1.281   .     A
C448   O473    1.282   .     A
C449   C451    1.448   .     S
C449   O475    1.291   .     A
C449   O476    1.293   .     A
C450   C1070   1.403   1_554 S
C450   H1100   1.081   1_554 S
C452   H463    1.082   .     S
C452   C453    1.403   .     A
C453   C1093   1.394   .     S
C453   O1132   1.382   .     S
C454   H464    1.079   .     S
C454   C1067   1.414   1_554 S
C454   C1092   1.394   1_554 S
H461   C1089   1.081   .     S
N467   Zn477   2.014   .     S
N468   Zn478   2.014   .     S
O469   Zn477   1.983   .     S
O470   Zn478   1.985   .     S
O471   Zn477   1.977   .     S
O472   Zn478   1.951   .     S
O473   Zn477   1.985   .     S
O474   Zn478   1.983   .     S
O475   Zn477   1.951   .     S
O476   Zn478   1.977   .     S
O479   C480    1.412   .     S
C480   H482    1.111   .     S
C480   H481    1.109   .     S
C480   H483    1.114   .     S
C484   H487    1.107   .     S
C484   H485    1.111   .     S
C484   H486    1.111   .     S
O488   C489    1.413   .     S
C489   H491    1.111   .     S
C489   H492    1.113   .     S
C489   H561    1.108   .     S
H490   C631    1.108   1_455 S
O493   C1092   1.382   1_554 S
O493   C1133   1.411   1_554 S
C494   H496    1.114   .     S
C494   H495    1.112   .     S
C494   O1132   1.411   .     S
C494   H1278   1.109   1_455 S
H497   C1204   1.109   1_554 S
C498   O541    1.280   .     A
C498   C514    1.402   .     S
C498   O540    1.281   .     A
C499   C500    1.405   .     A
C499   C1140   1.418   .     S
C499   C1164   1.414   .     S
C500   C507    1.425   .     A
C500   C504    1.415   .     A
C501   C505    1.391   .     A
C501   C1138   1.418   1_554 S
C501   C1141   1.421   1_554 S
C502   C503    1.396   .     A
C502   C1140   1.421   .     S
C502   C1160   1.403   .     S
C503   C504    1.388   .     A
C503   O559    1.382   .     S
C504   H536    1.078   .     S
C505   C522    1.394   .     A
C505   H533    1.077   .     S
C506   H526    1.083   .     S
C506   C522    1.395   .     A
C506   C521    1.385   .     A
C507   C509    1.477   .     S
C507   C523    1.403   .     A
C508   H537    1.084   .     S
C508   C514    1.388   .     A
C508   C84     1.382   1_565 S
C509   O542    1.308   .     A
C509   O543    1.286   .     A
C510   O550    1.388   .     S
C510   C511    1.404   .     A
C511   C519    1.412   .     S
C511   C512    1.409   .     A
C512   C555    1.510   .     S
C513   H527    1.085   .     S
C513   C514    1.389   .     A
C513   C86     1.379   1_565 S
C515   N539    1.366   .     A
C515   H528    1.081   .     S
C515   C587    1.416   .     S
C516   H529    1.079   .     S
C516   N538    1.367   .     A
C517   N538    1.367   .     A
C517   H530    1.081   .     S
C518   N539    1.367   .     A
C518   H531    1.081   .     S
C518   C588    1.417   .     S
C519   O545    1.281   .     A
C519   O544    1.282   .     A
C520   C522    1.448   .     S
C520   O546    1.291   .     A
C520   O547    1.293   .     A
C521   C1141   1.403   1_554 S
C521   H1171   1.081   1_554 S
C523   H534    1.082   .     S
C523   C524    1.403   .     A
C524   C1164   1.394   .     S
C524   O1203   1.382   .     S
C525   H535    1.079   .     S
C525   C1138   1.414   1_554 S
C525   C1163   1.394   1_554 S
H532   C1160   1.081   .     S
N538   Zn548   2.014   .     S
N539   Zn549   2.014   .     S
O540   Zn548   1.983   .     S
O541   Zn549   1.985   .     S
O542   Zn548   1.977   .     S
O543   Zn549   1.951   .     S
O544   Zn548   1.985   .     S
O545   Zn549   1.983   .     S
O546   Zn548   1.951   .     S
O547   Zn549   1.977   .     S
O550   C551    1.412   .     S
C551   H553    1.111   .     S
C551   H552    1.109   .     S
C551   H554    1.114   .     S
C555   H558    1.107   .     S
C555   H556    1.111   .     S
C555   H557    1.111   .     S
O559   C560    1.413   .     S
C560   H562    1.111   .     S
C560   H563    1.113   .     S
C560   H632    1.108   .     S
O564   C1163   1.382   1_554 S
O564   C1204   1.411   1_554 S
C565   H567    1.114   .     S
C565   H566    1.112   .     S
C565   O1203   1.411   .     S
C565   H1136   1.109   .     S
H568   C1275   1.109   1_554 S
C569   O612    1.280   .     A
C569   C585    1.402   .     S
C569   O611    1.281   .     A
C570   C571    1.405   .     A
C570   C1211   1.418   .     S
C570   C1235   1.414   .     S
C571   C578    1.425   .     A
C571   C575    1.415   .     A
C572   C576    1.391   .     A
C572   C1209   1.418   1_554 S
C572   C1212   1.421   1_554 S
C573   C574    1.396   .     A
C573   C1211   1.421   .     S
C573   C1231   1.403   .     S
C574   C575    1.388   .     A
C574   O630    1.382   .     S
C575   H607    1.078   .     S
C576   C593    1.394   .     A
C576   H604    1.077   .     S
C577   H597    1.083   .     S
C577   C593    1.395   .     A
C577   C592    1.385   .     A
C578   C580    1.477   .     S
C578   C594    1.403   .     A
C579   H608    1.084   .     S
C579   C585    1.388   .     A
C579   C155    1.382   1_565 S
C580   O613    1.308   .     A
C580   O614    1.286   .     A
C581   O621    1.388   .     S
C581   C582    1.404   .     A
C582   C590    1.412   .     S
C582   C583    1.409   .     A
C583   C626    1.510   .     S
C584   H598    1.085   .     S
C584   C585    1.389   .     A
C584   C157    1.379   1_565 S
C586   N610    1.366   .     A
C586   H599    1.081   .     S
C586   C445    1.416   1_655 S
C587   H600    1.079   .     S
C587   N609    1.367   .     A
C588   N609    1.367   .     A
C588   H601    1.081   .     S
C589   N610    1.367   .     A
C589   H602    1.081   .     S
C589   C446    1.417   1_655 S
C590   O616    1.281   .     A
C590   O615    1.282   .     A
C591   C593    1.448   .     S
C591   O617    1.291   .     A
C591   O618    1.293   .     A
C592   C1212   1.403   1_554 S
C592   H1242   1.081   1_554 S
C594   H605    1.082   .     S
C594   C595    1.403   .     A
C595   C1235   1.394   .     S
C595   O1274   1.382   .     S
C596   H606    1.079   .     S
C596   C1209   1.414   1_554 S
C596   C1234   1.394   1_554 S
H603   C1231   1.081   .     S
N609   Zn619   2.014   .     S
N610   Zn620   2.014   .     S
O611   Zn619   1.983   .     S
O612   Zn620   1.985   .     S
O613   Zn619   1.977   .     S
O614   Zn620   1.951   .     S
O615   Zn619   1.985   .     S
O616   Zn620   1.983   .     S
O617   Zn619   1.951   .     S
O618   Zn620   1.977   .     S
O621   C622    1.412   .     S
C622   H624    1.111   .     S
C622   H623    1.109   .     S
C622   H625    1.114   .     S
C626   H629    1.107   .     S
C626   H627    1.111   .     S
C626   H628    1.111   .     S
O630   C631    1.413   .     S
C631   H633    1.111   .     S
C631   H634    1.113   .     S
C631   H490    1.108   1_655 S
O635   C1234   1.382   1_554 S
O635   C1275   1.411   1_554 S
C636   H638    1.114   .     S
C636   H637    1.112   .     S
C636   O1274   1.411   .     S
C636   H1207   1.109   .     S
H639   C1133   1.109   1_654 S
C640   O683    1.280   .     A
C640   C656    1.402   .     S
C640   O682    1.281   .     A
C641   C642    1.405   .     A
C641   C4      1.418   1_556 S
C641   C28     1.414   1_556 S
C642   C649    1.425   .     A
C642   C646    1.415   .     A
C643   C647    1.391   .     A
C644   C645    1.396   .     A
C644   C4      1.421   1_556 S
C644   C24     1.403   1_556 S
C645   C646    1.388   .     A
C645   O701    1.382   .     S
C646   H678    1.078   .     S
C647   C664    1.394   .     A
C647   H675    1.077   .     S
C648   H668    1.083   .     S
C648   C664    1.395   .     A
C648   C663    1.385   .     A
C649   C651    1.477   .     S
C649   C665    1.403   .     A
C650   H679    1.084   .     S
C650   C656    1.388   .     A
C650   C865    1.382   .     S
C651   O684    1.308   .     A
C651   O685    1.286   .     A
C652   O692    1.388   .     S
C652   C653    1.404   .     A
C652   C1076   1.382   1_545 S
C653   C661    1.412   .     S
C653   C654    1.409   .     A
C654   C697    1.510   .     S
C654   C1081   1.379   1_545 S
C655   H669    1.085   .     S
C655   C656    1.389   .     A
C655   C867    1.379   .     S
C657   N681    1.366   .     A
C657   H670    1.081   .     S
C657   C729    1.416   .     S
C658   H671    1.079   .     S
C658   N680    1.367   .     A
C658   C799    1.416   1_455 S
C659   N680    1.367   .     A
C659   H672    1.081   .     S
C659   C802    1.417   1_455 S
C660   N681    1.367   .     A
C660   H673    1.081   .     S
C660   C730    1.417   .     S
C661   O687    1.281   .     A
C661   O686    1.282   .     A
C662   C664    1.448   .     S
C662   O688    1.291   .     A
C662   O689    1.293   .     A
C665   H676    1.082   .     S
C665   C666    1.403   .     A
C666   C28     1.394   1_556 S
C666   O67     1.382   1_556 S
C667   H677    1.079   .     S
H674   C24     1.081   1_556 S
N680   Zn690   2.014   .     S
N681   Zn691   2.014   .     S
O682   Zn690   1.983   .     S
O683   Zn691   1.985   .     S
O684   Zn690   1.977   .     S
O685   Zn691   1.951   .     S
O686   Zn690   1.985   .     S
O687   Zn691   1.983   .     S
O688   Zn690   1.951   .     S
O689   Zn691   1.977   .     S
O692   C693    1.412   .     S
C693   H695    1.111   .     S
C693   H694    1.109   .     S
C693   H696    1.114   .     S
C697   H700    1.107   .     S
C697   H698    1.111   .     S
C697   H699    1.111   .     S
O701   C702    1.413   .     S
C702   H704    1.111   .     S
C702   H705    1.113   .     S
C702   H774    1.108   .     S
H703   C844    1.108   1_455 S
C707   H709    1.114   .     S
C707   H708    1.112   .     S
C707   O67     1.411   1_556 S
C707   H213    1.109   1_456 S
C711   O754    1.280   .     A
C711   C727    1.402   .     S
C711   O753    1.281   .     A
C712   C713    1.405   .     A
C712   C75     1.418   1_556 S
C712   C99     1.414   1_556 S
C713   C720    1.425   .     A
C713   C717    1.415   .     A
C714   C718    1.391   .     A
C715   C716    1.396   .     A
C715   C75     1.421   1_556 S
C715   C95     1.403   1_556 S
C716   C717    1.388   .     A
C716   O772    1.382   .     S
C717   H749    1.078   .     S
C718   C735    1.394   .     A
C718   H746    1.077   .     S
C719   H739    1.083   .     S
C719   C735    1.395   .     A
C719   C734    1.385   .     A
C720   C722    1.477   .     S
C720   C736    1.403   .     A
C721   H750    1.084   .     S
C721   C727    1.388   .     A
C721   C936    1.382   .     S
C722   O755    1.308   .     A
C722   O756    1.286   .     A
C723   O763    1.388   .     S
C723   C724    1.404   .     A
C723   C1147   1.382   1_545 S
C724   C732    1.412   .     S
C724   C725    1.409   .     A
C725   C768    1.510   .     S
C725   C1152   1.379   1_545 S
C726   H740    1.085   .     S
C726   C727    1.389   .     A
C726   C938    1.379   .     S
C728   N752    1.366   .     A
C728   H741    1.081   .     S
C728   C800    1.416   .     S
C729   H742    1.079   .     S
C729   N751    1.367   .     A
C730   N751    1.367   .     A
C730   H743    1.081   .     S
C731   N752    1.367   .     A
C731   H744    1.081   .     S
C731   C801    1.417   .     S
C732   O758    1.281   .     A
C732   O757    1.282   .     A
C733   C735    1.448   .     S
C733   O759    1.291   .     A
C733   O760    1.293   .     A
C736   H747    1.082   .     S
C736   C737    1.403   .     A
C737   C99     1.394   1_556 S
C737   O138    1.382   1_556 S
C738   H748    1.079   .     S
H745   C95     1.081   1_556 S
N751   Zn761   2.014   .     S
N752   Zn762   2.014   .     S
O753   Zn761   1.983   .     S
O754   Zn762   1.985   .     S
O755   Zn761   1.977   .     S
O756   Zn762   1.951   .     S
O757   Zn761   1.985   .     S
O758   Zn762   1.983   .     S
O759   Zn761   1.951   .     S
O760   Zn762   1.977   .     S
O763   C764    1.412   .     S
C764   H766    1.111   .     S
C764   H765    1.109   .     S
C764   H767    1.114   .     S
C768   H771    1.107   .     S
C768   H769    1.111   .     S
C768   H770    1.111   .     S
O772   C773    1.413   .     S
C773   H775    1.111   .     S
C773   H776    1.113   .     S
C773   H845    1.108   .     S
C778   H780    1.114   .     S
C778   H779    1.112   .     S
C778   O138    1.411   1_556 S
C778   H71     1.109   1_556 S
C782   O825    1.280   .     A
C782   C798    1.402   .     S
C782   O824    1.281   .     A
C783   C784    1.405   .     A
C783   C146    1.418   1_556 S
C783   C170    1.414   1_556 S
C784   C791    1.425   .     A
C784   C788    1.415   .     A
C785   C789    1.391   .     A
C786   C787    1.396   .     A
C786   C146    1.421   1_556 S
C786   C166    1.403   1_556 S
C787   C788    1.388   .     A
C787   O843    1.382   .     S
C788   H820    1.078   .     S
C789   C806    1.394   .     A
C789   H817    1.077   .     S
C790   H810    1.083   .     S
C790   C806    1.395   .     A
C790   C805    1.385   .     A
C791   C793    1.477   .     S
C791   C807    1.403   .     A
C792   H821    1.084   .     S
C792   C798    1.388   .     A
C792   C1007   1.382   .     S
C793   O826    1.308   .     A
C793   O827    1.286   .     A
C794   O834    1.388   .     S
C794   C795    1.404   .     A
C794   C1218   1.382   1_545 S
C795   C803    1.412   .     S
C795   C796    1.409   .     A
C796   C839    1.510   .     S
C796   C1223   1.379   1_545 S
C797   H811    1.085   .     S
C797   C798    1.389   .     A
C797   C1009   1.379   .     S
C799   N823    1.366   .     A
C799   H812    1.081   .     S
C799   C658    1.416   1_655 S
C800   H813    1.079   .     S
C800   N822    1.367   .     A
C801   N822    1.367   .     A
C801   H814    1.081   .     S
C802   N823    1.367   .     A
C802   H815    1.081   .     S
C802   C659    1.417   1_655 S
C803   O829    1.281   .     A
C803   O828    1.282   .     A
C804   C806    1.448   .     S
C804   O830    1.291   .     A
C804   O831    1.293   .     A
C807   H818    1.082   .     S
C807   C808    1.403   .     A
C808   C170    1.394   1_556 S
C808   O209    1.382   1_556 S
C809   H819    1.079   .     S
H816   C166    1.081   1_556 S
N822   Zn832   2.014   .     S
N823   Zn833   2.014   .     S
O824   Zn832   1.983   .     S
O825   Zn833   1.985   .     S
O826   Zn832   1.977   .     S
O827   Zn833   1.951   .     S
O828   Zn832   1.985   .     S
O829   Zn833   1.983   .     S
O830   Zn832   1.951   .     S
O831   Zn833   1.977   .     S
O834   C835    1.412   .     S
C835   H837    1.111   .     S
C835   H836    1.109   .     S
C835   H838    1.114   .     S
C839   H842    1.107   .     S
C839   H840    1.111   .     S
C839   H841    1.111   .     S
O843   C844    1.413   .     S
C844   H846    1.111   .     S
C844   H847    1.113   .     S
C844   H703    1.108   1_655 S
C849   H851    1.114   .     S
C849   H850    1.112   .     S
C849   O209    1.411   1_556 S
C849   H142    1.109   1_556 S
H852   C68     1.109   1_655 S
C853   O896    1.280   .     A
C853   C869    1.402   .     S
C853   O895    1.281   .     A
C854   C855    1.405   .     A
C854   C217    1.418   1_556 S
C854   C241    1.414   1_556 S
C855   C862    1.425   .     A
C855   C859    1.415   .     A
C856   C860    1.391   .     A
C857   C858    1.396   .     A
C857   C217    1.421   1_556 S
C857   C237    1.403   1_556 S
C858   C859    1.388   .     A
C858   O914    1.382   .     S
C859   H891    1.078   .     S
C860   C877    1.394   .     A
C860   H888    1.077   .     S
C861   H881    1.083   .     S
C861   C877    1.395   .     A
C861   C876    1.385   .     A
C862   C864    1.477   .     S
C862   C878    1.403   .     A
C863   H892    1.084   .     S
C863   C869    1.388   .     A
C863   C1078   1.382   .     S
C864   O897    1.308   .     A
C864   O898    1.286   .     A
C865   O905    1.388   .     S
C865   C866    1.404   .     A
C866   C874    1.412   .     S
C866   C867    1.409   .     A
C867   C910    1.510   .     S
C868   H882    1.085   .     S
C868   C869    1.389   .     A
C868   C1080   1.379   .     S
C870   N894    1.366   .     A
C870   H883    1.081   .     S
C870   C942    1.416   .     S
C871   H884    1.079   .     S
C871   N893    1.367   .     A
C871   C1012   1.416   1_455 S
C872   N893    1.367   .     A
C872   H885    1.081   .     S
C872   C1015   1.417   1_455 S
C873   N894    1.367   .     A
C873   H886    1.081   .     S
C873   C943    1.417   .     S
C874   O900    1.281   .     A
C874   O899    1.282   .     A
C875   C877    1.448   .     S
C875   O901    1.291   .     A
C875   O902    1.293   .     A
C878   H889    1.082   .     S
C878   C879    1.403   .     A
C879   C241    1.394   1_556 S
C879   O280    1.382   1_556 S
C880   H890    1.079   .     S
H887   C237    1.081   1_556 S
N893   Zn903   2.014   .     S
N894   Zn904   2.014   .     S
O895   Zn903   1.983   .     S
O896   Zn904   1.985   .     S
O897   Zn903   1.977   .     S
O898   Zn904   1.951   .     S
O899   Zn903   1.985   .     S
O900   Zn904   1.983   .     S
O901   Zn903   1.951   .     S
O902   Zn904   1.977   .     S
O905   C906    1.412   .     S
C906   H908    1.111   .     S
C906   H907    1.109   .     S
C906   H909    1.114   .     S
C910   H913    1.107   .     S
C910   H911    1.111   .     S
C910   H912    1.111   .     S
O914   C915    1.413   .     S
C915   H917    1.111   .     S
C915   H918    1.113   .     S
C915   H987    1.108   .     S
H916   C1057   1.108   1_455 S
C920   H922    1.114   .     S
C920   H921    1.112   .     S
C920   O280    1.411   1_556 S
C920   H426    1.109   1_456 S
C924   O967    1.280   .     A
C924   C940    1.402   .     S
C924   O966    1.281   .     A
C925   C926    1.405   .     A
C925   C288    1.418   1_556 S
C925   C312    1.414   1_556 S
C926   C933    1.425   .     A
C926   C930    1.415   .     A
C927   C931    1.391   .     A
C928   C929    1.396   .     A
C928   C288    1.421   1_556 S
C928   C308    1.403   1_556 S
C929   C930    1.388   .     A
C929   O985    1.382   .     S
C930   H962    1.078   .     S
C931   C948    1.394   .     A
C931   H959    1.077   .     S
C932   H952    1.083   .     S
C932   C948    1.395   .     A
C932   C947    1.385   .     A
C933   C935    1.477   .     S
C933   C949    1.403   .     A
C934   H963    1.084   .     S
C934   C940    1.388   .     A
C934   C1149   1.382   .     S
C935   O968    1.308   .     A
C935   O969    1.286   .     A
C936   O976    1.388   .     S
C936   C937    1.404   .     A
C937   C945    1.412   .     S
C937   C938    1.409   .     A
C938   C981    1.510   .     S
C939   H953    1.085   .     S
C939   C940    1.389   .     A
C939   C1151   1.379   .     S
C941   N965    1.366   .     A
C941   H954    1.081   .     S
C941   C1013   1.416   .     S
C942   H955    1.079   .     S
C942   N964    1.367   .     A
C943   N964    1.367   .     A
C943   H956    1.081   .     S
C944   N965    1.367   .     A
C944   H957    1.081   .     S
C944   C1014   1.417   .     S
C945   O971    1.281   .     A
C945   O970    1.282   .     A
C946   C948    1.448   .     S
C946   O972    1.291   .     A
C946   O973    1.293   .     A
C949   H960    1.082   .     S
C949   C950    1.403   .     A
C950   C312    1.394   1_556 S
C950   O351    1.382   1_556 S
C951   H961    1.079   .     S
H958   C308    1.081   1_556 S
N964   Zn974   2.014   .     S
N965   Zn975   2.014   .     S
O966   Zn974   1.983   .     S
O967   Zn975   1.985   .     S
O968   Zn974   1.977   .     S
O969   Zn975   1.951   .     S
O970   Zn974   1.985   .     S
O971   Zn975   1.983   .     S
O972   Zn974   1.951   .     S
O973   Zn975   1.977   .     S
O976   C977    1.412   .     S
C977   H979    1.111   .     S
C977   H978    1.109   .     S
C977   H980    1.114   .     S
C981   H984    1.107   .     S
C981   H982    1.111   .     S
C981   H983    1.111   .     S
O985   C986    1.413   .     S
C986   H988    1.111   .     S
C986   H989    1.113   .     S
C986   H1058   1.108   .     S
C991   H993    1.114   .     S
C991   H992    1.112   .     S
C991   O351    1.411   1_556 S
C991   H284    1.109   1_556 S
C995   O1038   1.280   .     A
C995   C1011   1.402   .     S
C995   O1037   1.281   .     A
C996   C997    1.405   .     A
C996   C359    1.418   1_556 S
C996   C383    1.414   1_556 S
C997   C1004   1.425   .     A
C997   C1001   1.415   .     A
C998   C1002   1.391   .     A
C999   C1000   1.396   .     A
C999   C359    1.421   1_556 S
C999   C379    1.403   1_556 S
C1000  C1001   1.388   .     A
C1000  O1056   1.382   .     S
C1001  H1033   1.078   .     S
C1002  C1019   1.394   .     A
C1002  H1030   1.077   .     S
C1003  H1023   1.083   .     S
C1003  C1019   1.395   .     A
C1003  C1018   1.385   .     A
C1004  C1006   1.477   .     S
C1004  C1020   1.403   .     A
C1005  H1034   1.084   .     S
C1005  C1011   1.388   .     A
C1005  C1220   1.382   .     S
C1006  O1039   1.308   .     A
C1006  O1040   1.286   .     A
C1007  O1047   1.388   .     S
C1007  C1008   1.404   .     A
C1008  C1016   1.412   .     S
C1008  C1009   1.409   .     A
C1009  C1052   1.510   .     S
C1010  H1024   1.085   .     S
C1010  C1011   1.389   .     A
C1010  C1222   1.379   .     S
C1012  N1036   1.366   .     A
C1012  H1025   1.081   .     S
C1012  C871    1.416   1_655 S
C1013  H1026   1.079   .     S
C1013  N1035   1.367   .     A
C1014  N1035   1.367   .     A
C1014  H1027   1.081   .     S
C1015  N1036   1.367   .     A
C1015  H1028   1.081   .     S
C1015  C872    1.417   1_655 S
C1016  O1042   1.281   .     A
C1016  O1041   1.282   .     A
C1017  C1019   1.448   .     S
C1017  O1043   1.291   .     A
C1017  O1044   1.293   .     A
C1020  H1031   1.082   .     S
C1020  C1021   1.403   .     A
C1021  C383    1.394   1_556 S
C1021  O422    1.382   1_556 S
C1022  H1032   1.079   .     S
H1029  C379    1.081   1_556 S
N1035  Zn1045  2.014   .     S
N1036  Zn1046  2.014   .     S
O1037  Zn1045  1.983   .     S
O1038  Zn1046  1.985   .     S
O1039  Zn1045  1.977   .     S
O1040  Zn1046  1.951   .     S
O1041  Zn1045  1.985   .     S
O1042  Zn1046  1.983   .     S
O1043  Zn1045  1.951   .     S
O1044  Zn1046  1.977   .     S
O1047  C1048   1.412   .     S
C1048  H1050   1.111   .     S
C1048  H1049   1.109   .     S
C1048  H1051   1.114   .     S
C1052  H1055   1.107   .     S
C1052  H1053   1.111   .     S
C1052  H1054   1.111   .     S
O1056  C1057   1.413   .     S
C1057  H1059   1.111   .     S
C1057  H1060   1.113   .     S
C1057  H916    1.108   1_655 S
C1062  H1064   1.114   .     S
C1062  H1063   1.112   .     S
C1062  O422    1.411   1_556 S
C1062  H355    1.109   1_556 S
H1065  C281    1.109   1_655 S
C1066  O1109   1.280   .     A
C1066  C1082   1.402   .     S
C1066  O1108   1.281   .     A
C1067  C1068   1.405   .     A
C1067  C430    1.418   1_556 S
C1067  C454    1.414   1_556 S
C1068  C1075   1.425   .     A
C1068  C1072   1.415   .     A
C1069  C1073   1.391   .     A
C1070  C1071   1.396   .     A
C1070  C430    1.421   1_556 S
C1070  C450    1.403   1_556 S
C1071  C1072   1.388   .     A
C1071  O1127   1.382   .     S
C1072  H1104   1.078   .     S
C1073  C1090   1.394   .     A
C1073  H1101   1.077   .     S
C1074  H1094   1.083   .     S
C1074  C1090   1.395   .     A
C1074  C1089   1.385   .     A
C1075  C1077   1.477   .     S
C1075  C1091   1.403   .     A
C1076  H1105   1.084   .     S
C1076  C1082   1.388   .     A
C1076  C652    1.382   1_565 S
C1077  O1110   1.308   .     A
C1077  O1111   1.286   .     A
C1078  O1118   1.388   .     S
C1078  C1079   1.404   .     A
C1079  C1087   1.412   .     S
C1079  C1080   1.409   .     A
C1080  C1123   1.510   .     S
C1081  H1095   1.085   .     S
C1081  C1082   1.389   .     A
C1081  C654    1.379   1_565 S
C1083  N1107   1.366   .     A
C1083  H1096   1.081   .     S
C1083  C1155   1.416   .     S
C1084  H1097   1.079   .     S
C1084  N1106   1.367   .     A
C1084  C1225   1.416   1_455 S
C1085  N1106   1.367   .     A
C1085  H1098   1.081   .     S
C1085  C1228   1.417   1_455 S
C1086  N1107   1.367   .     A
C1086  H1099   1.081   .     S
C1086  C1156   1.417   .     S
C1087  O1113   1.281   .     A
C1087  O1112   1.282   .     A
C1088  C1090   1.448   .     S
C1088  O1114   1.291   .     A
C1088  O1115   1.293   .     A
C1091  H1102   1.082   .     S
C1091  C1092   1.403   .     A
C1092  C454    1.394   1_556 S
C1092  O493    1.382   1_556 S
C1093  H1103   1.079   .     S
H1100  C450    1.081   1_556 S
N1106  Zn1116  2.014   .     S
N1107  Zn1117  2.014   .     S
O1108  Zn1116  1.983   .     S
O1109  Zn1117  1.985   .     S
O1110  Zn1116  1.977   .     S
O1111  Zn1117  1.951   .     S
O1112  Zn1116  1.985   .     S
O1113  Zn1117  1.983   .     S
O1114  Zn1116  1.951   .     S
O1115  Zn1117  1.977   .     S
O1118  C1119   1.412   .     S
C1119  H1121   1.111   .     S
C1119  H1120   1.109   .     S
C1119  H1122   1.114   .     S
C1123  H1126   1.107   .     S
C1123  H1124   1.111   .     S
C1123  H1125   1.111   .     S
O1127  C1128   1.413   .     S
C1128  H1130   1.111   .     S
C1128  H1131   1.113   .     S
C1128  H1200   1.108   .     S
H1129  C1270   1.108   1_455 S
C1133  H1135   1.114   .     S
C1133  H1134   1.112   .     S
C1133  O493    1.411   1_556 S
C1133  H639    1.109   1_456 S
C1137  O1180   1.280   .     A
C1137  C1153   1.402   .     S
C1137  O1179   1.281   .     A
C1138  C1139   1.405   .     A
C1138  C501    1.418   1_556 S
C1138  C525    1.414   1_556 S
C1139  C1146   1.425   .     A
C1139  C1143   1.415   .     A
C1140  C1144   1.391   .     A
C1141  C1142   1.396   .     A
C1141  C501    1.421   1_556 S
C1141  C521    1.403   1_556 S
C1142  C1143   1.388   .     A
C1142  O1198   1.382   .     S
C1143  H1175   1.078   .     S
C1144  C1161   1.394   .     A
C1144  H1172   1.077   .     S
C1145  H1165   1.083   .     S
C1145  C1161   1.395   .     A
C1145  C1160   1.385   .     A
C1146  C1148   1.477   .     S
C1146  C1162   1.403   .     A
C1147  H1176   1.084   .     S
C1147  C1153   1.388   .     A
C1147  C723    1.382   1_565 S
C1148  O1181   1.308   .     A
C1148  O1182   1.286   .     A
C1149  O1189   1.388   .     S
C1149  C1150   1.404   .     A
C1150  C1158   1.412   .     S
C1150  C1151   1.409   .     A
C1151  C1194   1.510   .     S
C1152  H1166   1.085   .     S
C1152  C1153   1.389   .     A
C1152  C725    1.379   1_565 S
C1154  N1178   1.366   .     A
C1154  H1167   1.081   .     S
C1154  C1226   1.416   .     S
C1155  H1168   1.079   .     S
C1155  N1177   1.367   .     A
C1156  N1177   1.367   .     A
C1156  H1169   1.081   .     S
C1157  N1178   1.367   .     A
C1157  H1170   1.081   .     S
C1157  C1227   1.417   .     S
C1158  O1184   1.281   .     A
C1158  O1183   1.282   .     A
C1159  C1161   1.448   .     S
C1159  O1185   1.291   .     A
C1159  O1186   1.293   .     A
C1162  H1173   1.082   .     S
C1162  C1163   1.403   .     A
C1163  C525    1.394   1_556 S
C1163  O564    1.382   1_556 S
C1164  H1174   1.079   .     S
H1171  C521    1.081   1_556 S
N1177  Zn1187  2.014   .     S
N1178  Zn1188  2.014   .     S
O1179  Zn1187  1.983   .     S
O1180  Zn1188  1.985   .     S
O1181  Zn1187  1.977   .     S
O1182  Zn1188  1.951   .     S
O1183  Zn1187  1.985   .     S
O1184  Zn1188  1.983   .     S
O1185  Zn1187  1.951   .     S
O1186  Zn1188  1.977   .     S
O1189  C1190   1.412   .     S
C1190  H1192   1.111   .     S
C1190  H1191   1.109   .     S
C1190  H1193   1.114   .     S
C1194  H1197   1.107   .     S
C1194  H1195   1.111   .     S
C1194  H1196   1.111   .     S
O1198  C1199   1.413   .     S
C1199  H1201   1.111   .     S
C1199  H1202   1.113   .     S
C1199  H1271   1.108   .     S
C1204  H1206   1.114   .     S
C1204  H1205   1.112   .     S
C1204  O564    1.411   1_556 S
C1204  H497    1.109   1_556 S
C1208  O1251   1.280   .     A
C1208  C1224   1.402   .     S
C1208  O1250   1.281   .     A
C1209  C1210   1.405   .     A
C1209  C572    1.418   1_556 S
C1209  C596    1.414   1_556 S
C1210  C1217   1.425   .     A
C1210  C1214   1.415   .     A
C1211  C1215   1.391   .     A
C1212  C1213   1.396   .     A
C1212  C572    1.421   1_556 S
C1212  C592    1.403   1_556 S
C1213  C1214   1.388   .     A
C1213  O1269   1.382   .     S
C1214  H1246   1.078   .     S
C1215  C1232   1.394   .     A
C1215  H1243   1.077   .     S
C1216  H1236   1.083   .     S
C1216  C1232   1.395   .     A
C1216  C1231   1.385   .     A
C1217  C1219   1.477   .     S
C1217  C1233   1.403   .     A
C1218  H1247   1.084   .     S
C1218  C1224   1.388   .     A
C1218  C794    1.382   1_565 S
C1219  O1252   1.308   .     A
C1219  O1253   1.286   .     A
C1220  O1260   1.388   .     S
C1220  C1221   1.404   .     A
C1221  C1229   1.412   .     S
C1221  C1222   1.409   .     A
C1222  C1265   1.510   .     S
C1223  H1237   1.085   .     S
C1223  C1224   1.389   .     A
C1223  C796    1.379   1_565 S
C1225  N1249   1.366   .     A
C1225  H1238   1.081   .     S
C1225  C1084   1.416   1_655 S
C1226  H1239   1.079   .     S
C1226  N1248   1.367   .     A
C1227  N1248   1.367   .     A
C1227  H1240   1.081   .     S
C1228  N1249   1.367   .     A
C1228  H1241   1.081   .     S
C1228  C1085   1.417   1_655 S
C1229  O1255   1.281   .     A
C1229  O1254   1.282   .     A
C1230  C1232   1.448   .     S
C1230  O1256   1.291   .     A
C1230  O1257   1.293   .     A
C1233  H1244   1.082   .     S
C1233  C1234   1.403   .     A
C1234  C596    1.394   1_556 S
C1234  O635    1.382   1_556 S
C1235  H1245   1.079   .     S
H1242  C592    1.081   1_556 S
N1248  Zn1258  2.014   .     S
N1249  Zn1259  2.014   .     S
O1250  Zn1258  1.983   .     S
O1251  Zn1259  1.985   .     S
O1252  Zn1258  1.977   .     S
O1253  Zn1259  1.951   .     S
O1254  Zn1258  1.985   .     S
O1255  Zn1259  1.983   .     S
O1256  Zn1258  1.951   .     S
O1257  Zn1259  1.977   .     S
O1260  C1261   1.412   .     S
C1261  H1263   1.111   .     S
C1261  H1262   1.109   .     S
C1261  H1264   1.114   .     S
C1265  H1268   1.107   .     S
C1265  H1266   1.111   .     S
C1265  H1267   1.111   .     S
O1269  C1270   1.413   .     S
C1270  H1272   1.111   .     S
C1270  H1273   1.113   .     S
C1270  H1129   1.108   1_655 S
C1275  H1277   1.114   .     S
C1275  H1276   1.112   .     S
C1275  O635    1.411   1_556 S
C1275  H568    1.109   1_556 S
H1278  C494    1.109   1_655 S
