data_str_m2_o1_o16_pcu_sym.40
_audit_creation_date              2020-01-03
_audit_creation_method            'Materials Studio'
_symmetry_space_group_name_H-M    'P1'
_symmetry_Int_Tables_number       1
_symmetry_cell_setting            triclinic
loop_
_symmetry_equiv_pos_as_xyz
  x,y,z
_cell_length_a                    28.6415
_cell_length_b                    32.4507
_cell_length_c                    26.9186
_cell_angle_alpha                 91.1437
_cell_angle_beta                  72.9739
_cell_angle_gamma                 90.4728
loop_
_atom_site_label
_atom_site_type_symbol
_atom_site_fract_x
_atom_site_fract_y
_atom_site_fract_z
_atom_site_U_iso_or_equiv
_atom_site_adp_type
_atom_site_occupancy
C1     C     0.16673   0.24594   0.25030   0.00000  Uiso   1.00
C2     C     0.12350   0.16984   0.40779   0.00000  Uiso   1.00
C3     C     0.21097   0.31217   0.23931   0.00000  Uiso   1.00
C4     C     0.14026   0.16837   0.35016   0.00000  Uiso   1.00
C5     C     0.21086   0.02147   0.23909   0.00000  Uiso   1.00
C6     C     0.16644   0.04277   0.25092   0.00000  Uiso   1.00
C7     C     0.12217   0.02117   0.26375   0.00000  Uiso   1.00
C8     C     0.12228   0.31186   0.26345   0.00000  Uiso   1.00
C9     C     0.16669   0.29056   0.25103   0.00000  Uiso   1.00
C10    C     0.30272   0.19816   0.27291   0.00000  Uiso   1.00
C11    C     0.01874   0.19803   0.27333   0.00000  Uiso   1.00
C12    C     0.14761   0.16920   0.48759   0.00000  Uiso   1.00
C13    C     0.03006   0.13507   0.22618   0.00000  Uiso   1.00
C14    C     0.31390   0.13537   0.22689   0.00000  Uiso   1.00
C15    C     0.16649   0.08739   0.25029   0.00000  Uiso   1.00
C16    C     0.19246   0.16921   0.15016   0.00000  Uiso   1.00
C17    C     0.26590   0.19178   0.01173   0.00000  Uiso   1.00
C18    C     0.20588   0.17561   0.09362   0.00000  Uiso   1.00
C19    C     0.07834   0.15073   0.43494   0.00000  Uiso   1.00
C20    C     0.07173   0.13685   0.48510   0.00000  Uiso   1.00
C21    C     0.10692   0.14414   0.01001   0.00000  Uiso   1.00
C22    C     0.05832   0.09919   0.19890   0.00000  Uiso   1.00
C23    C     0.15628   0.18277   0.43608   0.00000  Uiso   1.00
C24    C     0.12199   0.20033   0.09702   0.00000  Uiso   1.00
C25    C     0.03730   0.14295   0.41294   0.00000  Uiso   1.00
C26    C     0.19709   0.24131   0.37758   0.00000  Uiso   1.00
C27    C     0.18161   0.17883   0.01478   0.00000  Uiso   1.00
C28    C     0.22891   0.19167   0.48715   0.00000  Uiso   1.00
C29    C     0.23639   0.20798   0.43774   0.00000  Uiso   1.00
C30    C     0.19767   0.20864   0.41537   0.00000  Uiso   1.00
C31    C     0.16866   0.17931   0.06914   0.00000  Uiso   1.00
C32    C     0.25486   0.18081   0.06398   0.00000  Uiso   1.00
Cu33   Cu    0.11978   0.16666   0.25000   0.00000  Uiso   1.00
Cu34   Cu    0.21355   0.16667   0.25000   0.00000  Uiso   1.00
H35    H     0.28399   0.17967   0.08205   0.00000  Uiso   1.00
H36    H     0.10225   0.12956   0.04690   0.00000  Uiso   1.00
H37    H     0.03924   0.11966   0.00500   0.00000  Uiso   1.00
H38    H     0.24562   0.29618   0.22968   0.00000  Uiso   1.00
H39    H     0.06029   0.03743   0.18799   0.00000  Uiso   1.00
H40    H     0.08814   0.25443   0.12161   0.00000  Uiso   1.00
H41    H     0.01805   0.11368   0.41945   0.00000  Uiso   1.00
H42    H     0.16590   0.24479   0.36298   0.00000  Uiso   1.00
H43    H     0.24549   0.03768   0.22923   0.00000  Uiso   1.00
H44    H     0.08756   0.03717   0.27449   0.00000  Uiso   1.00
H45    H     0.08766   0.29563   0.27336   0.00000  Uiso   1.00
H46    H     0.27972   0.22369   0.29063   0.00000  Uiso   1.00
H47    H     0.03226   0.22317   0.29227   0.00000  Uiso   1.00
H48    H     0.29947   0.11076   0.20791   0.00000  Uiso   1.00
H49    H     0.27036   0.22382   0.41935   0.00000  Uiso   1.00
H50    H     0.30296   0.20036   0.49082   0.00000  Uiso   1.00
N51    N     0.04931   0.16666   0.24998   0.00000  Uiso   1.00
N52    N     0.28402   0.16669   0.25000   0.00000  Uiso   1.00
O53    O     0.12708   0.22678   0.25001   0.00000  Uiso   1.00
O54    O     0.03887   0.05963   0.21022   0.00000  Uiso   1.00
O55    O     0.08478   0.18059   0.11630   0.00000  Uiso   1.00
O56    O     0.12144   0.24331   0.10154   0.00000  Uiso   1.00
O57    O     0.02207   0.17017   0.39120   0.00000  Uiso   1.00
O58    O     0.23021   0.26645   0.36466   0.00000  Uiso   1.00
O59    O     0.20627   0.22679   0.25001   0.00000  Uiso   1.00
O60    O     0.10775   0.16665   0.32549   0.00000  Uiso   1.00
O61    O     0.18694   0.16666   0.32549   0.00000  Uiso   1.00
O62    O     0.12706   0.10654   0.25000   0.00000  Uiso   1.00
O63    O     0.20625   0.10655   0.25000   0.00000  Uiso   1.00
O64    O     0.14640   0.16667   0.17451   0.00000  Uiso   1.00
O65    O     0.22559   0.16668   0.17451   0.00000  Uiso   1.00
O66    O     0.09615   0.10378   0.16395   0.00000  Uiso   1.00
C67    C     0.50006   0.24594   0.25030   0.00000  Uiso   1.00
C68    C     0.45684   0.16984   0.40779   0.00000  Uiso   1.00
C69    C     0.54430   0.31217   0.23931   0.00000  Uiso   1.00
C70    C     0.47359   0.16837   0.35016   0.00000  Uiso   1.00
C71    C     0.54419   0.02147   0.23909   0.00000  Uiso   1.00
C72    C     0.49978   0.04277   0.25092   0.00000  Uiso   1.00
C73    C     0.45551   0.02117   0.26375   0.00000  Uiso   1.00
C74    C     0.45561   0.31186   0.26345   0.00000  Uiso   1.00
C75    C     0.50003   0.29056   0.25103   0.00000  Uiso   1.00
C76    C     0.63606   0.19816   0.27291   0.00000  Uiso   1.00
C77    C     0.35207   0.19803   0.27333   0.00000  Uiso   1.00
C78    C     0.48094   0.16920   0.48759   0.00000  Uiso   1.00
C79    C     0.36339   0.13507   0.22618   0.00000  Uiso   1.00
C80    C     0.64723   0.13537   0.22689   0.00000  Uiso   1.00
C81    C     0.49983   0.08739   0.25029   0.00000  Uiso   1.00
C82    C     0.52579   0.16921   0.15016   0.00000  Uiso   1.00
C83    C     0.59923   0.19178   0.01173   0.00000  Uiso   1.00
C84    C     0.53921   0.17561   0.09362   0.00000  Uiso   1.00
C85    C     0.41168   0.15073   0.43494   0.00000  Uiso   1.00
C86    C     0.40506   0.13685   0.48510   0.00000  Uiso   1.00
C87    C     0.44026   0.14414   0.01001   0.00000  Uiso   1.00
C88    C     0.39166   0.09919   0.19890   0.00000  Uiso   1.00
C89    C     0.48961   0.18277   0.43608   0.00000  Uiso   1.00
C90    C     0.45532   0.20033   0.09702   0.00000  Uiso   1.00
C91    C     0.37064   0.14295   0.41294   0.00000  Uiso   1.00
C92    C     0.53042   0.24131   0.37758   0.00000  Uiso   1.00
C93    C     0.51495   0.17883   0.01478   0.00000  Uiso   1.00
C94    C     0.56224   0.19167   0.48715   0.00000  Uiso   1.00
C95    C     0.56973   0.20798   0.43774   0.00000  Uiso   1.00
C96    C     0.53101   0.20864   0.41537   0.00000  Uiso   1.00
C97    C     0.50200   0.17931   0.06914   0.00000  Uiso   1.00
C98    C     0.58819   0.18081   0.06398   0.00000  Uiso   1.00
Cu99   Cu    0.45311   0.16666   0.25000   0.00000  Uiso   1.00
Cu100  Cu    0.54689   0.16667   0.25000   0.00000  Uiso   1.00
H101   H     0.61732   0.17967   0.08205   0.00000  Uiso   1.00
H102   H     0.43558   0.12956   0.04690   0.00000  Uiso   1.00
H103   H     0.37258   0.11966   0.00500   0.00000  Uiso   1.00
H104   H     0.57896   0.29618   0.22968   0.00000  Uiso   1.00
H105   H     0.39362   0.03743   0.18799   0.00000  Uiso   1.00
H106   H     0.42147   0.25443   0.12161   0.00000  Uiso   1.00
H107   H     0.35139   0.11368   0.41945   0.00000  Uiso   1.00
H108   H     0.49924   0.24479   0.36298   0.00000  Uiso   1.00
H109   H     0.57882   0.03768   0.22923   0.00000  Uiso   1.00
H110   H     0.42090   0.03717   0.27449   0.00000  Uiso   1.00
H111   H     0.42099   0.29563   0.27336   0.00000  Uiso   1.00
H112   H     0.61306   0.22369   0.29063   0.00000  Uiso   1.00
H113   H     0.36559   0.22317   0.29227   0.00000  Uiso   1.00
H114   H     0.63280   0.11076   0.20791   0.00000  Uiso   1.00
H115   H     0.60369   0.22382   0.41935   0.00000  Uiso   1.00
H116   H     0.63629   0.20036   0.49082   0.00000  Uiso   1.00
N117   N     0.38265   0.16666   0.24998   0.00000  Uiso   1.00
N118   N     0.61735   0.16669   0.25000   0.00000  Uiso   1.00
O119   O     0.46042   0.22678   0.25001   0.00000  Uiso   1.00
O120   O     0.37221   0.05963   0.21022   0.00000  Uiso   1.00
O121   O     0.41811   0.18059   0.11630   0.00000  Uiso   1.00
O122   O     0.45477   0.24331   0.10154   0.00000  Uiso   1.00
O123   O     0.35540   0.17017   0.39120   0.00000  Uiso   1.00
O124   O     0.56354   0.26645   0.36466   0.00000  Uiso   1.00
O125   O     0.53961   0.22679   0.25001   0.00000  Uiso   1.00
O126   O     0.44108   0.16665   0.32549   0.00000  Uiso   1.00
O127   O     0.52027   0.16666   0.32549   0.00000  Uiso   1.00
O128   O     0.46039   0.10654   0.25000   0.00000  Uiso   1.00
O129   O     0.53958   0.10655   0.25000   0.00000  Uiso   1.00
O130   O     0.47973   0.16667   0.17451   0.00000  Uiso   1.00
O131   O     0.55892   0.16668   0.17451   0.00000  Uiso   1.00
O132   O     0.42948   0.10378   0.16395   0.00000  Uiso   1.00
C133   C     0.83339   0.24594   0.25030   0.00000  Uiso   1.00
C134   C     0.79017   0.16984   0.40779   0.00000  Uiso   1.00
C135   C     0.87764   0.31217   0.23931   0.00000  Uiso   1.00
C136   C     0.80692   0.16837   0.35016   0.00000  Uiso   1.00
C137   C     0.87752   0.02147   0.23909   0.00000  Uiso   1.00
C138   C     0.83311   0.04277   0.25092   0.00000  Uiso   1.00
C139   C     0.78884   0.02117   0.26375   0.00000  Uiso   1.00
C140   C     0.78894   0.31186   0.26345   0.00000  Uiso   1.00
C141   C     0.83336   0.29056   0.25103   0.00000  Uiso   1.00
C142   C     0.96939   0.19816   0.27291   0.00000  Uiso   1.00
C143   C     0.68540   0.19803   0.27333   0.00000  Uiso   1.00
C144   C     0.81428   0.16920   0.48759   0.00000  Uiso   1.00
C145   C     0.69672   0.13507   0.22618   0.00000  Uiso   1.00
C146   C     0.98056   0.13537   0.22689   0.00000  Uiso   1.00
C147   C     0.83316   0.08739   0.25029   0.00000  Uiso   1.00
C148   C     0.85912   0.16921   0.15016   0.00000  Uiso   1.00
C149   C     0.93256   0.19178   0.01173   0.00000  Uiso   1.00
C150   C     0.87255   0.17561   0.09362   0.00000  Uiso   1.00
C151   C     0.74501   0.15073   0.43494   0.00000  Uiso   1.00
C152   C     0.73840   0.13685   0.48510   0.00000  Uiso   1.00
C153   C     0.77359   0.14414   0.01001   0.00000  Uiso   1.00
C154   C     0.72499   0.09919   0.19890   0.00000  Uiso   1.00
C155   C     0.82295   0.18277   0.43608   0.00000  Uiso   1.00
C156   C     0.78865   0.20033   0.09702   0.00000  Uiso   1.00
C157   C     0.70397   0.14295   0.41294   0.00000  Uiso   1.00
C158   C     0.86376   0.24131   0.37758   0.00000  Uiso   1.00
C159   C     0.84828   0.17883   0.01478   0.00000  Uiso   1.00
C160   C     0.89557   0.19167   0.48715   0.00000  Uiso   1.00
C161   C     0.90306   0.20798   0.43774   0.00000  Uiso   1.00
C162   C     0.86434   0.20864   0.41537   0.00000  Uiso   1.00
C163   C     0.83533   0.17931   0.06914   0.00000  Uiso   1.00
C164   C     0.92153   0.18081   0.06398   0.00000  Uiso   1.00
Cu165  Cu    0.78645   0.16666   0.25000   0.00000  Uiso   1.00
Cu166  Cu    0.88022   0.16667   0.25000   0.00000  Uiso   1.00
H167   H     0.95066   0.17967   0.08205   0.00000  Uiso   1.00
H168   H     0.76891   0.12956   0.04690   0.00000  Uiso   1.00
H169   H     0.70591   0.11966   0.00500   0.00000  Uiso   1.00
H170   H     0.91229   0.29618   0.22968   0.00000  Uiso   1.00
H171   H     0.72695   0.03743   0.18799   0.00000  Uiso   1.00
H172   H     0.75480   0.25443   0.12161   0.00000  Uiso   1.00
H173   H     0.68472   0.11368   0.41945   0.00000  Uiso   1.00
H174   H     0.83257   0.24479   0.36298   0.00000  Uiso   1.00
H175   H     0.91216   0.03768   0.22923   0.00000  Uiso   1.00
H176   H     0.75423   0.03717   0.27449   0.00000  Uiso   1.00
H177   H     0.75432   0.29563   0.27336   0.00000  Uiso   1.00
H178   H     0.94639   0.22369   0.29063   0.00000  Uiso   1.00
H179   H     0.69892   0.22317   0.29227   0.00000  Uiso   1.00
H180   H     0.96613   0.11076   0.20791   0.00000  Uiso   1.00
H181   H     0.93703   0.22382   0.41935   0.00000  Uiso   1.00
H182   H     0.96963   0.20036   0.49082   0.00000  Uiso   1.00
N183   N     0.71598   0.16666   0.24998   0.00000  Uiso   1.00
N184   N     0.95069   0.16669   0.25000   0.00000  Uiso   1.00
O185   O     0.79375   0.22678   0.25001   0.00000  Uiso   1.00
O186   O     0.70554   0.05963   0.21022   0.00000  Uiso   1.00
O187   O     0.75145   0.18059   0.11630   0.00000  Uiso   1.00
O188   O     0.78810   0.24331   0.10154   0.00000  Uiso   1.00
O189   O     0.68873   0.17017   0.39120   0.00000  Uiso   1.00
O190   O     0.89688   0.26645   0.36466   0.00000  Uiso   1.00
O191   O     0.87294   0.22679   0.25001   0.00000  Uiso   1.00
O192   O     0.77441   0.16665   0.32549   0.00000  Uiso   1.00
O193   O     0.85360   0.16666   0.32549   0.00000  Uiso   1.00
O194   O     0.79373   0.10654   0.25000   0.00000  Uiso   1.00
O195   O     0.87292   0.10655   0.25000   0.00000  Uiso   1.00
O196   O     0.81306   0.16667   0.17451   0.00000  Uiso   1.00
O197   O     0.89225   0.16668   0.17451   0.00000  Uiso   1.00
O198   O     0.76281   0.10378   0.16395   0.00000  Uiso   1.00
C199   C     0.16673   0.57927   0.25030   0.00000  Uiso   1.00
C200   C     0.12350   0.50317   0.40779   0.00000  Uiso   1.00
C201   C     0.21097   0.64550   0.23931   0.00000  Uiso   1.00
C202   C     0.14026   0.50171   0.35016   0.00000  Uiso   1.00
C203   C     0.21086   0.35480   0.23909   0.00000  Uiso   1.00
C204   C     0.16644   0.37610   0.25092   0.00000  Uiso   1.00
C205   C     0.12217   0.35450   0.26375   0.00000  Uiso   1.00
C206   C     0.12228   0.64519   0.26345   0.00000  Uiso   1.00
C207   C     0.16669   0.62390   0.25103   0.00000  Uiso   1.00
C208   C     0.30272   0.53150   0.27291   0.00000  Uiso   1.00
C209   C     0.01874   0.53137   0.27333   0.00000  Uiso   1.00
C210   C     0.14761   0.50254   0.48759   0.00000  Uiso   1.00
C211   C     0.03006   0.46840   0.22618   0.00000  Uiso   1.00
C212   C     0.31390   0.46871   0.22689   0.00000  Uiso   1.00
C213   C     0.16649   0.42073   0.25029   0.00000  Uiso   1.00
C214   C     0.19246   0.50254   0.15016   0.00000  Uiso   1.00
C215   C     0.26590   0.52511   0.01173   0.00000  Uiso   1.00
C216   C     0.20588   0.50894   0.09362   0.00000  Uiso   1.00
C217   C     0.07834   0.48406   0.43494   0.00000  Uiso   1.00
C218   C     0.07173   0.47019   0.48510   0.00000  Uiso   1.00
C219   C     0.10692   0.47747   0.01001   0.00000  Uiso   1.00
C220   C     0.05832   0.43252   0.19890   0.00000  Uiso   1.00
C221   C     0.15628   0.51611   0.43608   0.00000  Uiso   1.00
C222   C     0.12199   0.53367   0.09702   0.00000  Uiso   1.00
C223   C     0.03730   0.47628   0.41294   0.00000  Uiso   1.00
C224   C     0.19709   0.57464   0.37758   0.00000  Uiso   1.00
C225   C     0.18161   0.51216   0.01478   0.00000  Uiso   1.00
C226   C     0.22891   0.52501   0.48715   0.00000  Uiso   1.00
C227   C     0.23639   0.54132   0.43774   0.00000  Uiso   1.00
C228   C     0.19767   0.54197   0.41537   0.00000  Uiso   1.00
C229   C     0.16866   0.51264   0.06914   0.00000  Uiso   1.00
C230   C     0.25486   0.51415   0.06398   0.00000  Uiso   1.00
Cu231  Cu    0.11978   0.49999   0.25000   0.00000  Uiso   1.00
Cu232  Cu    0.21355   0.50001   0.25000   0.00000  Uiso   1.00
H233   H     0.28399   0.51300   0.08205   0.00000  Uiso   1.00
H234   H     0.10225   0.46290   0.04690   0.00000  Uiso   1.00
H235   H     0.03924   0.45299   0.00500   0.00000  Uiso   1.00
H236   H     0.24562   0.62952   0.22968   0.00000  Uiso   1.00
H237   H     0.06029   0.37076   0.18799   0.00000  Uiso   1.00
H238   H     0.08814   0.58776   0.12161   0.00000  Uiso   1.00
H239   H     0.01805   0.44701   0.41945   0.00000  Uiso   1.00
H240   H     0.16590   0.57812   0.36298   0.00000  Uiso   1.00
H241   H     0.24549   0.37101   0.22923   0.00000  Uiso   1.00
H242   H     0.08756   0.37051   0.27449   0.00000  Uiso   1.00
H243   H     0.08766   0.62897   0.27336   0.00000  Uiso   1.00
H244   H     0.27972   0.55702   0.29063   0.00000  Uiso   1.00
H245   H     0.03226   0.55650   0.29227   0.00000  Uiso   1.00
H246   H     0.29947   0.44409   0.20791   0.00000  Uiso   1.00
H247   H     0.27036   0.55715   0.41935   0.00000  Uiso   1.00
H248   H     0.30296   0.53369   0.49082   0.00000  Uiso   1.00
N249   N     0.04931   0.49999   0.24998   0.00000  Uiso   1.00
N250   N     0.28402   0.50002   0.25000   0.00000  Uiso   1.00
O251   O     0.12708   0.56011   0.25001   0.00000  Uiso   1.00
O252   O     0.03887   0.39296   0.21022   0.00000  Uiso   1.00
O253   O     0.08478   0.51393   0.11630   0.00000  Uiso   1.00
O254   O     0.12144   0.57664   0.10154   0.00000  Uiso   1.00
O255   O     0.02207   0.50351   0.39120   0.00000  Uiso   1.00
O256   O     0.23021   0.59978   0.36466   0.00000  Uiso   1.00
O257   O     0.20627   0.56012   0.25001   0.00000  Uiso   1.00
O258   O     0.10775   0.49998   0.32549   0.00000  Uiso   1.00
O259   O     0.18694   0.49999   0.32549   0.00000  Uiso   1.00
O260   O     0.12706   0.43988   0.25000   0.00000  Uiso   1.00
O261   O     0.20625   0.43989   0.25000   0.00000  Uiso   1.00
O262   O     0.14640   0.50001   0.17451   0.00000  Uiso   1.00
O263   O     0.22559   0.50002   0.17451   0.00000  Uiso   1.00
O264   O     0.09615   0.43711   0.16395   0.00000  Uiso   1.00
C265   C     0.50006   0.57927   0.25030   0.00000  Uiso   1.00
C266   C     0.45684   0.50317   0.40779   0.00000  Uiso   1.00
C267   C     0.54430   0.64550   0.23931   0.00000  Uiso   1.00
C268   C     0.47359   0.50171   0.35016   0.00000  Uiso   1.00
C269   C     0.54419   0.35480   0.23909   0.00000  Uiso   1.00
C270   C     0.49978   0.37610   0.25092   0.00000  Uiso   1.00
C271   C     0.45551   0.35450   0.26375   0.00000  Uiso   1.00
C272   C     0.45561   0.64519   0.26345   0.00000  Uiso   1.00
C273   C     0.50003   0.62390   0.25103   0.00000  Uiso   1.00
C274   C     0.63606   0.53150   0.27291   0.00000  Uiso   1.00
C275   C     0.35207   0.53137   0.27333   0.00000  Uiso   1.00
C276   C     0.48094   0.50254   0.48759   0.00000  Uiso   1.00
C277   C     0.36339   0.46840   0.22618   0.00000  Uiso   1.00
C278   C     0.64723   0.46871   0.22689   0.00000  Uiso   1.00
C279   C     0.49983   0.42073   0.25029   0.00000  Uiso   1.00
C280   C     0.52579   0.50254   0.15016   0.00000  Uiso   1.00
C281   C     0.59923   0.52511   0.01173   0.00000  Uiso   1.00
C282   C     0.53921   0.50894   0.09362   0.00000  Uiso   1.00
C283   C     0.41168   0.48406   0.43494   0.00000  Uiso   1.00
C284   C     0.40506   0.47019   0.48510   0.00000  Uiso   1.00
C285   C     0.44026   0.47747   0.01001   0.00000  Uiso   1.00
C286   C     0.39166   0.43252   0.19890   0.00000  Uiso   1.00
C287   C     0.48961   0.51611   0.43608   0.00000  Uiso   1.00
C288   C     0.45532   0.53367   0.09702   0.00000  Uiso   1.00
C289   C     0.37064   0.47628   0.41294   0.00000  Uiso   1.00
C290   C     0.53042   0.57464   0.37758   0.00000  Uiso   1.00
C291   C     0.51495   0.51216   0.01478   0.00000  Uiso   1.00
C292   C     0.56224   0.52501   0.48715   0.00000  Uiso   1.00
C293   C     0.56973   0.54132   0.43774   0.00000  Uiso   1.00
C294   C     0.53101   0.54197   0.41537   0.00000  Uiso   1.00
C295   C     0.50200   0.51264   0.06914   0.00000  Uiso   1.00
C296   C     0.58819   0.51415   0.06398   0.00000  Uiso   1.00
Cu297  Cu    0.45311   0.49999   0.25000   0.00000  Uiso   1.00
Cu298  Cu    0.54689   0.50001   0.25000   0.00000  Uiso   1.00
H299   H     0.61732   0.51300   0.08205   0.00000  Uiso   1.00
H300   H     0.43558   0.46290   0.04690   0.00000  Uiso   1.00
H301   H     0.37258   0.45299   0.00500   0.00000  Uiso   1.00
H302   H     0.57896   0.62952   0.22968   0.00000  Uiso   1.00
H303   H     0.39362   0.37076   0.18799   0.00000  Uiso   1.00
H304   H     0.42147   0.58776   0.12161   0.00000  Uiso   1.00
H305   H     0.35139   0.44701   0.41945   0.00000  Uiso   1.00
H306   H     0.49924   0.57812   0.36298   0.00000  Uiso   1.00
H307   H     0.57882   0.37101   0.22923   0.00000  Uiso   1.00
H308   H     0.42090   0.37051   0.27449   0.00000  Uiso   1.00
H309   H     0.42099   0.62897   0.27336   0.00000  Uiso   1.00
H310   H     0.61306   0.55702   0.29063   0.00000  Uiso   1.00
H311   H     0.36559   0.55650   0.29227   0.00000  Uiso   1.00
H312   H     0.63280   0.44409   0.20791   0.00000  Uiso   1.00
H313   H     0.60369   0.55715   0.41935   0.00000  Uiso   1.00
H314   H     0.63629   0.53369   0.49082   0.00000  Uiso   1.00
N315   N     0.38265   0.49999   0.24998   0.00000  Uiso   1.00
N316   N     0.61735   0.50002   0.25000   0.00000  Uiso   1.00
O317   O     0.46042   0.56011   0.25001   0.00000  Uiso   1.00
O318   O     0.37221   0.39296   0.21022   0.00000  Uiso   1.00
O319   O     0.41811   0.51393   0.11630   0.00000  Uiso   1.00
O320   O     0.45477   0.57664   0.10154   0.00000  Uiso   1.00
O321   O     0.35540   0.50351   0.39120   0.00000  Uiso   1.00
O322   O     0.56354   0.59978   0.36466   0.00000  Uiso   1.00
O323   O     0.53961   0.56012   0.25001   0.00000  Uiso   1.00
O324   O     0.44108   0.49998   0.32549   0.00000  Uiso   1.00
O325   O     0.52027   0.49999   0.32549   0.00000  Uiso   1.00
O326   O     0.46039   0.43988   0.25000   0.00000  Uiso   1.00
O327   O     0.53958   0.43989   0.25000   0.00000  Uiso   1.00
O328   O     0.47973   0.50001   0.17451   0.00000  Uiso   1.00
O329   O     0.55892   0.50002   0.17451   0.00000  Uiso   1.00
O330   O     0.42948   0.43711   0.16395   0.00000  Uiso   1.00
C331   C     0.83339   0.57927   0.25030   0.00000  Uiso   1.00
C332   C     0.79017   0.50317   0.40779   0.00000  Uiso   1.00
C333   C     0.87764   0.64550   0.23931   0.00000  Uiso   1.00
C334   C     0.80692   0.50171   0.35016   0.00000  Uiso   1.00
C335   C     0.87752   0.35480   0.23909   0.00000  Uiso   1.00
C336   C     0.83311   0.37610   0.25092   0.00000  Uiso   1.00
C337   C     0.78884   0.35450   0.26375   0.00000  Uiso   1.00
C338   C     0.78894   0.64519   0.26345   0.00000  Uiso   1.00
C339   C     0.83336   0.62390   0.25103   0.00000  Uiso   1.00
C340   C     0.96939   0.53150   0.27291   0.00000  Uiso   1.00
C341   C     0.68540   0.53137   0.27333   0.00000  Uiso   1.00
C342   C     0.81428   0.50254   0.48759   0.00000  Uiso   1.00
C343   C     0.69672   0.46840   0.22618   0.00000  Uiso   1.00
C344   C     0.98056   0.46871   0.22689   0.00000  Uiso   1.00
C345   C     0.83316   0.42073   0.25029   0.00000  Uiso   1.00
C346   C     0.85912   0.50254   0.15016   0.00000  Uiso   1.00
C347   C     0.93256   0.52511   0.01173   0.00000  Uiso   1.00
C348   C     0.87255   0.50894   0.09362   0.00000  Uiso   1.00
C349   C     0.74501   0.48406   0.43494   0.00000  Uiso   1.00
C350   C     0.73840   0.47019   0.48510   0.00000  Uiso   1.00
C351   C     0.77359   0.47747   0.01001   0.00000  Uiso   1.00
C352   C     0.72499   0.43252   0.19890   0.00000  Uiso   1.00
C353   C     0.82295   0.51611   0.43608   0.00000  Uiso   1.00
C354   C     0.78865   0.53367   0.09702   0.00000  Uiso   1.00
C355   C     0.70397   0.47628   0.41294   0.00000  Uiso   1.00
C356   C     0.86376   0.57464   0.37758   0.00000  Uiso   1.00
C357   C     0.84828   0.51216   0.01478   0.00000  Uiso   1.00
C358   C     0.89557   0.52501   0.48715   0.00000  Uiso   1.00
C359   C     0.90306   0.54132   0.43774   0.00000  Uiso   1.00
C360   C     0.86434   0.54197   0.41537   0.00000  Uiso   1.00
C361   C     0.83533   0.51264   0.06914   0.00000  Uiso   1.00
C362   C     0.92153   0.51415   0.06398   0.00000  Uiso   1.00
Cu363  Cu    0.78645   0.49999   0.25000   0.00000  Uiso   1.00
Cu364  Cu    0.88022   0.50001   0.25000   0.00000  Uiso   1.00
H365   H     0.95066   0.51300   0.08205   0.00000  Uiso   1.00
H366   H     0.76891   0.46290   0.04690   0.00000  Uiso   1.00
H367   H     0.70591   0.45299   0.00500   0.00000  Uiso   1.00
H368   H     0.91229   0.62952   0.22968   0.00000  Uiso   1.00
H369   H     0.72695   0.37076   0.18799   0.00000  Uiso   1.00
H370   H     0.75480   0.58776   0.12161   0.00000  Uiso   1.00
H371   H     0.68472   0.44701   0.41945   0.00000  Uiso   1.00
H372   H     0.83257   0.57812   0.36298   0.00000  Uiso   1.00
H373   H     0.91216   0.37101   0.22923   0.00000  Uiso   1.00
H374   H     0.75423   0.37051   0.27449   0.00000  Uiso   1.00
H375   H     0.75432   0.62897   0.27336   0.00000  Uiso   1.00
H376   H     0.94639   0.55702   0.29063   0.00000  Uiso   1.00
H377   H     0.69892   0.55650   0.29227   0.00000  Uiso   1.00
H378   H     0.96613   0.44409   0.20791   0.00000  Uiso   1.00
H379   H     0.93703   0.55715   0.41935   0.00000  Uiso   1.00
H380   H     0.96963   0.53369   0.49082   0.00000  Uiso   1.00
N381   N     0.71598   0.49999   0.24998   0.00000  Uiso   1.00
N382   N     0.95069   0.50002   0.25000   0.00000  Uiso   1.00
O383   O     0.79375   0.56011   0.25001   0.00000  Uiso   1.00
O384   O     0.70554   0.39296   0.21022   0.00000  Uiso   1.00
O385   O     0.75145   0.51393   0.11630   0.00000  Uiso   1.00
O386   O     0.78810   0.57664   0.10154   0.00000  Uiso   1.00
O387   O     0.68873   0.50351   0.39120   0.00000  Uiso   1.00
O388   O     0.89688   0.59978   0.36466   0.00000  Uiso   1.00
O389   O     0.87294   0.56012   0.25001   0.00000  Uiso   1.00
O390   O     0.77441   0.49998   0.32549   0.00000  Uiso   1.00
O391   O     0.85360   0.49999   0.32549   0.00000  Uiso   1.00
O392   O     0.79373   0.43988   0.25000   0.00000  Uiso   1.00
O393   O     0.87292   0.43989   0.25000   0.00000  Uiso   1.00
O394   O     0.81306   0.50001   0.17451   0.00000  Uiso   1.00
O395   O     0.89225   0.50002   0.17451   0.00000  Uiso   1.00
O396   O     0.76281   0.43711   0.16395   0.00000  Uiso   1.00
C397   C     0.16673   0.91261   0.25030   0.00000  Uiso   1.00
C398   C     0.12350   0.83651   0.40779   0.00000  Uiso   1.00
C399   C     0.21097   0.97883   0.23931   0.00000  Uiso   1.00
C400   C     0.14026   0.83504   0.35016   0.00000  Uiso   1.00
C401   C     0.21086   0.68814   0.23909   0.00000  Uiso   1.00
C402   C     0.16644   0.70943   0.25092   0.00000  Uiso   1.00
C403   C     0.12217   0.68783   0.26375   0.00000  Uiso   1.00
C404   C     0.12228   0.97852   0.26345   0.00000  Uiso   1.00
C405   C     0.16669   0.95723   0.25103   0.00000  Uiso   1.00
C406   C     0.30272   0.86483   0.27291   0.00000  Uiso   1.00
C407   C     0.01874   0.86470   0.27333   0.00000  Uiso   1.00
C408   C     0.14761   0.83587   0.48759   0.00000  Uiso   1.00
C409   C     0.03006   0.80174   0.22618   0.00000  Uiso   1.00
C410   C     0.31390   0.80204   0.22689   0.00000  Uiso   1.00
C411   C     0.16649   0.75406   0.25029   0.00000  Uiso   1.00
C412   C     0.19246   0.83587   0.15016   0.00000  Uiso   1.00
C413   C     0.26590   0.85844   0.01173   0.00000  Uiso   1.00
C414   C     0.20588   0.84227   0.09362   0.00000  Uiso   1.00
C415   C     0.07834   0.81740   0.43494   0.00000  Uiso   1.00
C416   C     0.07173   0.80352   0.48510   0.00000  Uiso   1.00
C417   C     0.10692   0.81081   0.01001   0.00000  Uiso   1.00
C418   C     0.05832   0.76585   0.19890   0.00000  Uiso   1.00
C419   C     0.15628   0.84944   0.43608   0.00000  Uiso   1.00
C420   C     0.12199   0.86700   0.09702   0.00000  Uiso   1.00
C421   C     0.03730   0.80961   0.41294   0.00000  Uiso   1.00
C422   C     0.19709   0.90798   0.37758   0.00000  Uiso   1.00
C423   C     0.18161   0.84549   0.01478   0.00000  Uiso   1.00
C424   C     0.22891   0.85834   0.48715   0.00000  Uiso   1.00
C425   C     0.23639   0.87465   0.43774   0.00000  Uiso   1.00
C426   C     0.19767   0.87530   0.41537   0.00000  Uiso   1.00
C427   C     0.16866   0.84598   0.06914   0.00000  Uiso   1.00
C428   C     0.25486   0.84748   0.06398   0.00000  Uiso   1.00
Cu429  Cu    0.11978   0.83333   0.25000   0.00000  Uiso   1.00
Cu430  Cu    0.21355   0.83334   0.25000   0.00000  Uiso   1.00
H431   H     0.28399   0.84634   0.08205   0.00000  Uiso   1.00
H432   H     0.10225   0.79623   0.04690   0.00000  Uiso   1.00
H433   H     0.03924   0.78632   0.00500   0.00000  Uiso   1.00
H434   H     0.24562   0.96285   0.22968   0.00000  Uiso   1.00
H435   H     0.06029   0.70410   0.18799   0.00000  Uiso   1.00
H436   H     0.08814   0.92109   0.12161   0.00000  Uiso   1.00
H437   H     0.01805   0.78034   0.41945   0.00000  Uiso   1.00
H438   H     0.16590   0.91145   0.36298   0.00000  Uiso   1.00
H439   H     0.24549   0.70434   0.22923   0.00000  Uiso   1.00
H440   H     0.08756   0.70384   0.27449   0.00000  Uiso   1.00
H441   H     0.08766   0.96230   0.27336   0.00000  Uiso   1.00
H442   H     0.27972   0.89036   0.29063   0.00000  Uiso   1.00
H443   H     0.03226   0.88983   0.29227   0.00000  Uiso   1.00
H444   H     0.29947   0.77742   0.20791   0.00000  Uiso   1.00
H445   H     0.27036   0.89048   0.41935   0.00000  Uiso   1.00
H446   H     0.30296   0.86703   0.49082   0.00000  Uiso   1.00
N447   N     0.04931   0.83332   0.24998   0.00000  Uiso   1.00
N448   N     0.28402   0.83335   0.25000   0.00000  Uiso   1.00
O449   O     0.12708   0.89345   0.25001   0.00000  Uiso   1.00
O450   O     0.03887   0.72629   0.21022   0.00000  Uiso   1.00
O451   O     0.08478   0.84726   0.11630   0.00000  Uiso   1.00
O452   O     0.12144   0.90997   0.10154   0.00000  Uiso   1.00
O453   O     0.02207   0.83684   0.39120   0.00000  Uiso   1.00
O454   O     0.23021   0.93311   0.36466   0.00000  Uiso   1.00
O455   O     0.20627   0.89346   0.25001   0.00000  Uiso   1.00
O456   O     0.10775   0.83332   0.32549   0.00000  Uiso   1.00
O457   O     0.18694   0.83333   0.32549   0.00000  Uiso   1.00
O458   O     0.12706   0.77321   0.25000   0.00000  Uiso   1.00
O459   O     0.20625   0.77322   0.25000   0.00000  Uiso   1.00
O460   O     0.14640   0.83334   0.17451   0.00000  Uiso   1.00
O461   O     0.22559   0.83335   0.17451   0.00000  Uiso   1.00
O462   O     0.09615   0.77045   0.16395   0.00000  Uiso   1.00
C463   C     0.50006   0.91261   0.25030   0.00000  Uiso   1.00
C464   C     0.45684   0.83651   0.40779   0.00000  Uiso   1.00
C465   C     0.54430   0.97883   0.23931   0.00000  Uiso   1.00
C466   C     0.47359   0.83504   0.35016   0.00000  Uiso   1.00
C467   C     0.54419   0.68814   0.23909   0.00000  Uiso   1.00
C468   C     0.49978   0.70943   0.25092   0.00000  Uiso   1.00
C469   C     0.45551   0.68783   0.26375   0.00000  Uiso   1.00
C470   C     0.45561   0.97852   0.26345   0.00000  Uiso   1.00
C471   C     0.50003   0.95723   0.25103   0.00000  Uiso   1.00
C472   C     0.63606   0.86483   0.27291   0.00000  Uiso   1.00
C473   C     0.35207   0.86470   0.27333   0.00000  Uiso   1.00
C474   C     0.48094   0.83587   0.48759   0.00000  Uiso   1.00
C475   C     0.36339   0.80174   0.22618   0.00000  Uiso   1.00
C476   C     0.64723   0.80204   0.22689   0.00000  Uiso   1.00
C477   C     0.49983   0.75406   0.25029   0.00000  Uiso   1.00
C478   C     0.52579   0.83587   0.15016   0.00000  Uiso   1.00
C479   C     0.59923   0.85844   0.01173   0.00000  Uiso   1.00
C480   C     0.53921   0.84227   0.09362   0.00000  Uiso   1.00
C481   C     0.41168   0.81740   0.43494   0.00000  Uiso   1.00
C482   C     0.40506   0.80352   0.48510   0.00000  Uiso   1.00
C483   C     0.44026   0.81081   0.01001   0.00000  Uiso   1.00
C484   C     0.39166   0.76585   0.19890   0.00000  Uiso   1.00
C485   C     0.48961   0.84944   0.43608   0.00000  Uiso   1.00
C486   C     0.45532   0.86700   0.09702   0.00000  Uiso   1.00
C487   C     0.37064   0.80961   0.41294   0.00000  Uiso   1.00
C488   C     0.53042   0.90798   0.37758   0.00000  Uiso   1.00
C489   C     0.51495   0.84549   0.01478   0.00000  Uiso   1.00
C490   C     0.56224   0.85834   0.48715   0.00000  Uiso   1.00
C491   C     0.56973   0.87465   0.43774   0.00000  Uiso   1.00
C492   C     0.53101   0.87530   0.41537   0.00000  Uiso   1.00
C493   C     0.50200   0.84598   0.06914   0.00000  Uiso   1.00
C494   C     0.58819   0.84748   0.06398   0.00000  Uiso   1.00
Cu495  Cu    0.45311   0.83333   0.25000   0.00000  Uiso   1.00
Cu496  Cu    0.54689   0.83334   0.25000   0.00000  Uiso   1.00
H497   H     0.61732   0.84634   0.08205   0.00000  Uiso   1.00
H498   H     0.43558   0.79623   0.04690   0.00000  Uiso   1.00
H499   H     0.37258   0.78632   0.00500   0.00000  Uiso   1.00
H500   H     0.57896   0.96285   0.22968   0.00000  Uiso   1.00
H501   H     0.39362   0.70410   0.18799   0.00000  Uiso   1.00
H502   H     0.42147   0.92109   0.12161   0.00000  Uiso   1.00
H503   H     0.35139   0.78034   0.41945   0.00000  Uiso   1.00
H504   H     0.49924   0.91145   0.36298   0.00000  Uiso   1.00
H505   H     0.57882   0.70434   0.22923   0.00000  Uiso   1.00
H506   H     0.42090   0.70384   0.27449   0.00000  Uiso   1.00
H507   H     0.42099   0.96230   0.27336   0.00000  Uiso   1.00
H508   H     0.61306   0.89036   0.29063   0.00000  Uiso   1.00
H509   H     0.36559   0.88983   0.29227   0.00000  Uiso   1.00
H510   H     0.63280   0.77742   0.20791   0.00000  Uiso   1.00
H511   H     0.60369   0.89048   0.41935   0.00000  Uiso   1.00
H512   H     0.63629   0.86703   0.49082   0.00000  Uiso   1.00
N513   N     0.38265   0.83332   0.24998   0.00000  Uiso   1.00
N514   N     0.61735   0.83335   0.25000   0.00000  Uiso   1.00
O515   O     0.46042   0.89345   0.25001   0.00000  Uiso   1.00
O516   O     0.37221   0.72629   0.21022   0.00000  Uiso   1.00
O517   O     0.41811   0.84726   0.11630   0.00000  Uiso   1.00
O518   O     0.45477   0.90997   0.10154   0.00000  Uiso   1.00
O519   O     0.35540   0.83684   0.39120   0.00000  Uiso   1.00
O520   O     0.56354   0.93311   0.36466   0.00000  Uiso   1.00
O521   O     0.53961   0.89346   0.25001   0.00000  Uiso   1.00
O522   O     0.44108   0.83332   0.32549   0.00000  Uiso   1.00
O523   O     0.52027   0.83333   0.32549   0.00000  Uiso   1.00
O524   O     0.46039   0.77321   0.25000   0.00000  Uiso   1.00
O525   O     0.53958   0.77322   0.25000   0.00000  Uiso   1.00
O526   O     0.47973   0.83334   0.17451   0.00000  Uiso   1.00
O527   O     0.55892   0.83335   0.17451   0.00000  Uiso   1.00
O528   O     0.42948   0.77045   0.16395   0.00000  Uiso   1.00
C529   C     0.83339   0.91261   0.25030   0.00000  Uiso   1.00
C530   C     0.79017   0.83651   0.40779   0.00000  Uiso   1.00
C531   C     0.87764   0.97883   0.23931   0.00000  Uiso   1.00
C532   C     0.80692   0.83504   0.35016   0.00000  Uiso   1.00
C533   C     0.87752   0.68814   0.23909   0.00000  Uiso   1.00
C534   C     0.83311   0.70943   0.25092   0.00000  Uiso   1.00
C535   C     0.78884   0.68783   0.26375   0.00000  Uiso   1.00
C536   C     0.78894   0.97852   0.26345   0.00000  Uiso   1.00
C537   C     0.83336   0.95723   0.25103   0.00000  Uiso   1.00
C538   C     0.96939   0.86483   0.27291   0.00000  Uiso   1.00
C539   C     0.68540   0.86470   0.27333   0.00000  Uiso   1.00
C540   C     0.81428   0.83587   0.48759   0.00000  Uiso   1.00
C541   C     0.69672   0.80174   0.22618   0.00000  Uiso   1.00
C542   C     0.98056   0.80204   0.22689   0.00000  Uiso   1.00
C543   C     0.83316   0.75406   0.25029   0.00000  Uiso   1.00
C544   C     0.85912   0.83587   0.15016   0.00000  Uiso   1.00
C545   C     0.93256   0.85844   0.01173   0.00000  Uiso   1.00
C546   C     0.87255   0.84227   0.09362   0.00000  Uiso   1.00
C547   C     0.74501   0.81740   0.43494   0.00000  Uiso   1.00
C548   C     0.73840   0.80352   0.48510   0.00000  Uiso   1.00
C549   C     0.77359   0.81081   0.01001   0.00000  Uiso   1.00
C550   C     0.72499   0.76585   0.19890   0.00000  Uiso   1.00
C551   C     0.82295   0.84944   0.43608   0.00000  Uiso   1.00
C552   C     0.78865   0.86700   0.09702   0.00000  Uiso   1.00
C553   C     0.70397   0.80961   0.41294   0.00000  Uiso   1.00
C554   C     0.86376   0.90798   0.37758   0.00000  Uiso   1.00
C555   C     0.84828   0.84549   0.01478   0.00000  Uiso   1.00
C556   C     0.89557   0.85834   0.48715   0.00000  Uiso   1.00
C557   C     0.90306   0.87465   0.43774   0.00000  Uiso   1.00
C558   C     0.86434   0.87530   0.41537   0.00000  Uiso   1.00
C559   C     0.83533   0.84598   0.06914   0.00000  Uiso   1.00
C560   C     0.92153   0.84748   0.06398   0.00000  Uiso   1.00
Cu561  Cu    0.78645   0.83333   0.25000   0.00000  Uiso   1.00
Cu562  Cu    0.88022   0.83334   0.25000   0.00000  Uiso   1.00
H563   H     0.95066   0.84634   0.08205   0.00000  Uiso   1.00
H564   H     0.76891   0.79623   0.04690   0.00000  Uiso   1.00
H565   H     0.70591   0.78632   0.00500   0.00000  Uiso   1.00
H566   H     0.91229   0.96285   0.22968   0.00000  Uiso   1.00
H567   H     0.72695   0.70410   0.18799   0.00000  Uiso   1.00
H568   H     0.75480   0.92109   0.12161   0.00000  Uiso   1.00
H569   H     0.68472   0.78034   0.41945   0.00000  Uiso   1.00
H570   H     0.83257   0.91145   0.36298   0.00000  Uiso   1.00
H571   H     0.91216   0.70434   0.22923   0.00000  Uiso   1.00
H572   H     0.75423   0.70384   0.27449   0.00000  Uiso   1.00
H573   H     0.75432   0.96230   0.27336   0.00000  Uiso   1.00
H574   H     0.94639   0.89036   0.29063   0.00000  Uiso   1.00
H575   H     0.69892   0.88983   0.29227   0.00000  Uiso   1.00
H576   H     0.96613   0.77742   0.20791   0.00000  Uiso   1.00
H577   H     0.93703   0.89048   0.41935   0.00000  Uiso   1.00
H578   H     0.96963   0.86703   0.49082   0.00000  Uiso   1.00
N579   N     0.71598   0.83332   0.24998   0.00000  Uiso   1.00
N580   N     0.95069   0.83335   0.25000   0.00000  Uiso   1.00
O581   O     0.79375   0.89345   0.25001   0.00000  Uiso   1.00
O582   O     0.70554   0.72629   0.21022   0.00000  Uiso   1.00
O583   O     0.75145   0.84726   0.11630   0.00000  Uiso   1.00
O584   O     0.78810   0.90997   0.10154   0.00000  Uiso   1.00
O585   O     0.68873   0.83684   0.39120   0.00000  Uiso   1.00
O586   O     0.89688   0.93311   0.36466   0.00000  Uiso   1.00
O587   O     0.87294   0.89346   0.25001   0.00000  Uiso   1.00
O588   O     0.77441   0.83332   0.32549   0.00000  Uiso   1.00
O589   O     0.85360   0.83333   0.32549   0.00000  Uiso   1.00
O590   O     0.79373   0.77321   0.25000   0.00000  Uiso   1.00
O591   O     0.87292   0.77322   0.25000   0.00000  Uiso   1.00
O592   O     0.81306   0.83334   0.17451   0.00000  Uiso   1.00
O593   O     0.89225   0.83335   0.17451   0.00000  Uiso   1.00
O594   O     0.76281   0.77045   0.16395   0.00000  Uiso   1.00
C595   C     0.16673   0.24594   0.75030   0.00000  Uiso   1.00
C596   C     0.12350   0.16984   0.90779   0.00000  Uiso   1.00
C597   C     0.21097   0.31217   0.73931   0.00000  Uiso   1.00
C598   C     0.14026   0.16837   0.85016   0.00000  Uiso   1.00
C599   C     0.21086   0.02147   0.73909   0.00000  Uiso   1.00
C600   C     0.16644   0.04277   0.75092   0.00000  Uiso   1.00
C601   C     0.12217   0.02117   0.76375   0.00000  Uiso   1.00
C602   C     0.12228   0.31186   0.76345   0.00000  Uiso   1.00
C603   C     0.16669   0.29056   0.75103   0.00000  Uiso   1.00
C604   C     0.30272   0.19816   0.77291   0.00000  Uiso   1.00
C605   C     0.01874   0.19803   0.77333   0.00000  Uiso   1.00
C606   C     0.14761   0.16920   0.98759   0.00000  Uiso   1.00
C607   C     0.03006   0.13507   0.72618   0.00000  Uiso   1.00
C608   C     0.31390   0.13537   0.72689   0.00000  Uiso   1.00
C609   C     0.16649   0.08739   0.75029   0.00000  Uiso   1.00
C610   C     0.19246   0.16921   0.65016   0.00000  Uiso   1.00
C611   C     0.26590   0.19178   0.51173   0.00000  Uiso   1.00
C612   C     0.20588   0.17561   0.59362   0.00000  Uiso   1.00
C613   C     0.07834   0.15073   0.93494   0.00000  Uiso   1.00
C614   C     0.07173   0.13685   0.98510   0.00000  Uiso   1.00
C615   C     0.10692   0.14414   0.51001   0.00000  Uiso   1.00
C616   C     0.05832   0.09919   0.69890   0.00000  Uiso   1.00
C617   C     0.15628   0.18277   0.93608   0.00000  Uiso   1.00
C618   C     0.12199   0.20033   0.59702   0.00000  Uiso   1.00
C619   C     0.03730   0.14295   0.91294   0.00000  Uiso   1.00
C620   C     0.19709   0.24131   0.87758   0.00000  Uiso   1.00
C621   C     0.18161   0.17883   0.51478   0.00000  Uiso   1.00
C622   C     0.22891   0.19167   0.98715   0.00000  Uiso   1.00
C623   C     0.23639   0.20798   0.93774   0.00000  Uiso   1.00
C624   C     0.19767   0.20864   0.91537   0.00000  Uiso   1.00
C625   C     0.16866   0.17931   0.56914   0.00000  Uiso   1.00
C626   C     0.25486   0.18081   0.56398   0.00000  Uiso   1.00
Cu627  Cu    0.11978   0.16666   0.75000   0.00000  Uiso   1.00
Cu628  Cu    0.21355   0.16667   0.75000   0.00000  Uiso   1.00
H629   H     0.28399   0.17967   0.58205   0.00000  Uiso   1.00
H630   H     0.10225   0.12956   0.54690   0.00000  Uiso   1.00
H631   H     0.03924   0.11966   0.50500   0.00000  Uiso   1.00
H632   H     0.24562   0.29618   0.72968   0.00000  Uiso   1.00
H633   H     0.06029   0.03743   0.68799   0.00000  Uiso   1.00
H634   H     0.08814   0.25443   0.62161   0.00000  Uiso   1.00
H635   H     0.01805   0.11368   0.91945   0.00000  Uiso   1.00
H636   H     0.16590   0.24479   0.86298   0.00000  Uiso   1.00
H637   H     0.24549   0.03768   0.72923   0.00000  Uiso   1.00
H638   H     0.08756   0.03717   0.77449   0.00000  Uiso   1.00
H639   H     0.08766   0.29563   0.77336   0.00000  Uiso   1.00
H640   H     0.27972   0.22369   0.79063   0.00000  Uiso   1.00
H641   H     0.03226   0.22317   0.79227   0.00000  Uiso   1.00
H642   H     0.29947   0.11076   0.70791   0.00000  Uiso   1.00
H643   H     0.27036   0.22382   0.91935   0.00000  Uiso   1.00
H644   H     0.30296   0.20036   0.99082   0.00000  Uiso   1.00
N645   N     0.04931   0.16666   0.74998   0.00000  Uiso   1.00
N646   N     0.28402   0.16669   0.75000   0.00000  Uiso   1.00
O647   O     0.12708   0.22678   0.75001   0.00000  Uiso   1.00
O648   O     0.03887   0.05963   0.71022   0.00000  Uiso   1.00
O649   O     0.08478   0.18059   0.61630   0.00000  Uiso   1.00
O650   O     0.12144   0.24331   0.60154   0.00000  Uiso   1.00
O651   O     0.02207   0.17017   0.89120   0.00000  Uiso   1.00
O652   O     0.23021   0.26645   0.86466   0.00000  Uiso   1.00
O653   O     0.20627   0.22679   0.75001   0.00000  Uiso   1.00
O654   O     0.10775   0.16665   0.82549   0.00000  Uiso   1.00
O655   O     0.18694   0.16666   0.82549   0.00000  Uiso   1.00
O656   O     0.12706   0.10654   0.75000   0.00000  Uiso   1.00
O657   O     0.20625   0.10655   0.75000   0.00000  Uiso   1.00
O658   O     0.14640   0.16667   0.67451   0.00000  Uiso   1.00
O659   O     0.22559   0.16668   0.67451   0.00000  Uiso   1.00
O660   O     0.09615   0.10378   0.66395   0.00000  Uiso   1.00
C661   C     0.50006   0.24594   0.75030   0.00000  Uiso   1.00
C662   C     0.45684   0.16984   0.90779   0.00000  Uiso   1.00
C663   C     0.54430   0.31217   0.73931   0.00000  Uiso   1.00
C664   C     0.47359   0.16837   0.85016   0.00000  Uiso   1.00
C665   C     0.54419   0.02147   0.73909   0.00000  Uiso   1.00
C666   C     0.49978   0.04277   0.75092   0.00000  Uiso   1.00
C667   C     0.45551   0.02117   0.76375   0.00000  Uiso   1.00
C668   C     0.45561   0.31186   0.76345   0.00000  Uiso   1.00
C669   C     0.50003   0.29056   0.75103   0.00000  Uiso   1.00
C670   C     0.63606   0.19816   0.77291   0.00000  Uiso   1.00
C671   C     0.35207   0.19803   0.77333   0.00000  Uiso   1.00
C672   C     0.48094   0.16920   0.98759   0.00000  Uiso   1.00
C673   C     0.36339   0.13507   0.72618   0.00000  Uiso   1.00
C674   C     0.64723   0.13537   0.72689   0.00000  Uiso   1.00
C675   C     0.49983   0.08739   0.75029   0.00000  Uiso   1.00
C676   C     0.52579   0.16921   0.65016   0.00000  Uiso   1.00
C677   C     0.59923   0.19178   0.51173   0.00000  Uiso   1.00
C678   C     0.53921   0.17561   0.59362   0.00000  Uiso   1.00
C679   C     0.41168   0.15073   0.93494   0.00000  Uiso   1.00
C680   C     0.40506   0.13685   0.98510   0.00000  Uiso   1.00
C681   C     0.44026   0.14414   0.51001   0.00000  Uiso   1.00
C682   C     0.39166   0.09919   0.69890   0.00000  Uiso   1.00
C683   C     0.48961   0.18277   0.93608   0.00000  Uiso   1.00
C684   C     0.45532   0.20033   0.59702   0.00000  Uiso   1.00
C685   C     0.37064   0.14295   0.91294   0.00000  Uiso   1.00
C686   C     0.53042   0.24131   0.87758   0.00000  Uiso   1.00
C687   C     0.51495   0.17883   0.51478   0.00000  Uiso   1.00
C688   C     0.56224   0.19167   0.98715   0.00000  Uiso   1.00
C689   C     0.56973   0.20798   0.93774   0.00000  Uiso   1.00
C690   C     0.53101   0.20864   0.91537   0.00000  Uiso   1.00
C691   C     0.50200   0.17931   0.56914   0.00000  Uiso   1.00
C692   C     0.58819   0.18081   0.56398   0.00000  Uiso   1.00
Cu693  Cu    0.45311   0.16666   0.75000   0.00000  Uiso   1.00
Cu694  Cu    0.54689   0.16667   0.75000   0.00000  Uiso   1.00
H695   H     0.61732   0.17967   0.58205   0.00000  Uiso   1.00
H696   H     0.43558   0.12956   0.54690   0.00000  Uiso   1.00
H697   H     0.37258   0.11966   0.50500   0.00000  Uiso   1.00
H698   H     0.57896   0.29618   0.72968   0.00000  Uiso   1.00
H699   H     0.39362   0.03743   0.68799   0.00000  Uiso   1.00
H700   H     0.42147   0.25443   0.62161   0.00000  Uiso   1.00
H701   H     0.35139   0.11368   0.91945   0.00000  Uiso   1.00
H702   H     0.49924   0.24479   0.86298   0.00000  Uiso   1.00
H703   H     0.57882   0.03768   0.72923   0.00000  Uiso   1.00
H704   H     0.42090   0.03717   0.77449   0.00000  Uiso   1.00
H705   H     0.42099   0.29563   0.77336   0.00000  Uiso   1.00
H706   H     0.61306   0.22369   0.79063   0.00000  Uiso   1.00
H707   H     0.36559   0.22317   0.79227   0.00000  Uiso   1.00
H708   H     0.63280   0.11076   0.70791   0.00000  Uiso   1.00
H709   H     0.60369   0.22382   0.91935   0.00000  Uiso   1.00
H710   H     0.63629   0.20036   0.99082   0.00000  Uiso   1.00
N711   N     0.38265   0.16666   0.74998   0.00000  Uiso   1.00
N712   N     0.61735   0.16669   0.75000   0.00000  Uiso   1.00
O713   O     0.46042   0.22678   0.75001   0.00000  Uiso   1.00
O714   O     0.37221   0.05963   0.71022   0.00000  Uiso   1.00
O715   O     0.41811   0.18059   0.61630   0.00000  Uiso   1.00
O716   O     0.45477   0.24331   0.60154   0.00000  Uiso   1.00
O717   O     0.35540   0.17017   0.89120   0.00000  Uiso   1.00
O718   O     0.56354   0.26645   0.86466   0.00000  Uiso   1.00
O719   O     0.53961   0.22679   0.75001   0.00000  Uiso   1.00
O720   O     0.44108   0.16665   0.82549   0.00000  Uiso   1.00
O721   O     0.52027   0.16666   0.82549   0.00000  Uiso   1.00
O722   O     0.46039   0.10654   0.75000   0.00000  Uiso   1.00
O723   O     0.53958   0.10655   0.75000   0.00000  Uiso   1.00
O724   O     0.47973   0.16667   0.67451   0.00000  Uiso   1.00
O725   O     0.55892   0.16668   0.67451   0.00000  Uiso   1.00
O726   O     0.42948   0.10378   0.66395   0.00000  Uiso   1.00
C727   C     0.83339   0.24594   0.75030   0.00000  Uiso   1.00
C728   C     0.79017   0.16984   0.90779   0.00000  Uiso   1.00
C729   C     0.87764   0.31217   0.73931   0.00000  Uiso   1.00
C730   C     0.80692   0.16837   0.85016   0.00000  Uiso   1.00
C731   C     0.87752   0.02147   0.73909   0.00000  Uiso   1.00
C732   C     0.83311   0.04277   0.75092   0.00000  Uiso   1.00
C733   C     0.78884   0.02117   0.76375   0.00000  Uiso   1.00
C734   C     0.78894   0.31186   0.76345   0.00000  Uiso   1.00
C735   C     0.83336   0.29056   0.75103   0.00000  Uiso   1.00
C736   C     0.96939   0.19816   0.77291   0.00000  Uiso   1.00
C737   C     0.68540   0.19803   0.77333   0.00000  Uiso   1.00
C738   C     0.81428   0.16920   0.98759   0.00000  Uiso   1.00
C739   C     0.69672   0.13507   0.72618   0.00000  Uiso   1.00
C740   C     0.98056   0.13537   0.72689   0.00000  Uiso   1.00
C741   C     0.83316   0.08739   0.75029   0.00000  Uiso   1.00
C742   C     0.85912   0.16921   0.65016   0.00000  Uiso   1.00
C743   C     0.93256   0.19178   0.51173   0.00000  Uiso   1.00
C744   C     0.87255   0.17561   0.59362   0.00000  Uiso   1.00
C745   C     0.74501   0.15073   0.93494   0.00000  Uiso   1.00
C746   C     0.73840   0.13685   0.98510   0.00000  Uiso   1.00
C747   C     0.77359   0.14414   0.51001   0.00000  Uiso   1.00
C748   C     0.72499   0.09919   0.69890   0.00000  Uiso   1.00
C749   C     0.82295   0.18277   0.93608   0.00000  Uiso   1.00
C750   C     0.78865   0.20033   0.59702   0.00000  Uiso   1.00
C751   C     0.70397   0.14295   0.91294   0.00000  Uiso   1.00
C752   C     0.86376   0.24131   0.87758   0.00000  Uiso   1.00
C753   C     0.84828   0.17883   0.51478   0.00000  Uiso   1.00
C754   C     0.89557   0.19167   0.98715   0.00000  Uiso   1.00
C755   C     0.90306   0.20798   0.93774   0.00000  Uiso   1.00
C756   C     0.86434   0.20864   0.91537   0.00000  Uiso   1.00
C757   C     0.83533   0.17931   0.56914   0.00000  Uiso   1.00
C758   C     0.92153   0.18081   0.56398   0.00000  Uiso   1.00
Cu759  Cu    0.78645   0.16666   0.75000   0.00000  Uiso   1.00
Cu760  Cu    0.88022   0.16667   0.75000   0.00000  Uiso   1.00
H761   H     0.95066   0.17967   0.58205   0.00000  Uiso   1.00
H762   H     0.76891   0.12956   0.54690   0.00000  Uiso   1.00
H763   H     0.70591   0.11966   0.50500   0.00000  Uiso   1.00
H764   H     0.91229   0.29618   0.72968   0.00000  Uiso   1.00
H765   H     0.72695   0.03743   0.68799   0.00000  Uiso   1.00
H766   H     0.75480   0.25443   0.62161   0.00000  Uiso   1.00
H767   H     0.68472   0.11368   0.91945   0.00000  Uiso   1.00
H768   H     0.83257   0.24479   0.86298   0.00000  Uiso   1.00
H769   H     0.91216   0.03768   0.72923   0.00000  Uiso   1.00
H770   H     0.75423   0.03717   0.77449   0.00000  Uiso   1.00
H771   H     0.75432   0.29563   0.77336   0.00000  Uiso   1.00
H772   H     0.94639   0.22369   0.79063   0.00000  Uiso   1.00
H773   H     0.69892   0.22317   0.79227   0.00000  Uiso   1.00
H774   H     0.96613   0.11076   0.70791   0.00000  Uiso   1.00
H775   H     0.93703   0.22382   0.91935   0.00000  Uiso   1.00
H776   H     0.96963   0.20036   0.99082   0.00000  Uiso   1.00
N777   N     0.71598   0.16666   0.74998   0.00000  Uiso   1.00
N778   N     0.95069   0.16669   0.75000   0.00000  Uiso   1.00
O779   O     0.79375   0.22678   0.75001   0.00000  Uiso   1.00
O780   O     0.70554   0.05963   0.71022   0.00000  Uiso   1.00
O781   O     0.75145   0.18059   0.61630   0.00000  Uiso   1.00
O782   O     0.78810   0.24331   0.60154   0.00000  Uiso   1.00
O783   O     0.68873   0.17017   0.89120   0.00000  Uiso   1.00
O784   O     0.89688   0.26645   0.86466   0.00000  Uiso   1.00
O785   O     0.87294   0.22679   0.75001   0.00000  Uiso   1.00
O786   O     0.77441   0.16665   0.82549   0.00000  Uiso   1.00
O787   O     0.85360   0.16666   0.82549   0.00000  Uiso   1.00
O788   O     0.79373   0.10654   0.75000   0.00000  Uiso   1.00
O789   O     0.87292   0.10655   0.75000   0.00000  Uiso   1.00
O790   O     0.81306   0.16667   0.67451   0.00000  Uiso   1.00
O791   O     0.89225   0.16668   0.67451   0.00000  Uiso   1.00
O792   O     0.76281   0.10378   0.66395   0.00000  Uiso   1.00
C793   C     0.16673   0.57927   0.75030   0.00000  Uiso   1.00
C794   C     0.12350   0.50317   0.90779   0.00000  Uiso   1.00
C795   C     0.21097   0.64550   0.73931   0.00000  Uiso   1.00
C796   C     0.14026   0.50171   0.85016   0.00000  Uiso   1.00
C797   C     0.21086   0.35480   0.73909   0.00000  Uiso   1.00
C798   C     0.16644   0.37610   0.75092   0.00000  Uiso   1.00
C799   C     0.12217   0.35450   0.76375   0.00000  Uiso   1.00
C800   C     0.12228   0.64519   0.76345   0.00000  Uiso   1.00
C801   C     0.16669   0.62390   0.75103   0.00000  Uiso   1.00
C802   C     0.30272   0.53150   0.77291   0.00000  Uiso   1.00
C803   C     0.01874   0.53137   0.77333   0.00000  Uiso   1.00
C804   C     0.14761   0.50254   0.98759   0.00000  Uiso   1.00
C805   C     0.03006   0.46840   0.72618   0.00000  Uiso   1.00
C806   C     0.31390   0.46871   0.72689   0.00000  Uiso   1.00
C807   C     0.16649   0.42073   0.75029   0.00000  Uiso   1.00
C808   C     0.19246   0.50254   0.65016   0.00000  Uiso   1.00
C809   C     0.26590   0.52511   0.51173   0.00000  Uiso   1.00
C810   C     0.20588   0.50894   0.59362   0.00000  Uiso   1.00
C811   C     0.07834   0.48406   0.93494   0.00000  Uiso   1.00
C812   C     0.07173   0.47019   0.98510   0.00000  Uiso   1.00
C813   C     0.10692   0.47747   0.51001   0.00000  Uiso   1.00
C814   C     0.05832   0.43252   0.69890   0.00000  Uiso   1.00
C815   C     0.15628   0.51611   0.93608   0.00000  Uiso   1.00
C816   C     0.12199   0.53367   0.59702   0.00000  Uiso   1.00
C817   C     0.03730   0.47628   0.91294   0.00000  Uiso   1.00
C818   C     0.19709   0.57464   0.87758   0.00000  Uiso   1.00
C819   C     0.18161   0.51216   0.51478   0.00000  Uiso   1.00
C820   C     0.22891   0.52501   0.98715   0.00000  Uiso   1.00
C821   C     0.23639   0.54132   0.93774   0.00000  Uiso   1.00
C822   C     0.19767   0.54197   0.91537   0.00000  Uiso   1.00
C823   C     0.16866   0.51264   0.56914   0.00000  Uiso   1.00
C824   C     0.25486   0.51415   0.56398   0.00000  Uiso   1.00
Cu825  Cu    0.11978   0.49999   0.75000   0.00000  Uiso   1.00
Cu826  Cu    0.21355   0.50001   0.75000   0.00000  Uiso   1.00
H827   H     0.28399   0.51300   0.58205   0.00000  Uiso   1.00
H828   H     0.10225   0.46290   0.54690   0.00000  Uiso   1.00
H829   H     0.03924   0.45299   0.50500   0.00000  Uiso   1.00
H830   H     0.24562   0.62952   0.72968   0.00000  Uiso   1.00
H831   H     0.06029   0.37076   0.68799   0.00000  Uiso   1.00
H832   H     0.08814   0.58776   0.62161   0.00000  Uiso   1.00
H833   H     0.01805   0.44701   0.91945   0.00000  Uiso   1.00
H834   H     0.16590   0.57812   0.86298   0.00000  Uiso   1.00
H835   H     0.24549   0.37101   0.72923   0.00000  Uiso   1.00
H836   H     0.08756   0.37051   0.77449   0.00000  Uiso   1.00
H837   H     0.08766   0.62897   0.77336   0.00000  Uiso   1.00
H838   H     0.27972   0.55702   0.79063   0.00000  Uiso   1.00
H839   H     0.03226   0.55650   0.79227   0.00000  Uiso   1.00
H840   H     0.29947   0.44409   0.70791   0.00000  Uiso   1.00
H841   H     0.27036   0.55715   0.91935   0.00000  Uiso   1.00
H842   H     0.30296   0.53369   0.99082   0.00000  Uiso   1.00
N843   N     0.04931   0.49999   0.74998   0.00000  Uiso   1.00
N844   N     0.28402   0.50002   0.75000   0.00000  Uiso   1.00
O845   O     0.12708   0.56011   0.75001   0.00000  Uiso   1.00
O846   O     0.03887   0.39296   0.71022   0.00000  Uiso   1.00
O847   O     0.08478   0.51393   0.61630   0.00000  Uiso   1.00
O848   O     0.12144   0.57664   0.60154   0.00000  Uiso   1.00
O849   O     0.02207   0.50351   0.89120   0.00000  Uiso   1.00
O850   O     0.23021   0.59978   0.86466   0.00000  Uiso   1.00
O851   O     0.20627   0.56012   0.75001   0.00000  Uiso   1.00
O852   O     0.10775   0.49998   0.82549   0.00000  Uiso   1.00
O853   O     0.18694   0.49999   0.82549   0.00000  Uiso   1.00
O854   O     0.12706   0.43988   0.75000   0.00000  Uiso   1.00
O855   O     0.20625   0.43989   0.75000   0.00000  Uiso   1.00
O856   O     0.14640   0.50001   0.67451   0.00000  Uiso   1.00
O857   O     0.22559   0.50002   0.67451   0.00000  Uiso   1.00
O858   O     0.09615   0.43711   0.66395   0.00000  Uiso   1.00
C859   C     0.50006   0.57927   0.75030   0.00000  Uiso   1.00
C860   C     0.45684   0.50317   0.90779   0.00000  Uiso   1.00
C861   C     0.54430   0.64550   0.73931   0.00000  Uiso   1.00
C862   C     0.47359   0.50171   0.85016   0.00000  Uiso   1.00
C863   C     0.54419   0.35480   0.73909   0.00000  Uiso   1.00
C864   C     0.49978   0.37610   0.75092   0.00000  Uiso   1.00
C865   C     0.45551   0.35450   0.76375   0.00000  Uiso   1.00
C866   C     0.45561   0.64519   0.76345   0.00000  Uiso   1.00
C867   C     0.50003   0.62390   0.75103   0.00000  Uiso   1.00
C868   C     0.63606   0.53150   0.77291   0.00000  Uiso   1.00
C869   C     0.35207   0.53137   0.77333   0.00000  Uiso   1.00
C870   C     0.48094   0.50254   0.98759   0.00000  Uiso   1.00
C871   C     0.36339   0.46840   0.72618   0.00000  Uiso   1.00
C872   C     0.64723   0.46871   0.72689   0.00000  Uiso   1.00
C873   C     0.49983   0.42073   0.75029   0.00000  Uiso   1.00
C874   C     0.52579   0.50254   0.65016   0.00000  Uiso   1.00
C875   C     0.59923   0.52511   0.51173   0.00000  Uiso   1.00
C876   C     0.53921   0.50894   0.59362   0.00000  Uiso   1.00
C877   C     0.41168   0.48406   0.93494   0.00000  Uiso   1.00
C878   C     0.40506   0.47019   0.98510   0.00000  Uiso   1.00
C879   C     0.44026   0.47747   0.51001   0.00000  Uiso   1.00
C880   C     0.39166   0.43252   0.69890   0.00000  Uiso   1.00
C881   C     0.48961   0.51611   0.93608   0.00000  Uiso   1.00
C882   C     0.45532   0.53367   0.59702   0.00000  Uiso   1.00
C883   C     0.37064   0.47628   0.91294   0.00000  Uiso   1.00
C884   C     0.53042   0.57464   0.87758   0.00000  Uiso   1.00
C885   C     0.51495   0.51216   0.51478   0.00000  Uiso   1.00
C886   C     0.56224   0.52501   0.98715   0.00000  Uiso   1.00
C887   C     0.56973   0.54132   0.93774   0.00000  Uiso   1.00
C888   C     0.53101   0.54197   0.91537   0.00000  Uiso   1.00
C889   C     0.50200   0.51264   0.56914   0.00000  Uiso   1.00
C890   C     0.58819   0.51415   0.56398   0.00000  Uiso   1.00
Cu891  Cu    0.45311   0.49999   0.75000   0.00000  Uiso   1.00
Cu892  Cu    0.54689   0.50001   0.75000   0.00000  Uiso   1.00
H893   H     0.61732   0.51300   0.58205   0.00000  Uiso   1.00
H894   H     0.43558   0.46290   0.54690   0.00000  Uiso   1.00
H895   H     0.37258   0.45299   0.50500   0.00000  Uiso   1.00
H896   H     0.57896   0.62952   0.72968   0.00000  Uiso   1.00
H897   H     0.39362   0.37076   0.68799   0.00000  Uiso   1.00
H898   H     0.42147   0.58776   0.62161   0.00000  Uiso   1.00
H899   H     0.35139   0.44701   0.91945   0.00000  Uiso   1.00
H900   H     0.49924   0.57812   0.86298   0.00000  Uiso   1.00
H901   H     0.57882   0.37101   0.72923   0.00000  Uiso   1.00
H902   H     0.42090   0.37051   0.77449   0.00000  Uiso   1.00
H903   H     0.42099   0.62897   0.77336   0.00000  Uiso   1.00
H904   H     0.61306   0.55702   0.79063   0.00000  Uiso   1.00
H905   H     0.36559   0.55650   0.79227   0.00000  Uiso   1.00
H906   H     0.63280   0.44409   0.70791   0.00000  Uiso   1.00
H907   H     0.60369   0.55715   0.91935   0.00000  Uiso   1.00
H908   H     0.63629   0.53369   0.99082   0.00000  Uiso   1.00
N909   N     0.38265   0.49999   0.74998   0.00000  Uiso   1.00
N910   N     0.61735   0.50002   0.75000   0.00000  Uiso   1.00
O911   O     0.46042   0.56011   0.75001   0.00000  Uiso   1.00
O912   O     0.37221   0.39296   0.71022   0.00000  Uiso   1.00
O913   O     0.41811   0.51393   0.61630   0.00000  Uiso   1.00
O914   O     0.45477   0.57664   0.60154   0.00000  Uiso   1.00
O915   O     0.35540   0.50351   0.89120   0.00000  Uiso   1.00
O916   O     0.56354   0.59978   0.86466   0.00000  Uiso   1.00
O917   O     0.53961   0.56012   0.75001   0.00000  Uiso   1.00
O918   O     0.44108   0.49998   0.82549   0.00000  Uiso   1.00
O919   O     0.52027   0.49999   0.82549   0.00000  Uiso   1.00
O920   O     0.46039   0.43988   0.75000   0.00000  Uiso   1.00
O921   O     0.53958   0.43989   0.75000   0.00000  Uiso   1.00
O922   O     0.47973   0.50001   0.67451   0.00000  Uiso   1.00
O923   O     0.55892   0.50002   0.67451   0.00000  Uiso   1.00
O924   O     0.42948   0.43711   0.66395   0.00000  Uiso   1.00
C925   C     0.83339   0.57927   0.75030   0.00000  Uiso   1.00
C926   C     0.79017   0.50317   0.90779   0.00000  Uiso   1.00
C927   C     0.87764   0.64550   0.73931   0.00000  Uiso   1.00
C928   C     0.80692   0.50171   0.85016   0.00000  Uiso   1.00
C929   C     0.87752   0.35480   0.73909   0.00000  Uiso   1.00
C930   C     0.83311   0.37610   0.75092   0.00000  Uiso   1.00
C931   C     0.78884   0.35450   0.76375   0.00000  Uiso   1.00
C932   C     0.78894   0.64519   0.76345   0.00000  Uiso   1.00
C933   C     0.83336   0.62390   0.75103   0.00000  Uiso   1.00
C934   C     0.96939   0.53150   0.77291   0.00000  Uiso   1.00
C935   C     0.68540   0.53137   0.77333   0.00000  Uiso   1.00
C936   C     0.81428   0.50254   0.98759   0.00000  Uiso   1.00
C937   C     0.69672   0.46840   0.72618   0.00000  Uiso   1.00
C938   C     0.98056   0.46871   0.72689   0.00000  Uiso   1.00
C939   C     0.83316   0.42073   0.75029   0.00000  Uiso   1.00
C940   C     0.85912   0.50254   0.65016   0.00000  Uiso   1.00
C941   C     0.93256   0.52511   0.51173   0.00000  Uiso   1.00
C942   C     0.87255   0.50894   0.59362   0.00000  Uiso   1.00
C943   C     0.74501   0.48406   0.93494   0.00000  Uiso   1.00
C944   C     0.73840   0.47019   0.98510   0.00000  Uiso   1.00
C945   C     0.77359   0.47747   0.51001   0.00000  Uiso   1.00
C946   C     0.72499   0.43252   0.69890   0.00000  Uiso   1.00
C947   C     0.82295   0.51611   0.93608   0.00000  Uiso   1.00
C948   C     0.78865   0.53367   0.59702   0.00000  Uiso   1.00
C949   C     0.70397   0.47628   0.91294   0.00000  Uiso   1.00
C950   C     0.86376   0.57464   0.87758   0.00000  Uiso   1.00
C951   C     0.84828   0.51216   0.51478   0.00000  Uiso   1.00
C952   C     0.89557   0.52501   0.98715   0.00000  Uiso   1.00
C953   C     0.90306   0.54132   0.93774   0.00000  Uiso   1.00
C954   C     0.86434   0.54197   0.91537   0.00000  Uiso   1.00
C955   C     0.83533   0.51264   0.56914   0.00000  Uiso   1.00
C956   C     0.92153   0.51415   0.56398   0.00000  Uiso   1.00
Cu957  Cu    0.78645   0.49999   0.75000   0.00000  Uiso   1.00
Cu958  Cu    0.88022   0.50001   0.75000   0.00000  Uiso   1.00
H959   H     0.95066   0.51300   0.58205   0.00000  Uiso   1.00
H960   H     0.76891   0.46290   0.54690   0.00000  Uiso   1.00
H961   H     0.70591   0.45299   0.50500   0.00000  Uiso   1.00
H962   H     0.91229   0.62952   0.72968   0.00000  Uiso   1.00
H963   H     0.72695   0.37076   0.68799   0.00000  Uiso   1.00
H964   H     0.75480   0.58776   0.62161   0.00000  Uiso   1.00
H965   H     0.68472   0.44701   0.91945   0.00000  Uiso   1.00
H966   H     0.83257   0.57812   0.86298   0.00000  Uiso   1.00
H967   H     0.91216   0.37101   0.72923   0.00000  Uiso   1.00
H968   H     0.75423   0.37051   0.77449   0.00000  Uiso   1.00
H969   H     0.75432   0.62897   0.77336   0.00000  Uiso   1.00
H970   H     0.94639   0.55702   0.79063   0.00000  Uiso   1.00
H971   H     0.69892   0.55650   0.79227   0.00000  Uiso   1.00
H972   H     0.96613   0.44409   0.70791   0.00000  Uiso   1.00
H973   H     0.93703   0.55715   0.91935   0.00000  Uiso   1.00
H974   H     0.96963   0.53369   0.99082   0.00000  Uiso   1.00
N975   N     0.71598   0.49999   0.74998   0.00000  Uiso   1.00
N976   N     0.95069   0.50002   0.75000   0.00000  Uiso   1.00
O977   O     0.79375   0.56011   0.75001   0.00000  Uiso   1.00
O978   O     0.70554   0.39296   0.71022   0.00000  Uiso   1.00
O979   O     0.75145   0.51393   0.61630   0.00000  Uiso   1.00
O980   O     0.78810   0.57664   0.60154   0.00000  Uiso   1.00
O981   O     0.68873   0.50351   0.89120   0.00000  Uiso   1.00
O982   O     0.89688   0.59978   0.86466   0.00000  Uiso   1.00
O983   O     0.87294   0.56012   0.75001   0.00000  Uiso   1.00
O984   O     0.77441   0.49998   0.82549   0.00000  Uiso   1.00
O985   O     0.85360   0.49999   0.82549   0.00000  Uiso   1.00
O986   O     0.79373   0.43988   0.75000   0.00000  Uiso   1.00
O987   O     0.87292   0.43989   0.75000   0.00000  Uiso   1.00
O988   O     0.81306   0.50001   0.67451   0.00000  Uiso   1.00
O989   O     0.89225   0.50002   0.67451   0.00000  Uiso   1.00
O990   O     0.76281   0.43711   0.66395   0.00000  Uiso   1.00
C991   C     0.16673   0.91261   0.75030   0.00000  Uiso   1.00
C992   C     0.12350   0.83651   0.90779   0.00000  Uiso   1.00
C993   C     0.21097   0.97883   0.73931   0.00000  Uiso   1.00
C994   C     0.14026   0.83504   0.85016   0.00000  Uiso   1.00
C995   C     0.21086   0.68814   0.73909   0.00000  Uiso   1.00
C996   C     0.16644   0.70943   0.75092   0.00000  Uiso   1.00
C997   C     0.12217   0.68783   0.76375   0.00000  Uiso   1.00
C998   C     0.12228   0.97852   0.76345   0.00000  Uiso   1.00
C999   C     0.16669   0.95723   0.75103   0.00000  Uiso   1.00
C1000  C     0.30272   0.86483   0.77291   0.00000  Uiso   1.00
C1001  C     0.01874   0.86470   0.77333   0.00000  Uiso   1.00
C1002  C     0.14761   0.83587   0.98759   0.00000  Uiso   1.00
C1003  C     0.03006   0.80174   0.72618   0.00000  Uiso   1.00
C1004  C     0.31390   0.80204   0.72689   0.00000  Uiso   1.00
C1005  C     0.16649   0.75406   0.75029   0.00000  Uiso   1.00
C1006  C     0.19246   0.83587   0.65016   0.00000  Uiso   1.00
C1007  C     0.26590   0.85844   0.51173   0.00000  Uiso   1.00
C1008  C     0.20588   0.84227   0.59362   0.00000  Uiso   1.00
C1009  C     0.07834   0.81740   0.93494   0.00000  Uiso   1.00
C1010  C     0.07173   0.80352   0.98510   0.00000  Uiso   1.00
C1011  C     0.10692   0.81081   0.51001   0.00000  Uiso   1.00
C1012  C     0.05832   0.76585   0.69890   0.00000  Uiso   1.00
C1013  C     0.15628   0.84944   0.93608   0.00000  Uiso   1.00
C1014  C     0.12199   0.86700   0.59702   0.00000  Uiso   1.00
C1015  C     0.03730   0.80961   0.91294   0.00000  Uiso   1.00
C1016  C     0.19709   0.90798   0.87758   0.00000  Uiso   1.00
C1017  C     0.18161   0.84549   0.51478   0.00000  Uiso   1.00
C1018  C     0.22891   0.85834   0.98715   0.00000  Uiso   1.00
C1019  C     0.23639   0.87465   0.93774   0.00000  Uiso   1.00
C1020  C     0.19767   0.87530   0.91537   0.00000  Uiso   1.00
C1021  C     0.16866   0.84598   0.56914   0.00000  Uiso   1.00
C1022  C     0.25486   0.84748   0.56398   0.00000  Uiso   1.00
Cu1023 Cu    0.11978   0.83333   0.75000   0.00000  Uiso   1.00
Cu1024 Cu    0.21355   0.83334   0.75000   0.00000  Uiso   1.00
H1025  H     0.28399   0.84634   0.58205   0.00000  Uiso   1.00
H1026  H     0.10225   0.79623   0.54690   0.00000  Uiso   1.00
H1027  H     0.03924   0.78632   0.50500   0.00000  Uiso   1.00
H1028  H     0.24562   0.96285   0.72968   0.00000  Uiso   1.00
H1029  H     0.06029   0.70410   0.68799   0.00000  Uiso   1.00
H1030  H     0.08814   0.92109   0.62161   0.00000  Uiso   1.00
H1031  H     0.01805   0.78034   0.91945   0.00000  Uiso   1.00
H1032  H     0.16590   0.91145   0.86298   0.00000  Uiso   1.00
H1033  H     0.24549   0.70434   0.72923   0.00000  Uiso   1.00
H1034  H     0.08756   0.70384   0.77449   0.00000  Uiso   1.00
H1035  H     0.08766   0.96230   0.77336   0.00000  Uiso   1.00
H1036  H     0.27972   0.89036   0.79063   0.00000  Uiso   1.00
H1037  H     0.03226   0.88983   0.79227   0.00000  Uiso   1.00
H1038  H     0.29947   0.77742   0.70791   0.00000  Uiso   1.00
H1039  H     0.27036   0.89048   0.91935   0.00000  Uiso   1.00
H1040  H     0.30296   0.86703   0.99082   0.00000  Uiso   1.00
N1041  N     0.04931   0.83332   0.74998   0.00000  Uiso   1.00
N1042  N     0.28402   0.83335   0.75000   0.00000  Uiso   1.00
O1043  O     0.12708   0.89345   0.75001   0.00000  Uiso   1.00
O1044  O     0.03887   0.72629   0.71022   0.00000  Uiso   1.00
O1045  O     0.08478   0.84726   0.61630   0.00000  Uiso   1.00
O1046  O     0.12144   0.90997   0.60154   0.00000  Uiso   1.00
O1047  O     0.02207   0.83684   0.89120   0.00000  Uiso   1.00
O1048  O     0.23021   0.93311   0.86466   0.00000  Uiso   1.00
O1049  O     0.20627   0.89346   0.75001   0.00000  Uiso   1.00
O1050  O     0.10775   0.83332   0.82549   0.00000  Uiso   1.00
O1051  O     0.18694   0.83333   0.82549   0.00000  Uiso   1.00
O1052  O     0.12706   0.77321   0.75000   0.00000  Uiso   1.00
O1053  O     0.20625   0.77322   0.75000   0.00000  Uiso   1.00
O1054  O     0.14640   0.83334   0.67451   0.00000  Uiso   1.00
O1055  O     0.22559   0.83335   0.67451   0.00000  Uiso   1.00
O1056  O     0.09615   0.77045   0.66395   0.00000  Uiso   1.00
C1057  C     0.50006   0.91261   0.75030   0.00000  Uiso   1.00
C1058  C     0.45684   0.83651   0.90779   0.00000  Uiso   1.00
C1059  C     0.54430   0.97883   0.73931   0.00000  Uiso   1.00
C1060  C     0.47359   0.83504   0.85016   0.00000  Uiso   1.00
C1061  C     0.54419   0.68814   0.73909   0.00000  Uiso   1.00
C1062  C     0.49978   0.70943   0.75092   0.00000  Uiso   1.00
C1063  C     0.45551   0.68783   0.76375   0.00000  Uiso   1.00
C1064  C     0.45561   0.97852   0.76345   0.00000  Uiso   1.00
C1065  C     0.50003   0.95723   0.75103   0.00000  Uiso   1.00
C1066  C     0.63606   0.86483   0.77291   0.00000  Uiso   1.00
C1067  C     0.35207   0.86470   0.77333   0.00000  Uiso   1.00
C1068  C     0.48094   0.83587   0.98759   0.00000  Uiso   1.00
C1069  C     0.36339   0.80174   0.72618   0.00000  Uiso   1.00
C1070  C     0.64723   0.80204   0.72689   0.00000  Uiso   1.00
C1071  C     0.49983   0.75406   0.75029   0.00000  Uiso   1.00
C1072  C     0.52579   0.83587   0.65016   0.00000  Uiso   1.00
C1073  C     0.59923   0.85844   0.51173   0.00000  Uiso   1.00
C1074  C     0.53921   0.84227   0.59362   0.00000  Uiso   1.00
C1075  C     0.41168   0.81740   0.93494   0.00000  Uiso   1.00
C1076  C     0.40506   0.80352   0.98510   0.00000  Uiso   1.00
C1077  C     0.44026   0.81081   0.51001   0.00000  Uiso   1.00
C1078  C     0.39166   0.76585   0.69890   0.00000  Uiso   1.00
C1079  C     0.48961   0.84944   0.93608   0.00000  Uiso   1.00
C1080  C     0.45532   0.86700   0.59702   0.00000  Uiso   1.00
C1081  C     0.37064   0.80961   0.91294   0.00000  Uiso   1.00
C1082  C     0.53042   0.90798   0.87758   0.00000  Uiso   1.00
C1083  C     0.51495   0.84549   0.51478   0.00000  Uiso   1.00
C1084  C     0.56224   0.85834   0.98715   0.00000  Uiso   1.00
C1085  C     0.56973   0.87465   0.93774   0.00000  Uiso   1.00
C1086  C     0.53101   0.87530   0.91537   0.00000  Uiso   1.00
C1087  C     0.50200   0.84598   0.56914   0.00000  Uiso   1.00
C1088  C     0.58819   0.84748   0.56398   0.00000  Uiso   1.00
Cu1089 Cu    0.45311   0.83333   0.75000   0.00000  Uiso   1.00
Cu1090 Cu    0.54689   0.83334   0.75000   0.00000  Uiso   1.00
H1091  H     0.61732   0.84634   0.58205   0.00000  Uiso   1.00
H1092  H     0.43558   0.79623   0.54690   0.00000  Uiso   1.00
H1093  H     0.37258   0.78632   0.50500   0.00000  Uiso   1.00
H1094  H     0.57896   0.96285   0.72968   0.00000  Uiso   1.00
H1095  H     0.39362   0.70410   0.68799   0.00000  Uiso   1.00
H1096  H     0.42147   0.92109   0.62161   0.00000  Uiso   1.00
H1097  H     0.35139   0.78034   0.91945   0.00000  Uiso   1.00
H1098  H     0.49924   0.91145   0.86298   0.00000  Uiso   1.00
H1099  H     0.57882   0.70434   0.72923   0.00000  Uiso   1.00
H1100  H     0.42090   0.70384   0.77449   0.00000  Uiso   1.00
H1101  H     0.42099   0.96230   0.77336   0.00000  Uiso   1.00
H1102  H     0.61306   0.89036   0.79063   0.00000  Uiso   1.00
H1103  H     0.36559   0.88983   0.79227   0.00000  Uiso   1.00
H1104  H     0.63280   0.77742   0.70791   0.00000  Uiso   1.00
H1105  H     0.60369   0.89048   0.91935   0.00000  Uiso   1.00
H1106  H     0.63629   0.86703   0.99082   0.00000  Uiso   1.00
N1107  N     0.38265   0.83332   0.74998   0.00000  Uiso   1.00
N1108  N     0.61735   0.83335   0.75000   0.00000  Uiso   1.00
O1109  O     0.46042   0.89345   0.75001   0.00000  Uiso   1.00
O1110  O     0.37221   0.72629   0.71022   0.00000  Uiso   1.00
O1111  O     0.41811   0.84726   0.61630   0.00000  Uiso   1.00
O1112  O     0.45477   0.90997   0.60154   0.00000  Uiso   1.00
O1113  O     0.35540   0.83684   0.89120   0.00000  Uiso   1.00
O1114  O     0.56354   0.93311   0.86466   0.00000  Uiso   1.00
O1115  O     0.53961   0.89346   0.75001   0.00000  Uiso   1.00
O1116  O     0.44108   0.83332   0.82549   0.00000  Uiso   1.00
O1117  O     0.52027   0.83333   0.82549   0.00000  Uiso   1.00
O1118  O     0.46039   0.77321   0.75000   0.00000  Uiso   1.00
O1119  O     0.53958   0.77322   0.75000   0.00000  Uiso   1.00
O1120  O     0.47973   0.83334   0.67451   0.00000  Uiso   1.00
O1121  O     0.55892   0.83335   0.67451   0.00000  Uiso   1.00
O1122  O     0.42948   0.77045   0.66395   0.00000  Uiso   1.00
C1123  C     0.83339   0.91261   0.75030   0.00000  Uiso   1.00
C1124  C     0.79017   0.83651   0.90779   0.00000  Uiso   1.00
C1125  C     0.87764   0.97883   0.73931   0.00000  Uiso   1.00
C1126  C     0.80692   0.83504   0.85016   0.00000  Uiso   1.00
C1127  C     0.87752   0.68814   0.73909   0.00000  Uiso   1.00
C1128  C     0.83311   0.70943   0.75092   0.00000  Uiso   1.00
C1129  C     0.78884   0.68783   0.76375   0.00000  Uiso   1.00
C1130  C     0.78894   0.97852   0.76345   0.00000  Uiso   1.00
C1131  C     0.83336   0.95723   0.75103   0.00000  Uiso   1.00
C1132  C     0.96939   0.86483   0.77291   0.00000  Uiso   1.00
C1133  C     0.68540   0.86470   0.77333   0.00000  Uiso   1.00
C1134  C     0.81428   0.83587   0.98759   0.00000  Uiso   1.00
C1135  C     0.69672   0.80174   0.72618   0.00000  Uiso   1.00
C1136  C     0.98056   0.80204   0.72689   0.00000  Uiso   1.00
C1137  C     0.83316   0.75406   0.75029   0.00000  Uiso   1.00
C1138  C     0.85912   0.83587   0.65016   0.00000  Uiso   1.00
C1139  C     0.93256   0.85844   0.51173   0.00000  Uiso   1.00
C1140  C     0.87255   0.84227   0.59362   0.00000  Uiso   1.00
C1141  C     0.74501   0.81740   0.93494   0.00000  Uiso   1.00
C1142  C     0.73840   0.80352   0.98510   0.00000  Uiso   1.00
C1143  C     0.77359   0.81081   0.51001   0.00000  Uiso   1.00
C1144  C     0.72499   0.76585   0.69890   0.00000  Uiso   1.00
C1145  C     0.82295   0.84944   0.93608   0.00000  Uiso   1.00
C1146  C     0.78865   0.86700   0.59702   0.00000  Uiso   1.00
C1147  C     0.70397   0.80961   0.91294   0.00000  Uiso   1.00
C1148  C     0.86376   0.90798   0.87758   0.00000  Uiso   1.00
C1149  C     0.84828   0.84549   0.51478   0.00000  Uiso   1.00
C1150  C     0.89557   0.85834   0.98715   0.00000  Uiso   1.00
C1151  C     0.90306   0.87465   0.93774   0.00000  Uiso   1.00
C1152  C     0.86434   0.87530   0.91537   0.00000  Uiso   1.00
C1153  C     0.83533   0.84598   0.56914   0.00000  Uiso   1.00
C1154  C     0.92153   0.84748   0.56398   0.00000  Uiso   1.00
Cu1155 Cu    0.78645   0.83333   0.75000   0.00000  Uiso   1.00
Cu1156 Cu    0.88022   0.83334   0.75000   0.00000  Uiso   1.00
H1157  H     0.95066   0.84634   0.58205   0.00000  Uiso   1.00
H1158  H     0.76891   0.79623   0.54690   0.00000  Uiso   1.00
H1159  H     0.70591   0.78632   0.50500   0.00000  Uiso   1.00
H1160  H     0.91229   0.96285   0.72968   0.00000  Uiso   1.00
H1161  H     0.72695   0.70410   0.68799   0.00000  Uiso   1.00
H1162  H     0.75480   0.92109   0.62161   0.00000  Uiso   1.00
H1163  H     0.68472   0.78034   0.91945   0.00000  Uiso   1.00
H1164  H     0.83257   0.91145   0.86298   0.00000  Uiso   1.00
H1165  H     0.91216   0.70434   0.72923   0.00000  Uiso   1.00
H1166  H     0.75423   0.70384   0.77449   0.00000  Uiso   1.00
H1167  H     0.75432   0.96230   0.77336   0.00000  Uiso   1.00
H1168  H     0.94639   0.89036   0.79063   0.00000  Uiso   1.00
H1169  H     0.69892   0.88983   0.79227   0.00000  Uiso   1.00
H1170  H     0.96613   0.77742   0.70791   0.00000  Uiso   1.00
H1171  H     0.93703   0.89048   0.91935   0.00000  Uiso   1.00
H1172  H     0.96963   0.86703   0.99082   0.00000  Uiso   1.00
N1173  N     0.71598   0.83332   0.74998   0.00000  Uiso   1.00
N1174  N     0.95069   0.83335   0.75000   0.00000  Uiso   1.00
O1175  O     0.79375   0.89345   0.75001   0.00000  Uiso   1.00
O1176  O     0.70554   0.72629   0.71022   0.00000  Uiso   1.00
O1177  O     0.75145   0.84726   0.61630   0.00000  Uiso   1.00
O1178  O     0.78810   0.90997   0.60154   0.00000  Uiso   1.00
O1179  O     0.68873   0.83684   0.89120   0.00000  Uiso   1.00
O1180  O     0.89688   0.93311   0.86466   0.00000  Uiso   1.00
O1181  O     0.87294   0.89346   0.75001   0.00000  Uiso   1.00
O1182  O     0.77441   0.83332   0.82549   0.00000  Uiso   1.00
O1183  O     0.85360   0.83333   0.82549   0.00000  Uiso   1.00
O1184  O     0.79373   0.77321   0.75000   0.00000  Uiso   1.00
O1185  O     0.87292   0.77322   0.75000   0.00000  Uiso   1.00
O1186  O     0.81306   0.83334   0.67451   0.00000  Uiso   1.00
O1187  O     0.89225   0.83335   0.67451   0.00000  Uiso   1.00
O1188  O     0.76281   0.77045   0.66395   0.00000  Uiso   1.00
loop_
_geom_bond_atom_site_label_1
_geom_bond_atom_site_label_2
_geom_bond_distance
_geom_bond_site_symmetry_2
_ccdc_geom_bond_type
C1     C9      1.448   .     S
C1     O59     1.294   .     A
C1     O53     1.292   .     A
C2     C4      1.483   .     S
C2     C23     1.427   .     A
C2     C19     1.429   .     A
C3     C9      1.400   .     A
C3     H38     1.083   .     S
C3     C203    1.384   .     S
C4     O60     1.293   .     A
C4     O61     1.308   .     A
C5     H43     1.083   .     S
C5     C6      1.402   .     A
C5     C399    1.384   1_545 S
C6     C7      1.399   .     A
C6     C15     1.449   .     S
C7     H44     1.082   .     S
C7     C404    1.384   1_545 S
C8     C9      1.401   .     A
C8     H45     1.083   .     S
C8     C205    1.384   .     S
C10    H46     1.076   .     S
C10    N52     1.368   .     A
C10    C77     1.417   .     S
C11    N51     1.366   .     A
C11    H47     1.081   .     S
C11    C142    1.417   1_455 S
C12    C23     1.414   .     A
C12    C615    1.406   .     S
C12    C621    1.409   .     S
C13    C22     1.478   .     S
C13    N51     1.392   .     A
C13    C146    1.412   1_455 S
C14    H48     1.083   .     S
C14    N52     1.352   .     A
C14    C79     1.412   .     S
C15    O62     1.296   .     A
C15    O63     1.291   .     A
C16    O65     1.306   .     A
C16    C18     1.475   .     S
C16    O64     1.293   .     A
C17    C32     1.401   .     A
C17    C622    1.404   1_554 S
C17    H644    1.083   1_554 S
C18    C32     1.407   .     A
C18    C31     1.415   .     A
C19    C20     1.391   .     A
C19    C25     1.481   .     S
C20    C615    1.381   .     S
C20    H631    1.084   .     S
C21    H36     1.081   .     S
C21    C606    1.406   1_554 S
C21    C614    1.381   1_554 S
C22    O54     1.398   .     S
C22    O66     1.219   .     D
C23    C30     1.427   .     A
C24    O56     1.397   .     S
C24    C31     1.491   .     S
C24    O55     1.222   .     D
C25    O57     1.221   .     D
C25    H41     1.086   .     S
C26    O58     1.221   .     D
C26    C30     1.487   .     S
C26    H42     1.084   .     S
C27    C31     1.400   .     A
C27    C606    1.409   1_554 S
C27    C622    1.405   1_554 S
C28    C29     1.398   .     A
C28    C611    1.404   .     S
C28    C621    1.405   .     S
C29    H49     1.084   .     S
C29    C30     1.409   .     A
C32    H35     1.083   .     S
Cu33   Cu34    2.686   .     S
Cu33   O64     1.950   .     S
Cu33   O60     1.959   .     S
Cu33   O53     1.960   .     S
Cu33   N51     2.018   .     S
Cu33   O62     1.964   .     S
Cu34   N52     2.018   .     S
Cu34   O65     1.959   .     S
Cu34   O59     1.964   .     S
Cu34   O63     1.960   .     S
Cu34   O61     1.950   .     S
H37    C614    1.084   1_554 S
H39    O54     1.014   .     S
H40    O56     1.014   .     S
H50    C611    1.083   .     S
C67    C75     1.448   .     S
C67    O125    1.294   .     A
C67    O119    1.292   .     A
C68    C70     1.483   .     S
C68    C89     1.427   .     A
C68    C85     1.429   .     A
C69    C75     1.400   .     A
C69    H104    1.083   .     S
C69    C269    1.384   .     S
C70    O126    1.293   .     A
C70    O127    1.308   .     A
C71    H109    1.083   .     S
C71    C72     1.402   .     A
C71    C465    1.384   1_545 S
C72    C73     1.399   .     A
C72    C81     1.449   .     S
C73    H110    1.082   .     S
C73    C470    1.384   1_545 S
C74    C75     1.401   .     A
C74    H111    1.083   .     S
C74    C271    1.384   .     S
C76    H112    1.076   .     S
C76    N118    1.368   .     A
C76    C143    1.417   .     S
C77    N117    1.366   .     A
C77    H113    1.081   .     S
C78    C89     1.414   .     A
C78    C681    1.406   .     S
C78    C687    1.409   .     S
C79    C88     1.478   .     S
C79    N117    1.392   .     A
C80    H114    1.083   .     S
C80    N118    1.352   .     A
C80    C145    1.412   .     S
C81    O128    1.296   .     A
C81    O129    1.291   .     A
C82    O131    1.306   .     A
C82    C84     1.475   .     S
C82    O130    1.293   .     A
C83    C98     1.401   .     A
C83    C688    1.404   1_554 S
C83    H710    1.083   1_554 S
C84    C98     1.407   .     A
C84    C97     1.415   .     A
C85    C86     1.391   .     A
C85    C91     1.481   .     S
C86    C681    1.381   .     S
C86    H697    1.084   .     S
C87    H102    1.081   .     S
C87    C672    1.406   1_554 S
C87    C680    1.381   1_554 S
C88    O120    1.398   .     S
C88    O132    1.219   .     D
C89    C96     1.427   .     A
C90    O122    1.397   .     S
C90    C97     1.491   .     S
C90    O121    1.222   .     D
C91    O123    1.221   .     D
C91    H107    1.086   .     S
C92    O124    1.221   .     D
C92    C96     1.487   .     S
C92    H108    1.084   .     S
C93    C97     1.400   .     A
C93    C672    1.409   1_554 S
C93    C688    1.405   1_554 S
C94    C95     1.398   .     A
C94    C677    1.404   .     S
C94    C687    1.405   .     S
C95    H115    1.084   .     S
C95    C96     1.409   .     A
C98    H101    1.083   .     S
Cu99   Cu100   2.686   .     S
Cu99   O130    1.950   .     S
Cu99   O126    1.959   .     S
Cu99   O119    1.960   .     S
Cu99   N117    2.018   .     S
Cu99   O128    1.964   .     S
Cu100  N118    2.018   .     S
Cu100  O131    1.959   .     S
Cu100  O125    1.964   .     S
Cu100  O129    1.960   .     S
Cu100  O127    1.950   .     S
H103   C680    1.084   1_554 S
H105   O120    1.014   .     S
H106   O122    1.014   .     S
H116   C677    1.083   .     S
C133   C141    1.448   .     S
C133   O191    1.294   .     A
C133   O185    1.292   .     A
C134   C136    1.483   .     S
C134   C155    1.427   .     A
C134   C151    1.429   .     A
C135   C141    1.400   .     A
C135   H170    1.083   .     S
C135   C335    1.384   .     S
C136   O192    1.293   .     A
C136   O193    1.308   .     A
C137   H175    1.083   .     S
C137   C138    1.402   .     A
C137   C531    1.384   1_545 S
C138   C139    1.399   .     A
C138   C147    1.449   .     S
C139   H176    1.082   .     S
C139   C536    1.384   1_545 S
C140   C141    1.401   .     A
C140   H177    1.083   .     S
C140   C337    1.384   .     S
C142   H178    1.076   .     S
C142   N184    1.368   .     A
C142   C11     1.417   1_655 S
C143   N183    1.366   .     A
C143   H179    1.081   .     S
C144   C155    1.414   .     A
C144   C747    1.406   .     S
C144   C753    1.409   .     S
C145   C154    1.478   .     S
C145   N183    1.392   .     A
C146   H180    1.083   .     S
C146   N184    1.352   .     A
C146   C13     1.412   1_655 S
C147   O194    1.296   .     A
C147   O195    1.291   .     A
C148   O197    1.306   .     A
C148   C150    1.475   .     S
C148   O196    1.293   .     A
C149   C164    1.401   .     A
C149   C754    1.404   1_554 S
C149   H776    1.083   1_554 S
C150   C164    1.407   .     A
C150   C163    1.415   .     A
C151   C152    1.391   .     A
C151   C157    1.481   .     S
C152   C747    1.381   .     S
C152   H763    1.084   .     S
C153   H168    1.081   .     S
C153   C738    1.406   1_554 S
C153   C746    1.381   1_554 S
C154   O186    1.398   .     S
C154   O198    1.219   .     D
C155   C162    1.427   .     A
C156   O188    1.397   .     S
C156   C163    1.491   .     S
C156   O187    1.222   .     D
C157   O189    1.221   .     D
C157   H173    1.086   .     S
C158   O190    1.221   .     D
C158   C162    1.487   .     S
C158   H174    1.084   .     S
C159   C163    1.400   .     A
C159   C738    1.409   1_554 S
C159   C754    1.405   1_554 S
C160   C161    1.398   .     A
C160   C743    1.404   .     S
C160   C753    1.405   .     S
C161   H181    1.084   .     S
C161   C162    1.409   .     A
C164   H167    1.083   .     S
Cu165  Cu166   2.686   .     S
Cu165  O196    1.950   .     S
Cu165  O192    1.959   .     S
Cu165  O185    1.960   .     S
Cu165  N183    2.018   .     S
Cu165  O194    1.964   .     S
Cu166  N184    2.018   .     S
Cu166  O197    1.959   .     S
Cu166  O191    1.964   .     S
Cu166  O195    1.960   .     S
Cu166  O193    1.950   .     S
H169   C746    1.084   1_554 S
H171   O186    1.014   .     S
H172   O188    1.014   .     S
H182   C743    1.083   .     S
C199   C207    1.448   .     S
C199   O257    1.294   .     A
C199   O251    1.292   .     A
C200   C202    1.483   .     S
C200   C221    1.427   .     A
C200   C217    1.429   .     A
C201   C207    1.400   .     A
C201   H236    1.083   .     S
C201   C401    1.384   .     S
C202   O258    1.293   .     A
C202   O259    1.308   .     A
C203   H241    1.083   .     S
C203   C204    1.402   .     A
C204   C205    1.399   .     A
C204   C213    1.449   .     S
C205   H242    1.082   .     S
C206   C207    1.401   .     A
C206   H243    1.083   .     S
C206   C403    1.384   .     S
C208   H244    1.076   .     S
C208   N250    1.368   .     A
C208   C275    1.417   .     S
C209   N249    1.366   .     A
C209   H245    1.081   .     S
C209   C340    1.417   1_455 S
C210   C221    1.414   .     A
C210   C813    1.406   .     S
C210   C819    1.409   .     S
C211   C220    1.478   .     S
C211   N249    1.392   .     A
C211   C344    1.412   1_455 S
C212   H246    1.083   .     S
C212   N250    1.352   .     A
C212   C277    1.412   .     S
C213   O260    1.296   .     A
C213   O261    1.291   .     A
C214   O263    1.306   .     A
C214   C216    1.475   .     S
C214   O262    1.293   .     A
C215   C230    1.401   .     A
C215   C820    1.404   1_554 S
C215   H842    1.083   1_554 S
C216   C230    1.407   .     A
C216   C229    1.415   .     A
C217   C218    1.391   .     A
C217   C223    1.481   .     S
C218   C813    1.381   .     S
C218   H829    1.084   .     S
C219   H234    1.081   .     S
C219   C804    1.406   1_554 S
C219   C812    1.381   1_554 S
C220   O252    1.398   .     S
C220   O264    1.219   .     D
C221   C228    1.427   .     A
C222   O254    1.397   .     S
C222   C229    1.491   .     S
C222   O253    1.222   .     D
C223   O255    1.221   .     D
C223   H239    1.086   .     S
C224   O256    1.221   .     D
C224   C228    1.487   .     S
C224   H240    1.084   .     S
C225   C229    1.400   .     A
C225   C804    1.409   1_554 S
C225   C820    1.405   1_554 S
C226   C227    1.398   .     A
C226   C809    1.404   .     S
C226   C819    1.405   .     S
C227   H247    1.084   .     S
C227   C228    1.409   .     A
C230   H233    1.083   .     S
Cu231  Cu232   2.686   .     S
Cu231  O262    1.950   .     S
Cu231  O258    1.959   .     S
Cu231  O251    1.960   .     S
Cu231  N249    2.018   .     S
Cu231  O260    1.964   .     S
Cu232  N250    2.018   .     S
Cu232  O263    1.959   .     S
Cu232  O257    1.964   .     S
Cu232  O261    1.960   .     S
Cu232  O259    1.950   .     S
H235   C812    1.084   1_554 S
H237   O252    1.014   .     S
H238   O254    1.014   .     S
H248   C809    1.083   .     S
C265   C273    1.448   .     S
C265   O323    1.294   .     A
C265   O317    1.292   .     A
C266   C268    1.483   .     S
C266   C287    1.427   .     A
C266   C283    1.429   .     A
C267   C273    1.400   .     A
C267   H302    1.083   .     S
C267   C467    1.384   .     S
C268   O324    1.293   .     A
C268   O325    1.308   .     A
C269   H307    1.083   .     S
C269   C270    1.402   .     A
C270   C271    1.399   .     A
C270   C279    1.449   .     S
C271   H308    1.082   .     S
C272   C273    1.401   .     A
C272   H309    1.083   .     S
C272   C469    1.384   .     S
C274   H310    1.076   .     S
C274   N316    1.368   .     A
C274   C341    1.417   .     S
C275   N315    1.366   .     A
C275   H311    1.081   .     S
C276   C287    1.414   .     A
C276   C879    1.406   .     S
C276   C885    1.409   .     S
C277   C286    1.478   .     S
C277   N315    1.392   .     A
C278   H312    1.083   .     S
C278   N316    1.352   .     A
C278   C343    1.412   .     S
C279   O326    1.296   .     A
C279   O327    1.291   .     A
C280   O329    1.306   .     A
C280   C282    1.475   .     S
C280   O328    1.293   .     A
C281   C296    1.401   .     A
C281   C886    1.404   1_554 S
C281   H908    1.083   1_554 S
C282   C296    1.407   .     A
C282   C295    1.415   .     A
C283   C284    1.391   .     A
C283   C289    1.481   .     S
C284   C879    1.381   .     S
C284   H895    1.084   .     S
C285   H300    1.081   .     S
C285   C870    1.406   1_554 S
C285   C878    1.381   1_554 S
C286   O318    1.398   .     S
C286   O330    1.219   .     D
C287   C294    1.427   .     A
C288   O320    1.397   .     S
C288   C295    1.491   .     S
C288   O319    1.222   .     D
C289   O321    1.221   .     D
C289   H305    1.086   .     S
C290   O322    1.221   .     D
C290   C294    1.487   .     S
C290   H306    1.084   .     S
C291   C295    1.400   .     A
C291   C870    1.409   1_554 S
C291   C886    1.405   1_554 S
C292   C293    1.398   .     A
C292   C875    1.404   .     S
C292   C885    1.405   .     S
C293   H313    1.084   .     S
C293   C294    1.409   .     A
C296   H299    1.083   .     S
Cu297  Cu298   2.686   .     S
Cu297  O328    1.950   .     S
Cu297  O324    1.959   .     S
Cu297  O317    1.960   .     S
Cu297  N315    2.018   .     S
Cu297  O326    1.964   .     S
Cu298  N316    2.018   .     S
Cu298  O329    1.959   .     S
Cu298  O323    1.964   .     S
Cu298  O327    1.960   .     S
Cu298  O325    1.950   .     S
H301   C878    1.084   1_554 S
H303   O318    1.014   .     S
H304   O320    1.014   .     S
H314   C875    1.083   .     S
C331   C339    1.448   .     S
C331   O389    1.294   .     A
C331   O383    1.292   .     A
C332   C334    1.483   .     S
C332   C353    1.427   .     A
C332   C349    1.429   .     A
C333   C339    1.400   .     A
C333   H368    1.083   .     S
C333   C533    1.384   .     S
C334   O390    1.293   .     A
C334   O391    1.308   .     A
C335   H373    1.083   .     S
C335   C336    1.402   .     A
C336   C337    1.399   .     A
C336   C345    1.449   .     S
C337   H374    1.082   .     S
C338   C339    1.401   .     A
C338   H375    1.083   .     S
C338   C535    1.384   .     S
C340   H376    1.076   .     S
C340   N382    1.368   .     A
C340   C209    1.417   1_655 S
C341   N381    1.366   .     A
C341   H377    1.081   .     S
C342   C353    1.414   .     A
C342   C945    1.406   .     S
C342   C951    1.409   .     S
C343   C352    1.478   .     S
C343   N381    1.392   .     A
C344   H378    1.083   .     S
C344   N382    1.352   .     A
C344   C211    1.412   1_655 S
C345   O392    1.296   .     A
C345   O393    1.291   .     A
C346   O395    1.306   .     A
C346   C348    1.475   .     S
C346   O394    1.293   .     A
C347   C362    1.401   .     A
C347   C952    1.404   1_554 S
C347   H974    1.083   1_554 S
C348   C362    1.407   .     A
C348   C361    1.415   .     A
C349   C350    1.391   .     A
C349   C355    1.481   .     S
C350   C945    1.381   .     S
C350   H961    1.084   .     S
C351   H366    1.081   .     S
C351   C936    1.406   1_554 S
C351   C944    1.381   1_554 S
C352   O384    1.398   .     S
C352   O396    1.219   .     D
C353   C360    1.427   .     A
C354   O386    1.397   .     S
C354   C361    1.491   .     S
C354   O385    1.222   .     D
C355   O387    1.221   .     D
C355   H371    1.086   .     S
C356   O388    1.221   .     D
C356   C360    1.487   .     S
C356   H372    1.084   .     S
C357   C361    1.400   .     A
C357   C936    1.409   1_554 S
C357   C952    1.405   1_554 S
C358   C359    1.398   .     A
C358   C941    1.404   .     S
C358   C951    1.405   .     S
C359   H379    1.084   .     S
C359   C360    1.409   .     A
C362   H365    1.083   .     S
Cu363  Cu364   2.686   .     S
Cu363  O394    1.950   .     S
Cu363  O390    1.959   .     S
Cu363  O383    1.960   .     S
Cu363  N381    2.018   .     S
Cu363  O392    1.964   .     S
Cu364  N382    2.018   .     S
Cu364  O395    1.959   .     S
Cu364  O389    1.964   .     S
Cu364  O393    1.960   .     S
Cu364  O391    1.950   .     S
H367   C944    1.084   1_554 S
H369   O384    1.014   .     S
H370   O386    1.014   .     S
H380   C941    1.083   .     S
C397   C405    1.448   .     S
C397   O455    1.294   .     A
C397   O449    1.292   .     A
C398   C400    1.483   .     S
C398   C419    1.427   .     A
C398   C415    1.429   .     A
C399   C405    1.400   .     A
C399   H434    1.083   .     S
C399   C5      1.384   1_565 S
C400   O456    1.293   .     A
C400   O457    1.308   .     A
C401   H439    1.083   .     S
C401   C402    1.402   .     A
C402   C403    1.399   .     A
C402   C411    1.449   .     S
C403   H440    1.082   .     S
C404   C405    1.401   .     A
C404   H441    1.083   .     S
C404   C7      1.384   1_565 S
C406   H442    1.076   .     S
C406   N448    1.368   .     A
C406   C473    1.417   .     S
C407   N447    1.366   .     A
C407   H443    1.081   .     S
C407   C538    1.417   1_455 S
C408   C419    1.414   .     A
C408   C1011   1.406   .     S
C408   C1017   1.409   .     S
C409   C418    1.478   .     S
C409   N447    1.392   .     A
C409   C542    1.412   1_455 S
C410   H444    1.083   .     S
C410   N448    1.352   .     A
C410   C475    1.412   .     S
C411   O458    1.296   .     A
C411   O459    1.291   .     A
C412   O461    1.306   .     A
C412   C414    1.475   .     S
C412   O460    1.293   .     A
C413   C428    1.401   .     A
C413   C1018   1.404   1_554 S
C413   H1040   1.083   1_554 S
C414   C428    1.407   .     A
C414   C427    1.415   .     A
C415   C416    1.391   .     A
C415   C421    1.481   .     S
C416   C1011   1.381   .     S
C416   H1027   1.084   .     S
C417   H432    1.081   .     S
C417   C1002   1.406   1_554 S
C417   C1010   1.381   1_554 S
C418   O450    1.398   .     S
C418   O462    1.219   .     D
C419   C426    1.427   .     A
C420   O452    1.397   .     S
C420   C427    1.491   .     S
C420   O451    1.222   .     D
C421   O453    1.221   .     D
C421   H437    1.086   .     S
C422   O454    1.221   .     D
C422   C426    1.487   .     S
C422   H438    1.084   .     S
C423   C427    1.400   .     A
C423   C1002   1.409   1_554 S
C423   C1018   1.405   1_554 S
C424   C425    1.398   .     A
C424   C1007   1.404   .     S
C424   C1017   1.405   .     S
C425   H445    1.084   .     S
C425   C426    1.409   .     A
C428   H431    1.083   .     S
Cu429  Cu430   2.686   .     S
Cu429  O460    1.950   .     S
Cu429  O456    1.959   .     S
Cu429  O449    1.960   .     S
Cu429  N447    2.018   .     S
Cu429  O458    1.964   .     S
Cu430  N448    2.018   .     S
Cu430  O461    1.959   .     S
Cu430  O455    1.964   .     S
Cu430  O459    1.960   .     S
Cu430  O457    1.950   .     S
H433   C1010   1.084   1_554 S
H435   O450    1.014   .     S
H436   O452    1.014   .     S
H446   C1007   1.083   .     S
C463   C471    1.448   .     S
C463   O521    1.294   .     A
C463   O515    1.292   .     A
C464   C466    1.483   .     S
C464   C485    1.427   .     A
C464   C481    1.429   .     A
C465   C471    1.400   .     A
C465   H500    1.083   .     S
C465   C71     1.384   1_565 S
C466   O522    1.293   .     A
C466   O523    1.308   .     A
C467   H505    1.083   .     S
C467   C468    1.402   .     A
C468   C469    1.399   .     A
C468   C477    1.449   .     S
C469   H506    1.082   .     S
C470   C471    1.401   .     A
C470   H507    1.083   .     S
C470   C73     1.384   1_565 S
C472   H508    1.076   .     S
C472   N514    1.368   .     A
C472   C539    1.417   .     S
C473   N513    1.366   .     A
C473   H509    1.081   .     S
C474   C485    1.414   .     A
C474   C1077   1.406   .     S
C474   C1083   1.409   .     S
C475   C484    1.478   .     S
C475   N513    1.392   .     A
C476   H510    1.083   .     S
C476   N514    1.352   .     A
C476   C541    1.412   .     S
C477   O524    1.296   .     A
C477   O525    1.291   .     A
C478   O527    1.306   .     A
C478   C480    1.475   .     S
C478   O526    1.293   .     A
C479   C494    1.401   .     A
C479   C1084   1.404   1_554 S
C479   H1106   1.083   1_554 S
C480   C494    1.407   .     A
C480   C493    1.415   .     A
C481   C482    1.391   .     A
C481   C487    1.481   .     S
C482   C1077   1.381   .     S
C482   H1093   1.084   .     S
C483   H498    1.081   .     S
C483   C1068   1.406   1_554 S
C483   C1076   1.381   1_554 S
C484   O516    1.398   .     S
C484   O528    1.219   .     D
C485   C492    1.427   .     A
C486   O518    1.397   .     S
C486   C493    1.491   .     S
C486   O517    1.222   .     D
C487   O519    1.221   .     D
C487   H503    1.086   .     S
C488   O520    1.221   .     D
C488   C492    1.487   .     S
C488   H504    1.084   .     S
C489   C493    1.400   .     A
C489   C1068   1.409   1_554 S
C489   C1084   1.405   1_554 S
C490   C491    1.398   .     A
C490   C1073   1.404   .     S
C490   C1083   1.405   .     S
C491   H511    1.084   .     S
C491   C492    1.409   .     A
C494   H497    1.083   .     S
Cu495  Cu496   2.686   .     S
Cu495  O526    1.950   .     S
Cu495  O522    1.959   .     S
Cu495  O515    1.960   .     S
Cu495  N513    2.018   .     S
Cu495  O524    1.964   .     S
Cu496  N514    2.018   .     S
Cu496  O527    1.959   .     S
Cu496  O521    1.964   .     S
Cu496  O525    1.960   .     S
Cu496  O523    1.950   .     S
H499   C1076   1.084   1_554 S
H501   O516    1.014   .     S
H502   O518    1.014   .     S
H512   C1073   1.083   .     S
C529   C537    1.448   .     S
C529   O587    1.294   .     A
C529   O581    1.292   .     A
C530   C532    1.483   .     S
C530   C551    1.427   .     A
C530   C547    1.429   .     A
C531   C537    1.400   .     A
C531   H566    1.083   .     S
C531   C137    1.384   1_565 S
C532   O588    1.293   .     A
C532   O589    1.308   .     A
C533   H571    1.083   .     S
C533   C534    1.402   .     A
C534   C535    1.399   .     A
C534   C543    1.449   .     S
C535   H572    1.082   .     S
C536   C537    1.401   .     A
C536   H573    1.083   .     S
C536   C139    1.384   1_565 S
C538   H574    1.076   .     S
C538   N580    1.368   .     A
C538   C407    1.417   1_655 S
C539   N579    1.366   .     A
C539   H575    1.081   .     S
C540   C551    1.414   .     A
C540   C1143   1.406   .     S
C540   C1149   1.409   .     S
C541   C550    1.478   .     S
C541   N579    1.392   .     A
C542   H576    1.083   .     S
C542   N580    1.352   .     A
C542   C409    1.412   1_655 S
C543   O590    1.296   .     A
C543   O591    1.291   .     A
C544   O593    1.306   .     A
C544   C546    1.475   .     S
C544   O592    1.293   .     A
C545   C560    1.401   .     A
C545   C1150   1.404   1_554 S
C545   H1172   1.083   1_554 S
C546   C560    1.407   .     A
C546   C559    1.415   .     A
C547   C548    1.391   .     A
C547   C553    1.481   .     S
C548   C1143   1.381   .     S
C548   H1159   1.084   .     S
C549   H564    1.081   .     S
C549   C1134   1.406   1_554 S
C549   C1142   1.381   1_554 S
C550   O582    1.398   .     S
C550   O594    1.219   .     D
C551   C558    1.427   .     A
C552   O584    1.397   .     S
C552   C559    1.491   .     S
C552   O583    1.222   .     D
C553   O585    1.221   .     D
C553   H569    1.086   .     S
C554   O586    1.221   .     D
C554   C558    1.487   .     S
C554   H570    1.084   .     S
C555   C559    1.400   .     A
C555   C1134   1.409   1_554 S
C555   C1150   1.405   1_554 S
C556   C557    1.398   .     A
C556   C1139   1.404   .     S
C556   C1149   1.405   .     S
C557   H577    1.084   .     S
C557   C558    1.409   .     A
C560   H563    1.083   .     S
Cu561  Cu562   2.686   .     S
Cu561  O592    1.950   .     S
Cu561  O588    1.959   .     S
Cu561  O581    1.960   .     S
Cu561  N579    2.018   .     S
Cu561  O590    1.964   .     S
Cu562  N580    2.018   .     S
Cu562  O593    1.959   .     S
Cu562  O587    1.964   .     S
Cu562  O591    1.960   .     S
Cu562  O589    1.950   .     S
H565   C1142   1.084   1_554 S
H567   O582    1.014   .     S
H568   O584    1.014   .     S
H578   C1139   1.083   .     S
C595   C603    1.448   .     S
C595   O653    1.294   .     A
C595   O647    1.292   .     A
C596   C598    1.483   .     S
C596   C617    1.427   .     A
C596   C613    1.429   .     A
C597   C603    1.400   .     A
C597   H632    1.083   .     S
C597   C797    1.384   .     S
C598   O654    1.293   .     A
C598   O655    1.308   .     A
C599   H637    1.083   .     S
C599   C600    1.402   .     A
C599   C993    1.384   1_545 S
C600   C601    1.399   .     A
C600   C609    1.449   .     S
C601   H638    1.082   .     S
C601   C998    1.384   1_545 S
C602   C603    1.401   .     A
C602   H639    1.083   .     S
C602   C799    1.384   .     S
C604   H640    1.076   .     S
C604   N646    1.368   .     A
C604   C671    1.417   .     S
C605   N645    1.366   .     A
C605   H641    1.081   .     S
C605   C736    1.417   1_455 S
C606   C617    1.414   .     A
C606   C21     1.406   1_556 S
C606   C27     1.409   1_556 S
C607   C616    1.478   .     S
C607   N645    1.392   .     A
C607   C740    1.412   1_455 S
C608   H642    1.083   .     S
C608   N646    1.352   .     A
C608   C673    1.412   .     S
C609   O656    1.296   .     A
C609   O657    1.291   .     A
C610   O659    1.306   .     A
C610   C612    1.475   .     S
C610   O658    1.293   .     A
C611   C626    1.401   .     A
C612   C626    1.407   .     A
C612   C625    1.415   .     A
C613   C614    1.391   .     A
C613   C619    1.481   .     S
C614   C21     1.381   1_556 S
C614   H37     1.084   1_556 S
C615   H630    1.081   .     S
C616   O648    1.398   .     S
C616   O660    1.219   .     D
C617   C624    1.427   .     A
C618   O650    1.397   .     S
C618   C625    1.491   .     S
C618   O649    1.222   .     D
C619   O651    1.221   .     D
C619   H635    1.086   .     S
C620   O652    1.221   .     D
C620   C624    1.487   .     S
C620   H636    1.084   .     S
C621   C625    1.400   .     A
C622   C623    1.398   .     A
C622   C17     1.404   1_556 S
C622   C27     1.405   1_556 S
C623   H643    1.084   .     S
C623   C624    1.409   .     A
C626   H629    1.083   .     S
Cu627  Cu628   2.686   .     S
Cu627  O658    1.950   .     S
Cu627  O654    1.959   .     S
Cu627  O647    1.960   .     S
Cu627  N645    2.018   .     S
Cu627  O656    1.964   .     S
Cu628  N646    2.018   .     S
Cu628  O659    1.959   .     S
Cu628  O653    1.964   .     S
Cu628  O657    1.960   .     S
Cu628  O655    1.950   .     S
H633   O648    1.014   .     S
H634   O650    1.014   .     S
H644   C17     1.083   1_556 S
C661   C669    1.448   .     S
C661   O719    1.294   .     A
C661   O713    1.292   .     A
C662   C664    1.483   .     S
C662   C683    1.427   .     A
C662   C679    1.429   .     A
C663   C669    1.400   .     A
C663   H698    1.083   .     S
C663   C863    1.384   .     S
C664   O720    1.293   .     A
C664   O721    1.308   .     A
C665   H703    1.083   .     S
C665   C666    1.402   .     A
C665   C1059   1.384   1_545 S
C666   C667    1.399   .     A
C666   C675    1.449   .     S
C667   H704    1.082   .     S
C667   C1064   1.384   1_545 S
C668   C669    1.401   .     A
C668   H705    1.083   .     S
C668   C865    1.384   .     S
C670   H706    1.076   .     S
C670   N712    1.368   .     A
C670   C737    1.417   .     S
C671   N711    1.366   .     A
C671   H707    1.081   .     S
C672   C683    1.414   .     A
C672   C87     1.406   1_556 S
C672   C93     1.409   1_556 S
C673   C682    1.478   .     S
C673   N711    1.392   .     A
C674   H708    1.083   .     S
C674   N712    1.352   .     A
C674   C739    1.412   .     S
C675   O722    1.296   .     A
C675   O723    1.291   .     A
C676   O725    1.306   .     A
C676   C678    1.475   .     S
C676   O724    1.293   .     A
C677   C692    1.401   .     A
C678   C692    1.407   .     A
C678   C691    1.415   .     A
C679   C680    1.391   .     A
C679   C685    1.481   .     S
C680   C87     1.381   1_556 S
C680   H103    1.084   1_556 S
C681   H696    1.081   .     S
C682   O714    1.398   .     S
C682   O726    1.219   .     D
C683   C690    1.427   .     A
C684   O716    1.397   .     S
C684   C691    1.491   .     S
C684   O715    1.222   .     D
C685   O717    1.221   .     D
C685   H701    1.086   .     S
C686   O718    1.221   .     D
C686   C690    1.487   .     S
C686   H702    1.084   .     S
C687   C691    1.400   .     A
C688   C689    1.398   .     A
C688   C83     1.404   1_556 S
C688   C93     1.405   1_556 S
C689   H709    1.084   .     S
C689   C690    1.409   .     A
C692   H695    1.083   .     S
Cu693  Cu694   2.686   .     S
Cu693  O724    1.950   .     S
Cu693  O720    1.959   .     S
Cu693  O713    1.960   .     S
Cu693  N711    2.018   .     S
Cu693  O722    1.964   .     S
Cu694  N712    2.018   .     S
Cu694  O725    1.959   .     S
Cu694  O719    1.964   .     S
Cu694  O723    1.960   .     S
Cu694  O721    1.950   .     S
H699   O714    1.014   .     S
H700   O716    1.014   .     S
H710   C83     1.083   1_556 S
C727   C735    1.448   .     S
C727   O785    1.294   .     A
C727   O779    1.292   .     A
C728   C730    1.483   .     S
C728   C749    1.427   .     A
C728   C745    1.429   .     A
C729   C735    1.400   .     A
C729   H764    1.083   .     S
C729   C929    1.384   .     S
C730   O786    1.293   .     A
C730   O787    1.308   .     A
C731   H769    1.083   .     S
C731   C732    1.402   .     A
C731   C1125   1.384   1_545 S
C732   C733    1.399   .     A
C732   C741    1.449   .     S
C733   H770    1.082   .     S
C733   C1130   1.384   1_545 S
C734   C735    1.401   .     A
C734   H771    1.083   .     S
C734   C931    1.384   .     S
C736   H772    1.076   .     S
C736   N778    1.368   .     A
C736   C605    1.417   1_655 S
C737   N777    1.366   .     A
C737   H773    1.081   .     S
C738   C749    1.414   .     A
C738   C153    1.406   1_556 S
C738   C159    1.409   1_556 S
C739   C748    1.478   .     S
C739   N777    1.392   .     A
C740   H774    1.083   .     S
C740   N778    1.352   .     A
C740   C607    1.412   1_655 S
C741   O788    1.296   .     A
C741   O789    1.291   .     A
C742   O791    1.306   .     A
C742   C744    1.475   .     S
C742   O790    1.293   .     A
C743   C758    1.401   .     A
C744   C758    1.407   .     A
C744   C757    1.415   .     A
C745   C746    1.391   .     A
C745   C751    1.481   .     S
C746   C153    1.381   1_556 S
C746   H169    1.084   1_556 S
C747   H762    1.081   .     S
C748   O780    1.398   .     S
C748   O792    1.219   .     D
C749   C756    1.427   .     A
C750   O782    1.397   .     S
C750   C757    1.491   .     S
C750   O781    1.222   .     D
C751   O783    1.221   .     D
C751   H767    1.086   .     S
C752   O784    1.221   .     D
C752   C756    1.487   .     S
C752   H768    1.084   .     S
C753   C757    1.400   .     A
C754   C755    1.398   .     A
C754   C149    1.404   1_556 S
C754   C159    1.405   1_556 S
C755   H775    1.084   .     S
C755   C756    1.409   .     A
C758   H761    1.083   .     S
Cu759  Cu760   2.686   .     S
Cu759  O790    1.950   .     S
Cu759  O786    1.959   .     S
Cu759  O779    1.960   .     S
Cu759  N777    2.018   .     S
Cu759  O788    1.964   .     S
Cu760  N778    2.018   .     S
Cu760  O791    1.959   .     S
Cu760  O785    1.964   .     S
Cu760  O789    1.960   .     S
Cu760  O787    1.950   .     S
H765   O780    1.014   .     S
H766   O782    1.014   .     S
H776   C149    1.083   1_556 S
C793   C801    1.448   .     S
C793   O851    1.294   .     A
C793   O845    1.292   .     A
C794   C796    1.483   .     S
C794   C815    1.427   .     A
C794   C811    1.429   .     A
C795   C801    1.400   .     A
C795   H830    1.083   .     S
C795   C995    1.384   .     S
C796   O852    1.293   .     A
C796   O853    1.308   .     A
C797   H835    1.083   .     S
C797   C798    1.402   .     A
C798   C799    1.399   .     A
C798   C807    1.449   .     S
C799   H836    1.082   .     S
C800   C801    1.401   .     A
C800   H837    1.083   .     S
C800   C997    1.384   .     S
C802   H838    1.076   .     S
C802   N844    1.368   .     A
C802   C869    1.417   .     S
C803   N843    1.366   .     A
C803   H839    1.081   .     S
C803   C934    1.417   1_455 S
C804   C815    1.414   .     A
C804   C219    1.406   1_556 S
C804   C225    1.409   1_556 S
C805   C814    1.478   .     S
C805   N843    1.392   .     A
C805   C938    1.412   1_455 S
C806   H840    1.083   .     S
C806   N844    1.352   .     A
C806   C871    1.412   .     S
C807   O854    1.296   .     A
C807   O855    1.291   .     A
C808   O857    1.306   .     A
C808   C810    1.475   .     S
C808   O856    1.293   .     A
C809   C824    1.401   .     A
C810   C824    1.407   .     A
C810   C823    1.415   .     A
C811   C812    1.391   .     A
C811   C817    1.481   .     S
C812   C219    1.381   1_556 S
C812   H235    1.084   1_556 S
C813   H828    1.081   .     S
C814   O846    1.398   .     S
C814   O858    1.219   .     D
C815   C822    1.427   .     A
C816   O848    1.397   .     S
C816   C823    1.491   .     S
C816   O847    1.222   .     D
C817   O849    1.221   .     D
C817   H833    1.086   .     S
C818   O850    1.221   .     D
C818   C822    1.487   .     S
C818   H834    1.084   .     S
C819   C823    1.400   .     A
C820   C821    1.398   .     A
C820   C215    1.404   1_556 S
C820   C225    1.405   1_556 S
C821   H841    1.084   .     S
C821   C822    1.409   .     A
C824   H827    1.083   .     S
Cu825  Cu826   2.686   .     S
Cu825  O856    1.950   .     S
Cu825  O852    1.959   .     S
Cu825  O845    1.960   .     S
Cu825  N843    2.018   .     S
Cu825  O854    1.964   .     S
Cu826  N844    2.018   .     S
Cu826  O857    1.959   .     S
Cu826  O851    1.964   .     S
Cu826  O855    1.960   .     S
Cu826  O853    1.950   .     S
H831   O846    1.014   .     S
H832   O848    1.014   .     S
H842   C215    1.083   1_556 S
C859   C867    1.448   .     S
C859   O917    1.294   .     A
C859   O911    1.292   .     A
C860   C862    1.483   .     S
C860   C881    1.427   .     A
C860   C877    1.429   .     A
C861   C867    1.400   .     A
C861   H896    1.083   .     S
C861   C1061   1.384   .     S
C862   O918    1.293   .     A
C862   O919    1.308   .     A
C863   H901    1.083   .     S
C863   C864    1.402   .     A
C864   C865    1.399   .     A
C864   C873    1.449   .     S
C865   H902    1.082   .     S
C866   C867    1.401   .     A
C866   H903    1.083   .     S
C866   C1063   1.384   .     S
C868   H904    1.076   .     S
C868   N910    1.368   .     A
C868   C935    1.417   .     S
C869   N909    1.366   .     A
C869   H905    1.081   .     S
C870   C881    1.414   .     A
C870   C285    1.406   1_556 S
C870   C291    1.409   1_556 S
C871   C880    1.478   .     S
C871   N909    1.392   .     A
C872   H906    1.083   .     S
C872   N910    1.352   .     A
C872   C937    1.412   .     S
C873   O920    1.296   .     A
C873   O921    1.291   .     A
C874   O923    1.306   .     A
C874   C876    1.475   .     S
C874   O922    1.293   .     A
C875   C890    1.401   .     A
C876   C890    1.407   .     A
C876   C889    1.415   .     A
C877   C878    1.391   .     A
C877   C883    1.481   .     S
C878   C285    1.381   1_556 S
C878   H301    1.084   1_556 S
C879   H894    1.081   .     S
C880   O912    1.398   .     S
C880   O924    1.219   .     D
C881   C888    1.427   .     A
C882   O914    1.397   .     S
C882   C889    1.491   .     S
C882   O913    1.222   .     D
C883   O915    1.221   .     D
C883   H899    1.086   .     S
C884   O916    1.221   .     D
C884   C888    1.487   .     S
C884   H900    1.084   .     S
C885   C889    1.400   .     A
C886   C887    1.398   .     A
C886   C281    1.404   1_556 S
C886   C291    1.405   1_556 S
C887   H907    1.084   .     S
C887   C888    1.409   .     A
C890   H893    1.083   .     S
Cu891  Cu892   2.686   .     S
Cu891  O922    1.950   .     S
Cu891  O918    1.959   .     S
Cu891  O911    1.960   .     S
Cu891  N909    2.018   .     S
Cu891  O920    1.964   .     S
Cu892  N910    2.018   .     S
Cu892  O923    1.959   .     S
Cu892  O917    1.964   .     S
Cu892  O921    1.960   .     S
Cu892  O919    1.950   .     S
H897   O912    1.014   .     S
H898   O914    1.014   .     S
H908   C281    1.083   1_556 S
C925   C933    1.448   .     S
C925   O983    1.294   .     A
C925   O977    1.292   .     A
C926   C928    1.483   .     S
C926   C947    1.427   .     A
C926   C943    1.429   .     A
C927   C933    1.400   .     A
C927   H962    1.083   .     S
C927   C1127   1.384   .     S
C928   O984    1.293   .     A
C928   O985    1.308   .     A
C929   H967    1.083   .     S
C929   C930    1.402   .     A
C930   C931    1.399   .     A
C930   C939    1.449   .     S
C931   H968    1.082   .     S
C932   C933    1.401   .     A
C932   H969    1.083   .     S
C932   C1129   1.384   .     S
C934   H970    1.076   .     S
C934   N976    1.368   .     A
C934   C803    1.417   1_655 S
C935   N975    1.366   .     A
C935   H971    1.081   .     S
C936   C947    1.414   .     A
C936   C351    1.406   1_556 S
C936   C357    1.409   1_556 S
C937   C946    1.478   .     S
C937   N975    1.392   .     A
C938   H972    1.083   .     S
C938   N976    1.352   .     A
C938   C805    1.412   1_655 S
C939   O986    1.296   .     A
C939   O987    1.291   .     A
C940   O989    1.306   .     A
C940   C942    1.475   .     S
C940   O988    1.293   .     A
C941   C956    1.401   .     A
C942   C956    1.407   .     A
C942   C955    1.415   .     A
C943   C944    1.391   .     A
C943   C949    1.481   .     S
C944   C351    1.381   1_556 S
C944   H367    1.084   1_556 S
C945   H960    1.081   .     S
C946   O978    1.398   .     S
C946   O990    1.219   .     D
C947   C954    1.427   .     A
C948   O980    1.397   .     S
C948   C955    1.491   .     S
C948   O979    1.222   .     D
C949   O981    1.221   .     D
C949   H965    1.086   .     S
C950   O982    1.221   .     D
C950   C954    1.487   .     S
C950   H966    1.084   .     S
C951   C955    1.400   .     A
C952   C953    1.398   .     A
C952   C347    1.404   1_556 S
C952   C357    1.405   1_556 S
C953   H973    1.084   .     S
C953   C954    1.409   .     A
C956   H959    1.083   .     S
Cu957  Cu958   2.686   .     S
Cu957  O988    1.950   .     S
Cu957  O984    1.959   .     S
Cu957  O977    1.960   .     S
Cu957  N975    2.018   .     S
Cu957  O986    1.964   .     S
Cu958  N976    2.018   .     S
Cu958  O989    1.959   .     S
Cu958  O983    1.964   .     S
Cu958  O987    1.960   .     S
Cu958  O985    1.950   .     S
H963   O978    1.014   .     S
H964   O980    1.014   .     S
H974   C347    1.083   1_556 S
C991   C999    1.448   .     S
C991   O1049   1.294   .     A
C991   O1043   1.292   .     A
C992   C994    1.483   .     S
C992   C1013   1.427   .     A
C992   C1009   1.429   .     A
C993   C999    1.400   .     A
C993   H1028   1.083   .     S
C993   C599    1.384   1_565 S
C994   O1050   1.293   .     A
C994   O1051   1.308   .     A
C995   H1033   1.083   .     S
C995   C996    1.402   .     A
C996   C997    1.399   .     A
C996   C1005   1.449   .     S
C997   H1034   1.082   .     S
C998   C999    1.401   .     A
C998   H1035   1.083   .     S
C998   C601    1.384   1_565 S
C1000  H1036   1.076   .     S
C1000  N1042   1.368   .     A
C1000  C1067   1.417   .     S
C1001  N1041   1.366   .     A
C1001  H1037   1.081   .     S
C1001  C1132   1.417   1_455 S
C1002  C1013   1.414   .     A
C1002  C417    1.406   1_556 S
C1002  C423    1.409   1_556 S
C1003  C1012   1.478   .     S
C1003  N1041   1.392   .     A
C1003  C1136   1.412   1_455 S
C1004  H1038   1.083   .     S
C1004  N1042   1.352   .     A
C1004  C1069   1.412   .     S
C1005  O1052   1.296   .     A
C1005  O1053   1.291   .     A
C1006  O1055   1.306   .     A
C1006  C1008   1.475   .     S
C1006  O1054   1.293   .     A
C1007  C1022   1.401   .     A
C1008  C1022   1.407   .     A
C1008  C1021   1.415   .     A
C1009  C1010   1.391   .     A
C1009  C1015   1.481   .     S
C1010  C417    1.381   1_556 S
C1010  H433    1.084   1_556 S
C1011  H1026   1.081   .     S
C1012  O1044   1.398   .     S
C1012  O1056   1.219   .     D
C1013  C1020   1.427   .     A
C1014  O1046   1.397   .     S
C1014  C1021   1.491   .     S
C1014  O1045   1.222   .     D
C1015  O1047   1.221   .     D
C1015  H1031   1.086   .     S
C1016  O1048   1.221   .     D
C1016  C1020   1.487   .     S
C1016  H1032   1.084   .     S
C1017  C1021   1.400   .     A
C1018  C1019   1.398   .     A
C1018  C413    1.404   1_556 S
C1018  C423    1.405   1_556 S
C1019  H1039   1.084   .     S
C1019  C1020   1.409   .     A
C1022  H1025   1.083   .     S
Cu1023 Cu1024  2.686   .     S
Cu1023 O1054   1.950   .     S
Cu1023 O1050   1.959   .     S
Cu1023 O1043   1.960   .     S
Cu1023 N1041   2.018   .     S
Cu1023 O1052   1.964   .     S
Cu1024 N1042   2.018   .     S
Cu1024 O1055   1.959   .     S
Cu1024 O1049   1.964   .     S
Cu1024 O1053   1.960   .     S
Cu1024 O1051   1.950   .     S
H1029  O1044   1.014   .     S
H1030  O1046   1.014   .     S
H1040  C413    1.083   1_556 S
C1057  C1065   1.448   .     S
C1057  O1115   1.294   .     A
C1057  O1109   1.292   .     A
C1058  C1060   1.483   .     S
C1058  C1079   1.427   .     A
C1058  C1075   1.429   .     A
C1059  C1065   1.400   .     A
C1059  H1094   1.083   .     S
C1059  C665    1.384   1_565 S
C1060  O1116   1.293   .     A
C1060  O1117   1.308   .     A
C1061  H1099   1.083   .     S
C1061  C1062   1.402   .     A
C1062  C1063   1.399   .     A
C1062  C1071   1.449   .     S
C1063  H1100   1.082   .     S
C1064  C1065   1.401   .     A
C1064  H1101   1.083   .     S
C1064  C667    1.384   1_565 S
C1066  H1102   1.076   .     S
C1066  N1108   1.368   .     A
C1066  C1133   1.417   .     S
C1067  N1107   1.366   .     A
C1067  H1103   1.081   .     S
C1068  C1079   1.414   .     A
C1068  C483    1.406   1_556 S
C1068  C489    1.409   1_556 S
C1069  C1078   1.478   .     S
C1069  N1107   1.392   .     A
C1070  H1104   1.083   .     S
C1070  N1108   1.352   .     A
C1070  C1135   1.412   .     S
C1071  O1118   1.296   .     A
C1071  O1119   1.291   .     A
C1072  O1121   1.306   .     A
C1072  C1074   1.475   .     S
C1072  O1120   1.293   .     A
C1073  C1088   1.401   .     A
C1074  C1088   1.407   .     A
C1074  C1087   1.415   .     A
C1075  C1076   1.391   .     A
C1075  C1081   1.481   .     S
C1076  C483    1.381   1_556 S
C1076  H499    1.084   1_556 S
C1077  H1092   1.081   .     S
C1078  O1110   1.398   .     S
C1078  O1122   1.219   .     D
C1079  C1086   1.427   .     A
C1080  O1112   1.397   .     S
C1080  C1087   1.491   .     S
C1080  O1111   1.222   .     D
C1081  O1113   1.221   .     D
C1081  H1097   1.086   .     S
C1082  O1114   1.221   .     D
C1082  C1086   1.487   .     S
C1082  H1098   1.084   .     S
C1083  C1087   1.400   .     A
C1084  C1085   1.398   .     A
C1084  C479    1.404   1_556 S
C1084  C489    1.405   1_556 S
C1085  H1105   1.084   .     S
C1085  C1086   1.409   .     A
C1088  H1091   1.083   .     S
Cu1089 Cu1090  2.686   .     S
Cu1089 O1120   1.950   .     S
Cu1089 O1116   1.959   .     S
Cu1089 O1109   1.960   .     S
Cu1089 N1107   2.018   .     S
Cu1089 O1118   1.964   .     S
Cu1090 N1108   2.018   .     S
Cu1090 O1121   1.959   .     S
Cu1090 O1115   1.964   .     S
Cu1090 O1119   1.960   .     S
Cu1090 O1117   1.950   .     S
H1095  O1110   1.014   .     S
H1096  O1112   1.014   .     S
H1106  C479    1.083   1_556 S
C1123  C1131   1.448   .     S
C1123  O1181   1.294   .     A
C1123  O1175   1.292   .     A
C1124  C1126   1.483   .     S
C1124  C1145   1.427   .     A
C1124  C1141   1.429   .     A
C1125  C1131   1.400   .     A
C1125  H1160   1.083   .     S
C1125  C731    1.384   1_565 S
C1126  O1182   1.293   .     A
C1126  O1183   1.308   .     A
C1127  H1165   1.083   .     S
C1127  C1128   1.402   .     A
C1128  C1129   1.399   .     A
C1128  C1137   1.449   .     S
C1129  H1166   1.082   .     S
C1130  C1131   1.401   .     A
C1130  H1167   1.083   .     S
C1130  C733    1.384   1_565 S
C1132  H1168   1.076   .     S
C1132  N1174   1.368   .     A
C1132  C1001   1.417   1_655 S
C1133  N1173   1.366   .     A
C1133  H1169   1.081   .     S
C1134  C1145   1.414   .     A
C1134  C549    1.406   1_556 S
C1134  C555    1.409   1_556 S
C1135  C1144   1.478   .     S
C1135  N1173   1.392   .     A
C1136  H1170   1.083   .     S
C1136  N1174   1.352   .     A
C1136  C1003   1.412   1_655 S
C1137  O1184   1.296   .     A
C1137  O1185   1.291   .     A
C1138  O1187   1.306   .     A
C1138  C1140   1.475   .     S
C1138  O1186   1.293   .     A
C1139  C1154   1.401   .     A
C1140  C1154   1.407   .     A
C1140  C1153   1.415   .     A
C1141  C1142   1.391   .     A
C1141  C1147   1.481   .     S
C1142  C549    1.381   1_556 S
C1142  H565    1.084   1_556 S
C1143  H1158   1.081   .     S
C1144  O1176   1.398   .     S
C1144  O1188   1.219   .     D
C1145  C1152   1.427   .     A
C1146  O1178   1.397   .     S
C1146  C1153   1.491   .     S
C1146  O1177   1.222   .     D
C1147  O1179   1.221   .     D
C1147  H1163   1.086   .     S
C1148  O1180   1.221   .     D
C1148  C1152   1.487   .     S
C1148  H1164   1.084   .     S
C1149  C1153   1.400   .     A
C1150  C1151   1.398   .     A
C1150  C545    1.404   1_556 S
C1150  C555    1.405   1_556 S
C1151  H1171   1.084   .     S
C1151  C1152   1.409   .     A
C1154  H1157   1.083   .     S
Cu1155 Cu1156  2.686   .     S
Cu1155 O1186   1.950   .     S
Cu1155 O1182   1.959   .     S
Cu1155 O1175   1.960   .     S
Cu1155 N1173   2.018   .     S
Cu1155 O1184   1.964   .     S
Cu1156 N1174   2.018   .     S
Cu1156 O1187   1.959   .     S
Cu1156 O1181   1.964   .     S
Cu1156 O1185   1.960   .     S
Cu1156 O1183   1.950   .     S
H1161  O1176   1.014   .     S
H1162  O1178   1.014   .     S
H1172  C545    1.083   1_556 S
