data_str_m1_o1_o17_pcu_sym.84
_audit_creation_date              2020-01-03
_audit_creation_method            'Materials Studio'
_symmetry_space_group_name_H-M    'P1'
_symmetry_Int_Tables_number       1
_symmetry_cell_setting            triclinic
loop_
_symmetry_equiv_pos_as_xyz
  x,y,z
_cell_length_a                    36.5854
_cell_length_b                    36.4960
_cell_length_c                    34.5261
_cell_angle_alpha                 90.0331
_cell_angle_beta                  89.9570
_cell_angle_gamma                 89.9573
loop_
_atom_site_label
_atom_site_type_symbol
_atom_site_fract_x
_atom_site_fract_y
_atom_site_fract_z
_atom_site_U_iso_or_equiv
_atom_site_adp_type
_atom_site_occupancy
C1     C     0.47066   0.26576   0.41865   0.00000  Uiso   1.00
C2     C     0.27940   0.48435   0.08135   0.00000  Uiso   1.00
C3     C     0.23426   0.02972   0.54083   0.00000  Uiso   1.00
C4     C     0.47040   0.26589   0.45923   0.00000  Uiso   1.00
C5     C     0.02960   0.23411   0.54077   0.00000  Uiso   1.00
C6     C     0.23428   0.02974   0.45923   0.00000  Uiso   1.00
C7     C     0.26572   0.47026   0.54077   0.00000  Uiso   1.00
C8     C     0.27963   0.48418   0.95916   0.00000  Uiso   1.00
C9     C     0.22037   0.01582   0.04084   0.00000  Uiso   1.00
C10    C     0.01550   0.27983   0.95921   0.00000  Uiso   1.00
C11    C     0.48450   0.22017   0.04079   0.00000  Uiso   1.00
C12    C     0.22034   0.01577   0.95923   0.00000  Uiso   1.00
C13    C     0.48456   0.22047   0.91862   0.00000  Uiso   1.00
C14    C     0.27966   0.48423   0.04077   0.00000  Uiso   1.00
C15    C     0.48447   0.22019   0.95920   0.00000  Uiso   1.00
C16    C     0.01553   0.27981   0.04080   0.00000  Uiso   1.00
C17    C     0.09807   0.34808   0.24956   0.00000  Uiso   1.00
C18    C     0.40193   0.15192   0.75044   0.00000  Uiso   1.00
C19    C     0.15191   0.09804   0.25025   0.00000  Uiso   1.00
C20    C     0.34809   0.40196   0.74975   0.00000  Uiso   1.00
C21    C     0.40194   0.15191   0.24956   0.00000  Uiso   1.00
C22    C     0.09806   0.34809   0.75044   0.00000  Uiso   1.00
C23    C     0.34803   0.40190   0.24969   0.00000  Uiso   1.00
C24    C     0.01544   0.27953   0.08138   0.00000  Uiso   1.00
C25    C     0.15197   0.09810   0.75031   0.00000  Uiso   1.00
C26    C     0.09804   0.15190   0.74968   0.00000  Uiso   1.00
C27    C     0.40197   0.34810   0.25032   0.00000  Uiso   1.00
C28    C     0.15194   0.40191   0.74957   0.00000  Uiso   1.00
C29    C     0.34806   0.09809   0.25043   0.00000  Uiso   1.00
C30    C     0.40191   0.34804   0.75024   0.00000  Uiso   1.00
C31    C     0.09809   0.15196   0.24976   0.00000  Uiso   1.00
C32    C     0.34807   0.09808   0.74957   0.00000  Uiso   1.00
C33    C     0.15193   0.40192   0.25043   0.00000  Uiso   1.00
C34    C     0.49999   0.24999   0.47958   0.00000  Uiso   1.00
C35    C     0.27934   0.48427   0.91858   0.00000  Uiso   1.00
C36    C     0.00001   0.25001   0.52042   0.00000  Uiso   1.00
C37    C     0.25001   0.00001   0.47958   0.00000  Uiso   1.00
C38    C     0.25000   0.49999   0.52041   0.00000  Uiso   1.00
C39    C     0.24999   0.49999   0.97958   0.00000  Uiso   1.00
C40    C     0.25001   0.00001   0.02042   0.00000  Uiso   1.00
C41    C     0.49999   0.25001   0.97959   0.00000  Uiso   1.00
C42    C     0.00001   0.24999   0.02041   0.00000  Uiso   1.00
C43    C     0.10853   0.44784   0.28239   0.00000  Uiso   1.00
C44    C     0.39148   0.05215   0.71762   0.00000  Uiso   1.00
C45    C     0.05571   0.11430   0.29174   0.00000  Uiso   1.00
C46    C     0.22066   0.01573   0.08142   0.00000  Uiso   1.00
C47    C     0.44428   0.38569   0.70824   0.00000  Uiso   1.00
C48    C     0.39094   0.05264   0.28374   0.00000  Uiso   1.00
C49    C     0.10906   0.44736   0.71627   0.00000  Uiso   1.00
C50    C     0.44710   0.39116   0.28381   0.00000  Uiso   1.00
C51    C     0.05290   0.10884   0.71619   0.00000  Uiso   1.00
C52    C     0.11021   0.05129   0.71911   0.00000  Uiso   1.00
C53    C     0.38979   0.44870   0.28090   0.00000  Uiso   1.00
C54    C     0.05138   0.39033   0.71981   0.00000  Uiso   1.00
C55    C     0.44861   0.10967   0.28020   0.00000  Uiso   1.00
C56    C     0.38704   0.44350   0.70681   0.00000  Uiso   1.00
C57    C     0.01539   0.27957   0.91864   0.00000  Uiso   1.00
C58    C     0.11295   0.05649   0.29317   0.00000  Uiso   1.00
C59    C     0.44902   0.10935   0.72080   0.00000  Uiso   1.00
C60    C     0.05099   0.39065   0.27921   0.00000  Uiso   1.00
C61    C     0.35854   0.19783   0.78244   0.00000  Uiso   1.00
C62    C     0.14145   0.30217   0.21755   0.00000  Uiso   1.00
C63    C     0.30571   0.36431   0.79173   0.00000  Uiso   1.00
C64    C     0.19430   0.13570   0.20828   0.00000  Uiso   1.00
C65    C     0.14092   0.30265   0.78377   0.00000  Uiso   1.00
C66    C     0.35908   0.19734   0.21621   0.00000  Uiso   1.00
C67    C     0.19711   0.14117   0.78378   0.00000  Uiso   1.00
C68    C     0.48461   0.22043   0.08136   0.00000  Uiso   1.00
C69    C     0.30290   0.35883   0.21621   0.00000  Uiso   1.00
C70    C     0.36019   0.30128   0.21917   0.00000  Uiso   1.00
C71    C     0.13982   0.19872   0.78082   0.00000  Uiso   1.00
C72    C     0.30139   0.14032   0.21978   0.00000  Uiso   1.00
C73    C     0.19861   0.35967   0.78021   0.00000  Uiso   1.00
C74    C     0.13709   0.19355   0.20692   0.00000  Uiso   1.00
C75    C     0.36292   0.30646   0.79310   0.00000  Uiso   1.00
C76    C     0.19901   0.35935   0.22077   0.00000  Uiso   1.00
C77    C     0.30099   0.14065   0.77922   0.00000  Uiso   1.00
C78    C     0.49997   0.24997   0.39839   0.00000  Uiso   1.00
C79    C     0.00003   0.25003   0.60161   0.00000  Uiso   1.00
C80    C     0.25002   0.00002   0.39841   0.00000  Uiso   1.00
C81    C     0.02934   0.23424   0.58135   0.00000  Uiso   1.00
C82    C     0.24998   0.49998   0.60159   0.00000  Uiso   1.00
C83    C     0.24997   0.49997   0.89839   0.00000  Uiso   1.00
C84    C     0.25003   0.00003   0.10160   0.00000  Uiso   1.00
C85    C     0.49998   0.25002   0.89841   0.00000  Uiso   1.00
C86    C     0.00002   0.24998   0.10159   0.00000  Uiso   1.00
C87    C     0.05876   0.21833   0.47978   0.00000  Uiso   1.00
C88    C     0.44124   0.28167   0.52022   0.00000  Uiso   1.00
C89    C     0.28131   0.44094   0.47978   0.00000  Uiso   1.00
C90    C     0.21869   0.05906   0.52022   0.00000  Uiso   1.00
C91    C     0.44122   0.28165   0.47992   0.00000  Uiso   1.00
C92    C     0.23439   0.02947   0.41866   0.00000  Uiso   1.00
C93    C     0.05878   0.21835   0.52008   0.00000  Uiso   1.00
C94    C     0.21870   0.05907   0.47991   0.00000  Uiso   1.00
C95    C     0.28130   0.44093   0.52008   0.00000  Uiso   1.00
C96    C     0.30888   0.46856   0.97978   0.00000  Uiso   1.00
C97    C     0.19112   0.03144   0.02022   0.00000  Uiso   1.00
C98    C     0.03086   0.30925   0.97987   0.00000  Uiso   1.00
C99    C     0.46914   0.19075   0.02013   0.00000  Uiso   1.00
C100   C     0.19110   0.03141   0.97992   0.00000  Uiso   1.00
C101   C     0.30890   0.46859   0.02008   0.00000  Uiso   1.00
C102   C     0.46913   0.19076   0.97983   0.00000  Uiso   1.00
C103   C     0.26561   0.47053   0.58134   0.00000  Uiso   1.00
C104   C     0.03087   0.30924   0.02017   0.00000  Uiso   1.00
C105   C     0.25000   0.00001   0.35599   0.00000  Uiso   1.00
C106   C     0.25000   0.49999   0.64401   0.00000  Uiso   1.00
C107   C     0.49999   0.24999   0.35596   0.00000  Uiso   1.00
C108   C     0.00001   0.25001   0.64404   0.00000  Uiso   1.00
C109   C     0.49999   0.25001   0.85599   0.00000  Uiso   1.00
C110   C     0.00001   0.24999   0.14401   0.00000  Uiso   1.00
C111   C     0.24999   0.49999   0.85596   0.00000  Uiso   1.00
C112   C     0.25001   0.00001   0.14404   0.00000  Uiso   1.00
C113   C     0.18010   0.07000   0.24999   0.00000  Uiso   1.00
C114   C     0.02928   0.23416   0.41858   0.00000  Uiso   1.00
C115   C     0.31990   0.43000   0.75001   0.00000  Uiso   1.00
C116   C     0.43009   0.17999   0.24997   0.00000  Uiso   1.00
C117   C     0.06991   0.32001   0.75003   0.00000  Uiso   1.00
C118   C     0.31998   0.43007   0.25000   0.00000  Uiso   1.00
C119   C     0.18002   0.06993   0.75000   0.00000  Uiso   1.00
C120   C     0.06992   0.32000   0.24996   0.00000  Uiso   1.00
C121   C     0.43008   0.18000   0.75004   0.00000  Uiso   1.00
C122   C     0.18009   0.42999   0.74997   0.00000  Uiso   1.00
C123   C     0.31991   0.07001   0.25003   0.00000  Uiso   1.00
C124   C     0.43010   0.32000   0.74999   0.00000  Uiso   1.00
C125   C     0.47072   0.26584   0.58142   0.00000  Uiso   1.00
C126   C     0.06990   0.18000   0.25001   0.00000  Uiso   1.00
C127   C     0.31992   0.07000   0.74996   0.00000  Uiso   1.00
C128   C     0.18008   0.43000   0.25004   0.00000  Uiso   1.00
C129   C     0.06998   0.18007   0.75000   0.00000  Uiso   1.00
C130   C     0.43002   0.31993   0.25000   0.00000  Uiso   1.00
C131   C     0.11679   0.41042   0.26504   0.00000  Uiso   1.00
C132   C     0.38321   0.08958   0.73496   0.00000  Uiso   1.00
C133   C     0.09175   0.11911   0.27032   0.00000  Uiso   1.00
C134   C     0.40825   0.38088   0.72967   0.00000  Uiso   1.00
C135   C     0.38296   0.08981   0.26570   0.00000  Uiso   1.00
C136   C     0.26564   0.47056   0.41859   0.00000  Uiso   1.00
C137   C     0.11704   0.41019   0.73430   0.00000  Uiso   1.00
C138   C     0.41005   0.38307   0.26577   0.00000  Uiso   1.00
C139   C     0.08995   0.11693   0.73424   0.00000  Uiso   1.00
C140   C     0.11719   0.08962   0.73492   0.00000  Uiso   1.00
C141   C     0.38281   0.41038   0.26508   0.00000  Uiso   1.00
C142   C     0.08969   0.38303   0.73515   0.00000  Uiso   1.00
C143   C     0.41031   0.11697   0.26485   0.00000  Uiso   1.00
C144   C     0.38100   0.40821   0.72930   0.00000  Uiso   1.00
C145   C     0.11900   0.09179   0.27069   0.00000  Uiso   1.00
C146   C     0.41054   0.11677   0.73578   0.00000  Uiso   1.00
C147   C     0.23436   0.02944   0.58141   0.00000  Uiso   1.00
C148   C     0.08946   0.38323   0.26423   0.00000  Uiso   1.00
C149   C     0.36680   0.16041   0.76506   0.00000  Uiso   1.00
C150   C     0.13320   0.33959   0.23493   0.00000  Uiso   1.00
C151   C     0.34175   0.36911   0.77031   0.00000  Uiso   1.00
C152   C     0.15826   0.13089   0.22970   0.00000  Uiso   1.00
C153   C     0.13295   0.33981   0.76572   0.00000  Uiso   1.00
C154   C     0.36705   0.16019   0.23427   0.00000  Uiso   1.00
C155   C     0.16006   0.13307   0.76574   0.00000  Uiso   1.00
C156   C     0.33994   0.36693   0.23425   0.00000  Uiso   1.00
C157   C     0.36718   0.33961   0.23495   0.00000  Uiso   1.00
C158   C     0.22060   0.01565   0.91865   0.00000  Uiso   1.00
C159   C     0.13282   0.16039   0.76505   0.00000  Uiso   1.00
C160   C     0.33970   0.13303   0.23513   0.00000  Uiso   1.00
C161   C     0.16030   0.36697   0.76487   0.00000  Uiso   1.00
C162   C     0.13102   0.15822   0.22935   0.00000  Uiso   1.00
C163   C     0.36899   0.34178   0.77066   0.00000  Uiso   1.00
C164   C     0.16054   0.36678   0.23576   0.00000  Uiso   1.00
C165   C     0.33946   0.13322   0.76424   0.00000  Uiso   1.00
C166   C     0.02957   0.23407   0.45916   0.00000  Uiso   1.00
C167   C     0.47043   0.26593   0.54084   0.00000  Uiso   1.00
C168   C     0.26574   0.47028   0.45917   0.00000  Uiso   1.00
F169   F     0.08761   0.20284   0.46114   0.00000  Uiso   1.00
F170   F     0.16220   0.04681   0.03886   0.00000  Uiso   1.00
F171   F     0.04593   0.33835   0.96128   0.00000  Uiso   1.00
F172   F     0.45407   0.16165   0.03872   0.00000  Uiso   1.00
F173   F     0.16217   0.04676   0.96136   0.00000  Uiso   1.00
F174   F     0.33783   0.45324   0.03864   0.00000  Uiso   1.00
F175   F     0.45404   0.16167   0.96123   0.00000  Uiso   1.00
F176   F     0.04596   0.33833   0.03877   0.00000  Uiso   1.00
F177   F     0.44288   0.28174   0.39866   0.00000  Uiso   1.00
F178   F     0.05712   0.21826   0.60134   0.00000  Uiso   1.00
F179   F     0.21858   0.05739   0.39866   0.00000  Uiso   1.00
F180   F     0.41239   0.29716   0.53886   0.00000  Uiso   1.00
F181   F     0.28142   0.44261   0.60134   0.00000  Uiso   1.00
F182   F     0.05704   0.21816   0.39852   0.00000  Uiso   1.00
F183   F     0.44296   0.28184   0.60148   0.00000  Uiso   1.00
F184   F     0.28146   0.44265   0.39854   0.00000  Uiso   1.00
F185   F     0.21854   0.05735   0.60146   0.00000  Uiso   1.00
F186   F     0.19277   0.03153   0.89866   0.00000  Uiso   1.00
F187   F     0.30723   0.46847   0.10133   0.00000  Uiso   1.00
F188   F     0.46894   0.19247   0.89860   0.00000  Uiso   1.00
F189   F     0.03106   0.30753   0.10140   0.00000  Uiso   1.00
F190   F     0.30716   0.46837   0.89853   0.00000  Uiso   1.00
F191   F     0.29662   0.41195   0.46115   0.00000  Uiso   1.00
F192   F     0.19284   0.03163   0.10147   0.00000  Uiso   1.00
F193   F     0.03100   0.30758   0.89863   0.00000  Uiso   1.00
F194   F     0.46900   0.19242   0.10137   0.00000  Uiso   1.00
F195   F     0.20338   0.08805   0.53885   0.00000  Uiso   1.00
F196   F     0.41236   0.29711   0.46135   0.00000  Uiso   1.00
F197   F     0.08764   0.20289   0.53864   0.00000  Uiso   1.00
F198   F     0.20340   0.08807   0.46135   0.00000  Uiso   1.00
F199   F     0.29660   0.41193   0.53865   0.00000  Uiso   1.00
F200   F     0.33780   0.45319   0.96114   0.00000  Uiso   1.00
H201   H     0.13219   0.46667   0.28331   0.00000  Uiso   1.00
H202   H     0.46714   0.38424   0.72923   0.00000  Uiso   1.00
H203   H     0.44755   0.36345   0.68654   0.00000  Uiso   1.00
H204   H     0.44715   0.41194   0.69259   0.00000  Uiso   1.00
H205   H     0.36722   0.03387   0.28464   0.00000  Uiso   1.00
H206   H     0.41286   0.03862   0.26712   0.00000  Uiso   1.00
H207   H     0.39962   0.05632   0.31430   0.00000  Uiso   1.00
H208   H     0.13278   0.46613   0.71536   0.00000  Uiso   1.00
H209   H     0.10037   0.44369   0.68571   0.00000  Uiso   1.00
H210   H     0.08714   0.46139   0.73289   0.00000  Uiso   1.00
H211   H     0.46602   0.36751   0.28444   0.00000  Uiso   1.00
H212   H     0.08681   0.46160   0.26527   0.00000  Uiso   1.00
H213   H     0.46090   0.41333   0.26737   0.00000  Uiso   1.00
H214   H     0.44341   0.39964   0.31445   0.00000  Uiso   1.00
H215   H     0.03398   0.13249   0.71556   0.00000  Uiso   1.00
H216   H     0.05658   0.10036   0.68555   0.00000  Uiso   1.00
H217   H     0.03909   0.08666   0.73264   0.00000  Uiso   1.00
H218   H     0.11300   0.03098   0.74282   0.00000  Uiso   1.00
H219   H     0.08280   0.04713   0.70642   0.00000  Uiso   1.00
H220   H     0.13041   0.04490   0.69605   0.00000  Uiso   1.00
H221   H     0.38700   0.46902   0.25719   0.00000  Uiso   1.00
H222   H     0.36958   0.45510   0.30395   0.00000  Uiso   1.00
H223   H     0.09945   0.44462   0.31289   0.00000  Uiso   1.00
H224   H     0.41719   0.45287   0.29359   0.00000  Uiso   1.00
H225   H     0.03148   0.38783   0.74391   0.00000  Uiso   1.00
H226   H     0.04730   0.41779   0.70706   0.00000  Uiso   1.00
H227   H     0.04454   0.37005   0.69695   0.00000  Uiso   1.00
H228   H     0.46852   0.11217   0.25611   0.00000  Uiso   1.00
H229   H     0.45546   0.12996   0.30305   0.00000  Uiso   1.00
H230   H     0.45270   0.08221   0.29295   0.00000  Uiso   1.00
H231   H     0.36370   0.46279   0.70773   0.00000  Uiso   1.00
H232   H     0.41103   0.45831   0.71876   0.00000  Uiso   1.00
H233   H     0.39174   0.43708   0.67577   0.00000  Uiso   1.00
H234   H     0.36781   0.03333   0.71669   0.00000  Uiso   1.00
H235   H     0.13630   0.03721   0.29225   0.00000  Uiso   1.00
H236   H     0.10824   0.06290   0.32421   0.00000  Uiso   1.00
H237   H     0.08897   0.04168   0.28120   0.00000  Uiso   1.00
H238   H     0.46890   0.11235   0.74484   0.00000  Uiso   1.00
H239   H     0.45328   0.08168   0.70858   0.00000  Uiso   1.00
H240   H     0.45588   0.12924   0.69758   0.00000  Uiso   1.00
H241   H     0.03110   0.38765   0.25517   0.00000  Uiso   1.00
H242   H     0.04412   0.37076   0.30243   0.00000  Uiso   1.00
H243   H     0.04673   0.41831   0.29143   0.00000  Uiso   1.00
H244   H     0.38222   0.21664   0.78338   0.00000  Uiso   1.00
H245   H     0.40055   0.05537   0.68712   0.00000  Uiso   1.00
H246   H     0.33683   0.21161   0.76533   0.00000  Uiso   1.00
H247   H     0.34947   0.19459   0.81294   0.00000  Uiso   1.00
H248   H     0.11778   0.28336   0.21662   0.00000  Uiso   1.00
H249   H     0.15053   0.30541   0.18705   0.00000  Uiso   1.00
H250   H     0.16317   0.28839   0.23466   0.00000  Uiso   1.00
H251   H     0.28285   0.36575   0.77074   0.00000  Uiso   1.00
H252   H     0.30283   0.33805   0.80738   0.00000  Uiso   1.00
H253   H     0.30244   0.38654   0.81344   0.00000  Uiso   1.00
H254   H     0.21715   0.13426   0.22928   0.00000  Uiso   1.00
H255   H     0.19758   0.11347   0.18658   0.00000  Uiso   1.00
H256   H     0.41319   0.03840   0.73474   0.00000  Uiso   1.00
H257   H     0.19718   0.16196   0.19264   0.00000  Uiso   1.00
H258   H     0.11720   0.28388   0.78469   0.00000  Uiso   1.00
H259   H     0.16285   0.28861   0.76717   0.00000  Uiso   1.00
H260   H     0.14961   0.30634   0.81433   0.00000  Uiso   1.00
H261   H     0.38280   0.21611   0.21530   0.00000  Uiso   1.00
H262   H     0.35040   0.19365   0.18565   0.00000  Uiso   1.00
H263   H     0.33716   0.21138   0.23281   0.00000  Uiso   1.00
H264   H     0.21602   0.11750   0.78444   0.00000  Uiso   1.00
H265   H     0.21092   0.16332   0.76732   0.00000  Uiso   1.00
H266   H     0.19342   0.14967   0.81442   0.00000  Uiso   1.00
H267   H     0.03285   0.11575   0.27074   0.00000  Uiso   1.00
H268   H     0.28398   0.38250   0.21556   0.00000  Uiso   1.00
H269   H     0.30658   0.35034   0.18557   0.00000  Uiso   1.00
H270   H     0.28908   0.33668   0.23267   0.00000  Uiso   1.00
H271   H     0.36298   0.28098   0.24290   0.00000  Uiso   1.00
H272   H     0.33278   0.29711   0.20649   0.00000  Uiso   1.00
H273   H     0.38038   0.29486   0.19611   0.00000  Uiso   1.00
H274   H     0.13702   0.21902   0.75710   0.00000  Uiso   1.00
H275   H     0.11962   0.20515   0.80389   0.00000  Uiso   1.00
H276   H     0.16723   0.20289   0.79350   0.00000  Uiso   1.00
H277   H     0.28149   0.13783   0.24387   0.00000  Uiso   1.00
H278   H     0.05283   0.08804   0.30737   0.00000  Uiso   1.00
H279   H     0.29731   0.16778   0.20702   0.00000  Uiso   1.00
H280   H     0.29456   0.12004   0.19692   0.00000  Uiso   1.00
H281   H     0.21852   0.36217   0.75612   0.00000  Uiso   1.00
H282   H     0.20545   0.37996   0.80307   0.00000  Uiso   1.00
H283   H     0.20269   0.33221   0.79296   0.00000  Uiso   1.00
H284   H     0.11376   0.21284   0.20786   0.00000  Uiso   1.00
H285   H     0.16108   0.20832   0.21890   0.00000  Uiso   1.00
H286   H     0.14180   0.18717   0.17586   0.00000  Uiso   1.00
H287   H     0.38625   0.28717   0.79216   0.00000  Uiso   1.00
H288   H     0.35822   0.31285   0.82415   0.00000  Uiso   1.00
H289   H     0.05243   0.13653   0.31344   0.00000  Uiso   1.00
H290   H     0.33893   0.29169   0.78113   0.00000  Uiso   1.00
H291   H     0.21890   0.36235   0.24481   0.00000  Uiso   1.00
H292   H     0.20326   0.33169   0.20855   0.00000  Uiso   1.00
H293   H     0.20587   0.37925   0.19755   0.00000  Uiso   1.00
H294   H     0.28110   0.13765   0.75518   0.00000  Uiso   1.00
H295   H     0.29413   0.12076   0.80244   0.00000  Uiso   1.00
H296   H     0.29673   0.16831   0.79144   0.00000  Uiso   1.00
O297   O     0.25000   0.00000   0.25000   0.00000  Uiso   1.00
O298   O     0.25000   0.46963   0.66245   0.00000  Uiso   1.00
O299   O     0.46964   0.25000   0.33755   0.00000  Uiso   1.00
O300   O     0.03037   0.25000   0.66245   0.00000  Uiso   1.00
O301   O     0.00000   0.21963   0.83755   0.00000  Uiso   1.00
O302   O     0.00000   0.28036   0.16245   0.00000  Uiso   1.00
O303   O     0.28037   0.00000   0.83755   0.00000  Uiso   1.00
O304   O     0.21964   0.00000   0.16245   0.00000  Uiso   1.00
O305   O     0.00000   0.28036   0.83755   0.00000  Uiso   1.00
O306   O     0.00000   0.21963   0.16245   0.00000  Uiso   1.00
O307   O     0.21964   0.00000   0.83755   0.00000  Uiso   1.00
O308   O     0.25000   0.00000   0.75000   0.00000  Uiso   1.00
O309   O     0.28037   0.00000   0.16245   0.00000  Uiso   1.00
O310   O     0.20725   0.07308   0.27302   0.00000  Uiso   1.00
O311   O     0.29276   0.42692   0.72698   0.00000  Uiso   1.00
O312   O     0.42693   0.20724   0.27302   0.00000  Uiso   1.00
O313   O     0.07308   0.29275   0.72698   0.00000  Uiso   1.00
O314   O     0.29276   0.42692   0.27302   0.00000  Uiso   1.00
O315   O     0.20725   0.07308   0.72698   0.00000  Uiso   1.00
O316   O     0.07308   0.29275   0.27302   0.00000  Uiso   1.00
O317   O     0.42693   0.20724   0.72698   0.00000  Uiso   1.00
O318   O     0.20725   0.42692   0.72698   0.00000  Uiso   1.00
O319   O     0.00000   0.25000   0.25000   0.00000  Uiso   1.00
O320   O     0.29276   0.07308   0.27302   0.00000  Uiso   1.00
O321   O     0.42693   0.29275   0.72698   0.00000  Uiso   1.00
O322   O     0.07308   0.20724   0.27302   0.00000  Uiso   1.00
O323   O     0.29276   0.07308   0.72698   0.00000  Uiso   1.00
O324   O     0.20725   0.42692   0.27302   0.00000  Uiso   1.00
O325   O     0.07308   0.20724   0.72698   0.00000  Uiso   1.00
O326   O     0.42693   0.29275   0.27302   0.00000  Uiso   1.00
O327   O     0.45725   0.32307   0.77302   0.00000  Uiso   1.00
O328   O     0.04276   0.17692   0.22698   0.00000  Uiso   1.00
O329   O     0.17693   0.45724   0.77302   0.00000  Uiso   1.00
O330   O     0.00000   0.25000   0.75000   0.00000  Uiso   1.00
O331   O     0.32308   0.04276   0.22698   0.00000  Uiso   1.00
O332   O     0.04276   0.17692   0.77302   0.00000  Uiso   1.00
O333   O     0.45725   0.32307   0.22698   0.00000  Uiso   1.00
O334   O     0.32308   0.04276   0.77302   0.00000  Uiso   1.00
O335   O     0.17693   0.45724   0.22698   0.00000  Uiso   1.00
O336   O     0.45725   0.17693   0.22698   0.00000  Uiso   1.00
O337   O     0.04276   0.32307   0.77302   0.00000  Uiso   1.00
O338   O     0.17693   0.04276   0.22698   0.00000  Uiso   1.00
O339   O     0.32308   0.45724   0.77302   0.00000  Uiso   1.00
O340   O     0.04276   0.32307   0.22698   0.00000  Uiso   1.00
O341   O     0.25000   0.46963   0.33755   0.00000  Uiso   1.00
O342   O     0.45725   0.17693   0.77302   0.00000  Uiso   1.00
O343   O     0.32308   0.45724   0.22698   0.00000  Uiso   1.00
O344   O     0.17693   0.04276   0.77302   0.00000  Uiso   1.00
O345   O     0.25000   0.03037   0.66245   0.00000  Uiso   1.00
O346   O     0.03037   0.25000   0.33755   0.00000  Uiso   1.00
O347   O     0.46964   0.25000   0.66245   0.00000  Uiso   1.00
O348   O     0.25000   0.03037   0.33755   0.00000  Uiso   1.00
Zn349  Zn    0.20660   0.00000   0.21735   0.00000  Uiso   1.00
Zn350  Zn    0.04341   0.25000   0.28265   0.00000  Uiso   1.00
Zn351  Zn    0.25000   0.45659   0.71735   0.00000  Uiso   1.00
Zn352  Zn    0.25000   0.04341   0.28265   0.00000  Uiso   1.00
Zn353  Zn    0.04341   0.25000   0.71735   0.00000  Uiso   1.00
Zn354  Zn    0.45660   0.25000   0.28265   0.00000  Uiso   1.00
Zn355  Zn    0.25000   0.04341   0.71735   0.00000  Uiso   1.00
Zn356  Zn    0.25000   0.45659   0.28265   0.00000  Uiso   1.00
Zn357  Zn    0.29341   0.00000   0.78265   0.00000  Uiso   1.00
Zn358  Zn    0.00000   0.20659   0.21735   0.00000  Uiso   1.00
Zn359  Zn    0.00000   0.29340   0.78265   0.00000  Uiso   1.00
Zn360  Zn    0.29341   0.00000   0.21735   0.00000  Uiso   1.00
Zn361  Zn    0.20660   0.00000   0.78265   0.00000  Uiso   1.00
Zn362  Zn    0.00000   0.29340   0.21735   0.00000  Uiso   1.00
Zn363  Zn    0.00000   0.20659   0.78265   0.00000  Uiso   1.00
Zn364  Zn    0.45660   0.25000   0.71735   0.00000  Uiso   1.00
C365   C     0.97066   0.26576   0.41865   0.00000  Uiso   1.00
C366   C     0.77940   0.48435   0.08135   0.00000  Uiso   1.00
C367   C     0.73426   0.02972   0.54083   0.00000  Uiso   1.00
C368   C     0.97040   0.26589   0.45923   0.00000  Uiso   1.00
C369   C     0.52960   0.23411   0.54077   0.00000  Uiso   1.00
C370   C     0.73428   0.02974   0.45923   0.00000  Uiso   1.00
C371   C     0.76572   0.47026   0.54077   0.00000  Uiso   1.00
C372   C     0.77963   0.48418   0.95916   0.00000  Uiso   1.00
C373   C     0.72037   0.01582   0.04084   0.00000  Uiso   1.00
C374   C     0.51550   0.27983   0.95921   0.00000  Uiso   1.00
C375   C     0.98450   0.22017   0.04079   0.00000  Uiso   1.00
C376   C     0.72034   0.01577   0.95923   0.00000  Uiso   1.00
C377   C     0.98456   0.22047   0.91862   0.00000  Uiso   1.00
C378   C     0.77966   0.48423   0.04077   0.00000  Uiso   1.00
C379   C     0.98447   0.22019   0.95920   0.00000  Uiso   1.00
C380   C     0.51553   0.27981   0.04080   0.00000  Uiso   1.00
C381   C     0.59807   0.34808   0.24956   0.00000  Uiso   1.00
C382   C     0.90193   0.15192   0.75044   0.00000  Uiso   1.00
C383   C     0.65191   0.09804   0.25025   0.00000  Uiso   1.00
C384   C     0.84809   0.40196   0.74975   0.00000  Uiso   1.00
C385   C     0.90194   0.15191   0.24956   0.00000  Uiso   1.00
C386   C     0.59806   0.34809   0.75044   0.00000  Uiso   1.00
C387   C     0.84803   0.40190   0.24969   0.00000  Uiso   1.00
C388   C     0.51544   0.27953   0.08138   0.00000  Uiso   1.00
C389   C     0.65197   0.09810   0.75031   0.00000  Uiso   1.00
C390   C     0.59804   0.15190   0.74968   0.00000  Uiso   1.00
C391   C     0.90197   0.34810   0.25032   0.00000  Uiso   1.00
C392   C     0.65194   0.40191   0.74957   0.00000  Uiso   1.00
C393   C     0.84806   0.09809   0.25043   0.00000  Uiso   1.00
C394   C     0.90191   0.34804   0.75024   0.00000  Uiso   1.00
C395   C     0.59809   0.15196   0.24976   0.00000  Uiso   1.00
C396   C     0.84807   0.09808   0.74957   0.00000  Uiso   1.00
C397   C     0.65193   0.40192   0.25043   0.00000  Uiso   1.00
C398   C     0.99999   0.24999   0.47958   0.00000  Uiso   1.00
C399   C     0.77934   0.48427   0.91858   0.00000  Uiso   1.00
C400   C     0.50001   0.25001   0.52042   0.00000  Uiso   1.00
C401   C     0.75001   0.00001   0.47958   0.00000  Uiso   1.00
C402   C     0.75000   0.49999   0.52041   0.00000  Uiso   1.00
C403   C     0.74999   0.49999   0.97958   0.00000  Uiso   1.00
C404   C     0.75001   0.00001   0.02042   0.00000  Uiso   1.00
C405   C     0.99999   0.25001   0.97959   0.00000  Uiso   1.00
C406   C     0.50001   0.24999   0.02041   0.00000  Uiso   1.00
C407   C     0.60853   0.44784   0.28239   0.00000  Uiso   1.00
C408   C     0.89148   0.05215   0.71762   0.00000  Uiso   1.00
C409   C     0.55571   0.11430   0.29174   0.00000  Uiso   1.00
C410   C     0.72066   0.01573   0.08142   0.00000  Uiso   1.00
C411   C     0.94428   0.38569   0.70824   0.00000  Uiso   1.00
C412   C     0.89094   0.05264   0.28374   0.00000  Uiso   1.00
C413   C     0.60906   0.44736   0.71627   0.00000  Uiso   1.00
C414   C     0.94710   0.39116   0.28381   0.00000  Uiso   1.00
C415   C     0.55290   0.10884   0.71619   0.00000  Uiso   1.00
C416   C     0.61021   0.05129   0.71911   0.00000  Uiso   1.00
C417   C     0.88979   0.44870   0.28090   0.00000  Uiso   1.00
C418   C     0.55138   0.39033   0.71981   0.00000  Uiso   1.00
C419   C     0.94861   0.10967   0.28020   0.00000  Uiso   1.00
C420   C     0.88704   0.44350   0.70681   0.00000  Uiso   1.00
C421   C     0.51539   0.27957   0.91864   0.00000  Uiso   1.00
C422   C     0.61295   0.05649   0.29317   0.00000  Uiso   1.00
C423   C     0.94902   0.10935   0.72080   0.00000  Uiso   1.00
C424   C     0.55099   0.39065   0.27921   0.00000  Uiso   1.00
C425   C     0.85854   0.19783   0.78244   0.00000  Uiso   1.00
C426   C     0.64145   0.30217   0.21755   0.00000  Uiso   1.00
C427   C     0.80571   0.36431   0.79173   0.00000  Uiso   1.00
C428   C     0.69430   0.13570   0.20828   0.00000  Uiso   1.00
C429   C     0.64092   0.30265   0.78377   0.00000  Uiso   1.00
C430   C     0.85908   0.19734   0.21621   0.00000  Uiso   1.00
C431   C     0.69711   0.14117   0.78378   0.00000  Uiso   1.00
C432   C     0.98461   0.22043   0.08136   0.00000  Uiso   1.00
C433   C     0.80290   0.35883   0.21621   0.00000  Uiso   1.00
C434   C     0.86019   0.30128   0.21917   0.00000  Uiso   1.00
C435   C     0.63982   0.19872   0.78082   0.00000  Uiso   1.00
C436   C     0.80139   0.14032   0.21978   0.00000  Uiso   1.00
C437   C     0.69861   0.35967   0.78021   0.00000  Uiso   1.00
C438   C     0.63709   0.19355   0.20692   0.00000  Uiso   1.00
C439   C     0.86292   0.30646   0.79310   0.00000  Uiso   1.00
C440   C     0.69901   0.35935   0.22077   0.00000  Uiso   1.00
C441   C     0.80099   0.14065   0.77922   0.00000  Uiso   1.00
C442   C     0.99997   0.24997   0.39839   0.00000  Uiso   1.00
C443   C     0.50003   0.25003   0.60161   0.00000  Uiso   1.00
C444   C     0.75002   0.00002   0.39841   0.00000  Uiso   1.00
C445   C     0.52934   0.23424   0.58135   0.00000  Uiso   1.00
C446   C     0.74998   0.49998   0.60159   0.00000  Uiso   1.00
C447   C     0.74997   0.49997   0.89839   0.00000  Uiso   1.00
C448   C     0.75003   0.00003   0.10160   0.00000  Uiso   1.00
C449   C     0.99998   0.25002   0.89841   0.00000  Uiso   1.00
C450   C     0.50002   0.24998   0.10159   0.00000  Uiso   1.00
C451   C     0.55876   0.21833   0.47978   0.00000  Uiso   1.00
C452   C     0.94124   0.28167   0.52022   0.00000  Uiso   1.00
C453   C     0.78131   0.44094   0.47978   0.00000  Uiso   1.00
C454   C     0.71869   0.05906   0.52022   0.00000  Uiso   1.00
C455   C     0.94122   0.28165   0.47992   0.00000  Uiso   1.00
C456   C     0.73439   0.02947   0.41866   0.00000  Uiso   1.00
C457   C     0.55878   0.21835   0.52008   0.00000  Uiso   1.00
C458   C     0.71870   0.05907   0.47991   0.00000  Uiso   1.00
C459   C     0.78130   0.44093   0.52008   0.00000  Uiso   1.00
C460   C     0.80888   0.46856   0.97978   0.00000  Uiso   1.00
C461   C     0.69112   0.03144   0.02022   0.00000  Uiso   1.00
C462   C     0.53086   0.30925   0.97987   0.00000  Uiso   1.00
C463   C     0.96914   0.19075   0.02013   0.00000  Uiso   1.00
C464   C     0.69110   0.03141   0.97992   0.00000  Uiso   1.00
C465   C     0.80890   0.46859   0.02008   0.00000  Uiso   1.00
C466   C     0.96913   0.19076   0.97983   0.00000  Uiso   1.00
C467   C     0.76561   0.47053   0.58134   0.00000  Uiso   1.00
C468   C     0.53087   0.30924   0.02017   0.00000  Uiso   1.00
C469   C     0.75000   0.00001   0.35599   0.00000  Uiso   1.00
C470   C     0.75000   0.49999   0.64401   0.00000  Uiso   1.00
C471   C     0.99999   0.24999   0.35596   0.00000  Uiso   1.00
C472   C     0.50001   0.25001   0.64404   0.00000  Uiso   1.00
C473   C     0.99999   0.25001   0.85599   0.00000  Uiso   1.00
C474   C     0.50001   0.24999   0.14401   0.00000  Uiso   1.00
C475   C     0.74999   0.49999   0.85596   0.00000  Uiso   1.00
C476   C     0.75001   0.00001   0.14404   0.00000  Uiso   1.00
C477   C     0.68010   0.07000   0.24999   0.00000  Uiso   1.00
C478   C     0.52928   0.23416   0.41858   0.00000  Uiso   1.00
C479   C     0.81990   0.43000   0.75001   0.00000  Uiso   1.00
C480   C     0.93009   0.17999   0.24997   0.00000  Uiso   1.00
C481   C     0.56991   0.32001   0.75003   0.00000  Uiso   1.00
C482   C     0.81998   0.43007   0.25000   0.00000  Uiso   1.00
C483   C     0.68002   0.06993   0.75000   0.00000  Uiso   1.00
C484   C     0.56992   0.32000   0.24996   0.00000  Uiso   1.00
C485   C     0.93008   0.18000   0.75004   0.00000  Uiso   1.00
C486   C     0.68009   0.42999   0.74997   0.00000  Uiso   1.00
C487   C     0.81991   0.07001   0.25003   0.00000  Uiso   1.00
C488   C     0.93010   0.32000   0.74999   0.00000  Uiso   1.00
C489   C     0.97072   0.26584   0.58142   0.00000  Uiso   1.00
C490   C     0.56990   0.18000   0.25001   0.00000  Uiso   1.00
C491   C     0.81992   0.07000   0.74996   0.00000  Uiso   1.00
C492   C     0.68008   0.43000   0.25004   0.00000  Uiso   1.00
C493   C     0.56998   0.18007   0.75000   0.00000  Uiso   1.00
C494   C     0.93002   0.31993   0.25000   0.00000  Uiso   1.00
C495   C     0.61679   0.41042   0.26504   0.00000  Uiso   1.00
C496   C     0.88321   0.08958   0.73496   0.00000  Uiso   1.00
C497   C     0.59175   0.11911   0.27032   0.00000  Uiso   1.00
C498   C     0.90825   0.38088   0.72967   0.00000  Uiso   1.00
C499   C     0.88296   0.08981   0.26570   0.00000  Uiso   1.00
C500   C     0.76564   0.47056   0.41859   0.00000  Uiso   1.00
C501   C     0.61704   0.41019   0.73430   0.00000  Uiso   1.00
C502   C     0.91005   0.38307   0.26577   0.00000  Uiso   1.00
C503   C     0.58995   0.11693   0.73424   0.00000  Uiso   1.00
C504   C     0.61719   0.08962   0.73492   0.00000  Uiso   1.00
C505   C     0.88281   0.41038   0.26508   0.00000  Uiso   1.00
C506   C     0.58969   0.38303   0.73515   0.00000  Uiso   1.00
C507   C     0.91031   0.11697   0.26485   0.00000  Uiso   1.00
C508   C     0.88100   0.40821   0.72930   0.00000  Uiso   1.00
C509   C     0.61900   0.09179   0.27069   0.00000  Uiso   1.00
C510   C     0.91054   0.11677   0.73578   0.00000  Uiso   1.00
C511   C     0.73436   0.02944   0.58141   0.00000  Uiso   1.00
C512   C     0.58946   0.38323   0.26423   0.00000  Uiso   1.00
C513   C     0.86680   0.16041   0.76506   0.00000  Uiso   1.00
C514   C     0.63320   0.33959   0.23493   0.00000  Uiso   1.00
C515   C     0.84175   0.36911   0.77031   0.00000  Uiso   1.00
C516   C     0.65826   0.13089   0.22970   0.00000  Uiso   1.00
C517   C     0.63295   0.33981   0.76572   0.00000  Uiso   1.00
C518   C     0.86705   0.16019   0.23427   0.00000  Uiso   1.00
C519   C     0.66006   0.13307   0.76574   0.00000  Uiso   1.00
C520   C     0.83994   0.36693   0.23425   0.00000  Uiso   1.00
C521   C     0.86718   0.33961   0.23495   0.00000  Uiso   1.00
C522   C     0.72060   0.01565   0.91865   0.00000  Uiso   1.00
C523   C     0.63282   0.16039   0.76505   0.00000  Uiso   1.00
C524   C     0.83970   0.13303   0.23513   0.00000  Uiso   1.00
C525   C     0.66030   0.36697   0.76487   0.00000  Uiso   1.00
C526   C     0.63102   0.15822   0.22935   0.00000  Uiso   1.00
C527   C     0.86899   0.34178   0.77066   0.00000  Uiso   1.00
C528   C     0.66054   0.36678   0.23576   0.00000  Uiso   1.00
C529   C     0.83946   0.13322   0.76424   0.00000  Uiso   1.00
C530   C     0.52957   0.23407   0.45916   0.00000  Uiso   1.00
C531   C     0.97043   0.26593   0.54084   0.00000  Uiso   1.00
C532   C     0.76574   0.47028   0.45917   0.00000  Uiso   1.00
F533   F     0.58761   0.20284   0.46114   0.00000  Uiso   1.00
F534   F     0.66220   0.04681   0.03886   0.00000  Uiso   1.00
F535   F     0.54593   0.33835   0.96128   0.00000  Uiso   1.00
F536   F     0.95407   0.16165   0.03872   0.00000  Uiso   1.00
F537   F     0.66217   0.04676   0.96136   0.00000  Uiso   1.00
F538   F     0.83783   0.45324   0.03864   0.00000  Uiso   1.00
F539   F     0.95404   0.16167   0.96123   0.00000  Uiso   1.00
F540   F     0.54596   0.33833   0.03877   0.00000  Uiso   1.00
F541   F     0.94288   0.28174   0.39866   0.00000  Uiso   1.00
F542   F     0.55712   0.21826   0.60134   0.00000  Uiso   1.00
F543   F     0.71858   0.05739   0.39866   0.00000  Uiso   1.00
F544   F     0.91239   0.29716   0.53886   0.00000  Uiso   1.00
F545   F     0.78142   0.44261   0.60134   0.00000  Uiso   1.00
F546   F     0.55704   0.21816   0.39852   0.00000  Uiso   1.00
F547   F     0.94296   0.28184   0.60148   0.00000  Uiso   1.00
F548   F     0.78146   0.44265   0.39854   0.00000  Uiso   1.00
F549   F     0.71854   0.05735   0.60146   0.00000  Uiso   1.00
F550   F     0.69277   0.03153   0.89866   0.00000  Uiso   1.00
F551   F     0.80723   0.46847   0.10133   0.00000  Uiso   1.00
F552   F     0.96894   0.19247   0.89860   0.00000  Uiso   1.00
F553   F     0.53106   0.30753   0.10140   0.00000  Uiso   1.00
F554   F     0.80716   0.46837   0.89853   0.00000  Uiso   1.00
F555   F     0.79662   0.41195   0.46115   0.00000  Uiso   1.00
F556   F     0.69284   0.03163   0.10147   0.00000  Uiso   1.00
F557   F     0.53100   0.30758   0.89863   0.00000  Uiso   1.00
F558   F     0.96900   0.19242   0.10137   0.00000  Uiso   1.00
F559   F     0.70338   0.08805   0.53885   0.00000  Uiso   1.00
F560   F     0.91236   0.29711   0.46135   0.00000  Uiso   1.00
F561   F     0.58764   0.20289   0.53864   0.00000  Uiso   1.00
F562   F     0.70340   0.08807   0.46135   0.00000  Uiso   1.00
F563   F     0.79660   0.41193   0.53865   0.00000  Uiso   1.00
F564   F     0.83780   0.45319   0.96114   0.00000  Uiso   1.00
H565   H     0.63219   0.46667   0.28331   0.00000  Uiso   1.00
H566   H     0.96714   0.38424   0.72923   0.00000  Uiso   1.00
H567   H     0.94755   0.36345   0.68654   0.00000  Uiso   1.00
H568   H     0.94715   0.41194   0.69259   0.00000  Uiso   1.00
H569   H     0.86722   0.03387   0.28464   0.00000  Uiso   1.00
H570   H     0.91286   0.03862   0.26712   0.00000  Uiso   1.00
H571   H     0.89962   0.05632   0.31430   0.00000  Uiso   1.00
H572   H     0.63278   0.46613   0.71536   0.00000  Uiso   1.00
H573   H     0.60037   0.44369   0.68571   0.00000  Uiso   1.00
H574   H     0.58714   0.46139   0.73289   0.00000  Uiso   1.00
H575   H     0.96602   0.36751   0.28444   0.00000  Uiso   1.00
H576   H     0.58681   0.46160   0.26527   0.00000  Uiso   1.00
H577   H     0.96090   0.41333   0.26737   0.00000  Uiso   1.00
H578   H     0.94341   0.39964   0.31445   0.00000  Uiso   1.00
H579   H     0.53398   0.13249   0.71556   0.00000  Uiso   1.00
H580   H     0.55658   0.10036   0.68555   0.00000  Uiso   1.00
H581   H     0.53909   0.08666   0.73264   0.00000  Uiso   1.00
H582   H     0.61300   0.03098   0.74282   0.00000  Uiso   1.00
H583   H     0.58280   0.04713   0.70642   0.00000  Uiso   1.00
H584   H     0.63041   0.04490   0.69605   0.00000  Uiso   1.00
H585   H     0.88700   0.46902   0.25719   0.00000  Uiso   1.00
H586   H     0.86958   0.45510   0.30395   0.00000  Uiso   1.00
H587   H     0.59945   0.44462   0.31289   0.00000  Uiso   1.00
H588   H     0.91719   0.45287   0.29359   0.00000  Uiso   1.00
H589   H     0.53148   0.38783   0.74391   0.00000  Uiso   1.00
H590   H     0.54730   0.41779   0.70706   0.00000  Uiso   1.00
H591   H     0.54454   0.37005   0.69695   0.00000  Uiso   1.00
H592   H     0.96852   0.11217   0.25611   0.00000  Uiso   1.00
H593   H     0.95546   0.12996   0.30305   0.00000  Uiso   1.00
H594   H     0.95270   0.08221   0.29295   0.00000  Uiso   1.00
H595   H     0.86370   0.46279   0.70773   0.00000  Uiso   1.00
H596   H     0.91103   0.45831   0.71876   0.00000  Uiso   1.00
H597   H     0.89174   0.43708   0.67577   0.00000  Uiso   1.00
H598   H     0.86781   0.03333   0.71669   0.00000  Uiso   1.00
H599   H     0.63630   0.03721   0.29225   0.00000  Uiso   1.00
H600   H     0.60824   0.06290   0.32421   0.00000  Uiso   1.00
H601   H     0.58897   0.04168   0.28120   0.00000  Uiso   1.00
H602   H     0.96890   0.11235   0.74484   0.00000  Uiso   1.00
H603   H     0.95328   0.08168   0.70858   0.00000  Uiso   1.00
H604   H     0.95588   0.12924   0.69758   0.00000  Uiso   1.00
H605   H     0.53110   0.38765   0.25517   0.00000  Uiso   1.00
H606   H     0.54412   0.37076   0.30243   0.00000  Uiso   1.00
H607   H     0.54673   0.41831   0.29143   0.00000  Uiso   1.00
H608   H     0.88222   0.21664   0.78338   0.00000  Uiso   1.00
H609   H     0.90055   0.05537   0.68712   0.00000  Uiso   1.00
H610   H     0.83683   0.21161   0.76533   0.00000  Uiso   1.00
H611   H     0.84947   0.19459   0.81294   0.00000  Uiso   1.00
H612   H     0.61778   0.28336   0.21662   0.00000  Uiso   1.00
H613   H     0.65053   0.30541   0.18705   0.00000  Uiso   1.00
H614   H     0.66317   0.28839   0.23466   0.00000  Uiso   1.00
H615   H     0.78285   0.36575   0.77074   0.00000  Uiso   1.00
H616   H     0.80283   0.33805   0.80738   0.00000  Uiso   1.00
H617   H     0.80244   0.38654   0.81344   0.00000  Uiso   1.00
H618   H     0.71715   0.13426   0.22928   0.00000  Uiso   1.00
H619   H     0.69758   0.11347   0.18658   0.00000  Uiso   1.00
H620   H     0.91319   0.03840   0.73474   0.00000  Uiso   1.00
H621   H     0.69718   0.16196   0.19264   0.00000  Uiso   1.00
H622   H     0.61720   0.28388   0.78469   0.00000  Uiso   1.00
H623   H     0.66285   0.28861   0.76717   0.00000  Uiso   1.00
H624   H     0.64961   0.30634   0.81433   0.00000  Uiso   1.00
H625   H     0.88280   0.21611   0.21530   0.00000  Uiso   1.00
H626   H     0.85040   0.19365   0.18565   0.00000  Uiso   1.00
H627   H     0.83716   0.21138   0.23281   0.00000  Uiso   1.00
H628   H     0.71602   0.11750   0.78444   0.00000  Uiso   1.00
H629   H     0.71092   0.16332   0.76732   0.00000  Uiso   1.00
H630   H     0.69342   0.14967   0.81442   0.00000  Uiso   1.00
H631   H     0.53285   0.11575   0.27074   0.00000  Uiso   1.00
H632   H     0.78398   0.38250   0.21556   0.00000  Uiso   1.00
H633   H     0.80658   0.35034   0.18557   0.00000  Uiso   1.00
H634   H     0.78908   0.33668   0.23267   0.00000  Uiso   1.00
H635   H     0.86298   0.28098   0.24290   0.00000  Uiso   1.00
H636   H     0.83278   0.29711   0.20649   0.00000  Uiso   1.00
H637   H     0.88038   0.29486   0.19611   0.00000  Uiso   1.00
H638   H     0.63702   0.21902   0.75710   0.00000  Uiso   1.00
H639   H     0.61962   0.20515   0.80389   0.00000  Uiso   1.00
H640   H     0.66723   0.20289   0.79350   0.00000  Uiso   1.00
H641   H     0.78149   0.13783   0.24387   0.00000  Uiso   1.00
H642   H     0.55283   0.08804   0.30737   0.00000  Uiso   1.00
H643   H     0.79731   0.16778   0.20702   0.00000  Uiso   1.00
H644   H     0.79456   0.12004   0.19692   0.00000  Uiso   1.00
H645   H     0.71852   0.36217   0.75612   0.00000  Uiso   1.00
H646   H     0.70545   0.37996   0.80307   0.00000  Uiso   1.00
H647   H     0.70269   0.33221   0.79296   0.00000  Uiso   1.00
H648   H     0.61376   0.21284   0.20786   0.00000  Uiso   1.00
H649   H     0.66108   0.20832   0.21890   0.00000  Uiso   1.00
H650   H     0.64180   0.18717   0.17586   0.00000  Uiso   1.00
H651   H     0.88625   0.28717   0.79216   0.00000  Uiso   1.00
H652   H     0.85822   0.31285   0.82415   0.00000  Uiso   1.00
H653   H     0.55243   0.13653   0.31344   0.00000  Uiso   1.00
H654   H     0.83893   0.29169   0.78113   0.00000  Uiso   1.00
H655   H     0.71890   0.36235   0.24481   0.00000  Uiso   1.00
H656   H     0.70326   0.33169   0.20855   0.00000  Uiso   1.00
H657   H     0.70587   0.37925   0.19755   0.00000  Uiso   1.00
H658   H     0.78110   0.13765   0.75518   0.00000  Uiso   1.00
H659   H     0.79413   0.12076   0.80244   0.00000  Uiso   1.00
H660   H     0.79673   0.16831   0.79144   0.00000  Uiso   1.00
O661   O     0.75000   0.00000   0.25000   0.00000  Uiso   1.00
O662   O     0.75000   0.46963   0.66245   0.00000  Uiso   1.00
O663   O     0.96964   0.25000   0.33755   0.00000  Uiso   1.00
O664   O     0.53037   0.25000   0.66245   0.00000  Uiso   1.00
O665   O     0.50000   0.21963   0.83755   0.00000  Uiso   1.00
O666   O     0.50000   0.28036   0.16245   0.00000  Uiso   1.00
O667   O     0.78037   0.00000   0.83755   0.00000  Uiso   1.00
O668   O     0.71964   0.00000   0.16245   0.00000  Uiso   1.00
O669   O     0.50000   0.28036   0.83755   0.00000  Uiso   1.00
O670   O     0.50000   0.21963   0.16245   0.00000  Uiso   1.00
O671   O     0.71964   0.00000   0.83755   0.00000  Uiso   1.00
O672   O     0.75000   0.00000   0.75000   0.00000  Uiso   1.00
O673   O     0.78037   0.00000   0.16245   0.00000  Uiso   1.00
O674   O     0.70725   0.07308   0.27302   0.00000  Uiso   1.00
O675   O     0.79276   0.42692   0.72698   0.00000  Uiso   1.00
O676   O     0.92693   0.20724   0.27302   0.00000  Uiso   1.00
O677   O     0.57308   0.29275   0.72698   0.00000  Uiso   1.00
O678   O     0.79276   0.42692   0.27302   0.00000  Uiso   1.00
O679   O     0.70725   0.07308   0.72698   0.00000  Uiso   1.00
O680   O     0.57308   0.29275   0.27302   0.00000  Uiso   1.00
O681   O     0.92693   0.20724   0.72698   0.00000  Uiso   1.00
O682   O     0.70725   0.42692   0.72698   0.00000  Uiso   1.00
O683   O     0.50000   0.25000   0.25000   0.00000  Uiso   1.00
O684   O     0.79276   0.07308   0.27302   0.00000  Uiso   1.00
O685   O     0.92693   0.29275   0.72698   0.00000  Uiso   1.00
O686   O     0.57308   0.20724   0.27302   0.00000  Uiso   1.00
O687   O     0.79276   0.07308   0.72698   0.00000  Uiso   1.00
O688   O     0.70725   0.42692   0.27302   0.00000  Uiso   1.00
O689   O     0.57308   0.20724   0.72698   0.00000  Uiso   1.00
O690   O     0.92693   0.29275   0.27302   0.00000  Uiso   1.00
O691   O     0.95725   0.32307   0.77302   0.00000  Uiso   1.00
O692   O     0.54276   0.17692   0.22698   0.00000  Uiso   1.00
O693   O     0.67693   0.45724   0.77302   0.00000  Uiso   1.00
O694   O     0.50000   0.25000   0.75000   0.00000  Uiso   1.00
O695   O     0.82308   0.04276   0.22698   0.00000  Uiso   1.00
O696   O     0.54276   0.17692   0.77302   0.00000  Uiso   1.00
O697   O     0.95725   0.32307   0.22698   0.00000  Uiso   1.00
O698   O     0.82308   0.04276   0.77302   0.00000  Uiso   1.00
O699   O     0.67693   0.45724   0.22698   0.00000  Uiso   1.00
O700   O     0.95725   0.17693   0.22698   0.00000  Uiso   1.00
O701   O     0.54276   0.32307   0.77302   0.00000  Uiso   1.00
O702   O     0.67693   0.04276   0.22698   0.00000  Uiso   1.00
O703   O     0.82308   0.45724   0.77302   0.00000  Uiso   1.00
O704   O     0.54276   0.32307   0.22698   0.00000  Uiso   1.00
O705   O     0.75000   0.46963   0.33755   0.00000  Uiso   1.00
O706   O     0.95725   0.17693   0.77302   0.00000  Uiso   1.00
O707   O     0.82308   0.45724   0.22698   0.00000  Uiso   1.00
O708   O     0.67693   0.04276   0.77302   0.00000  Uiso   1.00
O709   O     0.75000   0.03037   0.66245   0.00000  Uiso   1.00
O710   O     0.53037   0.25000   0.33755   0.00000  Uiso   1.00
O711   O     0.96964   0.25000   0.66245   0.00000  Uiso   1.00
O712   O     0.75000   0.03037   0.33755   0.00000  Uiso   1.00
Zn713  Zn    0.70660   0.00000   0.21735   0.00000  Uiso   1.00
Zn714  Zn    0.54341   0.25000   0.28265   0.00000  Uiso   1.00
Zn715  Zn    0.75000   0.45659   0.71735   0.00000  Uiso   1.00
Zn716  Zn    0.75000   0.04341   0.28265   0.00000  Uiso   1.00
Zn717  Zn    0.54341   0.25000   0.71735   0.00000  Uiso   1.00
Zn718  Zn    0.95660   0.25000   0.28265   0.00000  Uiso   1.00
Zn719  Zn    0.75000   0.04341   0.71735   0.00000  Uiso   1.00
Zn720  Zn    0.75000   0.45659   0.28265   0.00000  Uiso   1.00
Zn721  Zn    0.79341   0.00000   0.78265   0.00000  Uiso   1.00
Zn722  Zn    0.50000   0.20659   0.21735   0.00000  Uiso   1.00
Zn723  Zn    0.50000   0.29340   0.78265   0.00000  Uiso   1.00
Zn724  Zn    0.79341   0.00000   0.21735   0.00000  Uiso   1.00
Zn725  Zn    0.70660   0.00000   0.78265   0.00000  Uiso   1.00
Zn726  Zn    0.50000   0.29340   0.21735   0.00000  Uiso   1.00
Zn727  Zn    0.50000   0.20659   0.78265   0.00000  Uiso   1.00
Zn728  Zn    0.95660   0.25000   0.71735   0.00000  Uiso   1.00
C729   C     0.47066   0.76576   0.41865   0.00000  Uiso   1.00
C730   C     0.27940   0.98435   0.08135   0.00000  Uiso   1.00
C731   C     0.23426   0.52972   0.54083   0.00000  Uiso   1.00
C732   C     0.47040   0.76589   0.45923   0.00000  Uiso   1.00
C733   C     0.02960   0.73411   0.54077   0.00000  Uiso   1.00
C734   C     0.23428   0.52974   0.45923   0.00000  Uiso   1.00
C735   C     0.26572   0.97026   0.54077   0.00000  Uiso   1.00
C736   C     0.27963   0.98418   0.95916   0.00000  Uiso   1.00
C737   C     0.22037   0.51582   0.04084   0.00000  Uiso   1.00
C738   C     0.01550   0.77983   0.95921   0.00000  Uiso   1.00
C739   C     0.48450   0.72017   0.04079   0.00000  Uiso   1.00
C740   C     0.22034   0.51577   0.95923   0.00000  Uiso   1.00
C741   C     0.48456   0.72047   0.91862   0.00000  Uiso   1.00
C742   C     0.27966   0.98423   0.04077   0.00000  Uiso   1.00
C743   C     0.48447   0.72019   0.95920   0.00000  Uiso   1.00
C744   C     0.01553   0.77981   0.04080   0.00000  Uiso   1.00
C745   C     0.09807   0.84808   0.24956   0.00000  Uiso   1.00
C746   C     0.40193   0.65192   0.75044   0.00000  Uiso   1.00
C747   C     0.15191   0.59804   0.25025   0.00000  Uiso   1.00
C748   C     0.34809   0.90196   0.74975   0.00000  Uiso   1.00
C749   C     0.40194   0.65191   0.24956   0.00000  Uiso   1.00
C750   C     0.09806   0.84809   0.75044   0.00000  Uiso   1.00
C751   C     0.34803   0.90190   0.24969   0.00000  Uiso   1.00
C752   C     0.01544   0.77953   0.08138   0.00000  Uiso   1.00
C753   C     0.15197   0.59810   0.75031   0.00000  Uiso   1.00
C754   C     0.09804   0.65190   0.74968   0.00000  Uiso   1.00
C755   C     0.40197   0.84810   0.25032   0.00000  Uiso   1.00
C756   C     0.15194   0.90191   0.74957   0.00000  Uiso   1.00
C757   C     0.34806   0.59809   0.25043   0.00000  Uiso   1.00
C758   C     0.40191   0.84804   0.75024   0.00000  Uiso   1.00
C759   C     0.09809   0.65196   0.24976   0.00000  Uiso   1.00
C760   C     0.34807   0.59808   0.74957   0.00000  Uiso   1.00
C761   C     0.15193   0.90192   0.25043   0.00000  Uiso   1.00
C762   C     0.49999   0.74999   0.47958   0.00000  Uiso   1.00
C763   C     0.27934   0.98427   0.91858   0.00000  Uiso   1.00
C764   C     0.00001   0.75001   0.52042   0.00000  Uiso   1.00
C765   C     0.25001   0.50001   0.47958   0.00000  Uiso   1.00
C766   C     0.25000   0.99999   0.52041   0.00000  Uiso   1.00
C767   C     0.24999   0.99999   0.97958   0.00000  Uiso   1.00
C768   C     0.25001   0.50001   0.02042   0.00000  Uiso   1.00
C769   C     0.49999   0.75001   0.97959   0.00000  Uiso   1.00
C770   C     0.00001   0.74999   0.02041   0.00000  Uiso   1.00
C771   C     0.10853   0.94784   0.28239   0.00000  Uiso   1.00
C772   C     0.39148   0.55215   0.71762   0.00000  Uiso   1.00
C773   C     0.05571   0.61430   0.29174   0.00000  Uiso   1.00
C774   C     0.22066   0.51573   0.08142   0.00000  Uiso   1.00
C775   C     0.44428   0.88569   0.70824   0.00000  Uiso   1.00
C776   C     0.39094   0.55264   0.28374   0.00000  Uiso   1.00
C777   C     0.10906   0.94736   0.71627   0.00000  Uiso   1.00
C778   C     0.44710   0.89116   0.28381   0.00000  Uiso   1.00
C779   C     0.05290   0.60884   0.71619   0.00000  Uiso   1.00
C780   C     0.11021   0.55129   0.71911   0.00000  Uiso   1.00
C781   C     0.38979   0.94870   0.28090   0.00000  Uiso   1.00
C782   C     0.05138   0.89033   0.71981   0.00000  Uiso   1.00
C783   C     0.44861   0.60967   0.28020   0.00000  Uiso   1.00
C784   C     0.38704   0.94350   0.70681   0.00000  Uiso   1.00
C785   C     0.01539   0.77957   0.91864   0.00000  Uiso   1.00
C786   C     0.11295   0.55649   0.29317   0.00000  Uiso   1.00
C787   C     0.44902   0.60935   0.72080   0.00000  Uiso   1.00
C788   C     0.05099   0.89065   0.27921   0.00000  Uiso   1.00
C789   C     0.35854   0.69783   0.78244   0.00000  Uiso   1.00
C790   C     0.14145   0.80217   0.21755   0.00000  Uiso   1.00
C791   C     0.30571   0.86431   0.79173   0.00000  Uiso   1.00
C792   C     0.19430   0.63570   0.20828   0.00000  Uiso   1.00
C793   C     0.14092   0.80265   0.78377   0.00000  Uiso   1.00
C794   C     0.35908   0.69734   0.21621   0.00000  Uiso   1.00
C795   C     0.19711   0.64117   0.78378   0.00000  Uiso   1.00
C796   C     0.48461   0.72043   0.08136   0.00000  Uiso   1.00
C797   C     0.30290   0.85883   0.21621   0.00000  Uiso   1.00
C798   C     0.36019   0.80128   0.21917   0.00000  Uiso   1.00
C799   C     0.13982   0.69872   0.78082   0.00000  Uiso   1.00
C800   C     0.30139   0.64032   0.21978   0.00000  Uiso   1.00
C801   C     0.19861   0.85967   0.78021   0.00000  Uiso   1.00
C802   C     0.13709   0.69355   0.20692   0.00000  Uiso   1.00
C803   C     0.36292   0.80646   0.79310   0.00000  Uiso   1.00
C804   C     0.19901   0.85935   0.22077   0.00000  Uiso   1.00
C805   C     0.30099   0.64065   0.77922   0.00000  Uiso   1.00
C806   C     0.49997   0.74997   0.39839   0.00000  Uiso   1.00
C807   C     0.00003   0.75003   0.60161   0.00000  Uiso   1.00
C808   C     0.25002   0.50002   0.39841   0.00000  Uiso   1.00
C809   C     0.02934   0.73424   0.58135   0.00000  Uiso   1.00
C810   C     0.24998   0.99998   0.60159   0.00000  Uiso   1.00
C811   C     0.24997   0.99997   0.89839   0.00000  Uiso   1.00
C812   C     0.25003   0.50003   0.10160   0.00000  Uiso   1.00
C813   C     0.49998   0.75002   0.89841   0.00000  Uiso   1.00
C814   C     0.00002   0.74998   0.10159   0.00000  Uiso   1.00
C815   C     0.05876   0.71833   0.47978   0.00000  Uiso   1.00
C816   C     0.44124   0.78167   0.52022   0.00000  Uiso   1.00
C817   C     0.28131   0.94094   0.47978   0.00000  Uiso   1.00
C818   C     0.21869   0.55906   0.52022   0.00000  Uiso   1.00
C819   C     0.44122   0.78165   0.47992   0.00000  Uiso   1.00
C820   C     0.23439   0.52947   0.41866   0.00000  Uiso   1.00
C821   C     0.05878   0.71835   0.52008   0.00000  Uiso   1.00
C822   C     0.21870   0.55907   0.47991   0.00000  Uiso   1.00
C823   C     0.28130   0.94093   0.52008   0.00000  Uiso   1.00
C824   C     0.30888   0.96856   0.97978   0.00000  Uiso   1.00
C825   C     0.19112   0.53144   0.02022   0.00000  Uiso   1.00
C826   C     0.03086   0.80925   0.97987   0.00000  Uiso   1.00
C827   C     0.46914   0.69075   0.02013   0.00000  Uiso   1.00
C828   C     0.19110   0.53141   0.97992   0.00000  Uiso   1.00
C829   C     0.30890   0.96859   0.02008   0.00000  Uiso   1.00
C830   C     0.46913   0.69076   0.97983   0.00000  Uiso   1.00
C831   C     0.26561   0.97053   0.58134   0.00000  Uiso   1.00
C832   C     0.03087   0.80924   0.02017   0.00000  Uiso   1.00
C833   C     0.25000   0.50001   0.35599   0.00000  Uiso   1.00
C834   C     0.25000   0.99999   0.64401   0.00000  Uiso   1.00
C835   C     0.49999   0.74999   0.35596   0.00000  Uiso   1.00
C836   C     0.00001   0.75001   0.64404   0.00000  Uiso   1.00
C837   C     0.49999   0.75001   0.85599   0.00000  Uiso   1.00
C838   C     0.00001   0.74999   0.14401   0.00000  Uiso   1.00
C839   C     0.24999   0.99999   0.85596   0.00000  Uiso   1.00
C840   C     0.25001   0.50001   0.14404   0.00000  Uiso   1.00
C841   C     0.18010   0.57000   0.24999   0.00000  Uiso   1.00
C842   C     0.02928   0.73416   0.41858   0.00000  Uiso   1.00
C843   C     0.31990   0.93000   0.75001   0.00000  Uiso   1.00
C844   C     0.43009   0.67999   0.24997   0.00000  Uiso   1.00
C845   C     0.06991   0.82001   0.75003   0.00000  Uiso   1.00
C846   C     0.31998   0.93007   0.25000   0.00000  Uiso   1.00
C847   C     0.18002   0.56993   0.75000   0.00000  Uiso   1.00
C848   C     0.06992   0.82000   0.24996   0.00000  Uiso   1.00
C849   C     0.43008   0.68000   0.75004   0.00000  Uiso   1.00
C850   C     0.18009   0.92999   0.74997   0.00000  Uiso   1.00
C851   C     0.31991   0.57001   0.25003   0.00000  Uiso   1.00
C852   C     0.43010   0.82000   0.74999   0.00000  Uiso   1.00
C853   C     0.47072   0.76584   0.58142   0.00000  Uiso   1.00
C854   C     0.06990   0.68000   0.25001   0.00000  Uiso   1.00
C855   C     0.31992   0.57000   0.74996   0.00000  Uiso   1.00
C856   C     0.18008   0.93000   0.25004   0.00000  Uiso   1.00
C857   C     0.06998   0.68007   0.75000   0.00000  Uiso   1.00
C858   C     0.43002   0.81993   0.25000   0.00000  Uiso   1.00
C859   C     0.11679   0.91042   0.26504   0.00000  Uiso   1.00
C860   C     0.38321   0.58958   0.73496   0.00000  Uiso   1.00
C861   C     0.09175   0.61911   0.27032   0.00000  Uiso   1.00
C862   C     0.40825   0.88088   0.72967   0.00000  Uiso   1.00
C863   C     0.38296   0.58981   0.26570   0.00000  Uiso   1.00
C864   C     0.26564   0.97056   0.41859   0.00000  Uiso   1.00
C865   C     0.11704   0.91019   0.73430   0.00000  Uiso   1.00
C866   C     0.41005   0.88307   0.26577   0.00000  Uiso   1.00
C867   C     0.08995   0.61693   0.73424   0.00000  Uiso   1.00
C868   C     0.11719   0.58962   0.73492   0.00000  Uiso   1.00
C869   C     0.38281   0.91038   0.26508   0.00000  Uiso   1.00
C870   C     0.08969   0.88303   0.73515   0.00000  Uiso   1.00
C871   C     0.41031   0.61697   0.26485   0.00000  Uiso   1.00
C872   C     0.38100   0.90821   0.72930   0.00000  Uiso   1.00
C873   C     0.11900   0.59179   0.27069   0.00000  Uiso   1.00
C874   C     0.41054   0.61677   0.73578   0.00000  Uiso   1.00
C875   C     0.23436   0.52944   0.58141   0.00000  Uiso   1.00
C876   C     0.08946   0.88323   0.26423   0.00000  Uiso   1.00
C877   C     0.36680   0.66041   0.76506   0.00000  Uiso   1.00
C878   C     0.13320   0.83959   0.23493   0.00000  Uiso   1.00
C879   C     0.34175   0.86911   0.77031   0.00000  Uiso   1.00
C880   C     0.15826   0.63089   0.22970   0.00000  Uiso   1.00
C881   C     0.13295   0.83981   0.76572   0.00000  Uiso   1.00
C882   C     0.36705   0.66019   0.23427   0.00000  Uiso   1.00
C883   C     0.16006   0.63307   0.76574   0.00000  Uiso   1.00
C884   C     0.33994   0.86693   0.23425   0.00000  Uiso   1.00
C885   C     0.36718   0.83961   0.23495   0.00000  Uiso   1.00
C886   C     0.22060   0.51565   0.91865   0.00000  Uiso   1.00
C887   C     0.13282   0.66039   0.76505   0.00000  Uiso   1.00
C888   C     0.33970   0.63303   0.23513   0.00000  Uiso   1.00
C889   C     0.16030   0.86697   0.76487   0.00000  Uiso   1.00
C890   C     0.13102   0.65822   0.22935   0.00000  Uiso   1.00
C891   C     0.36899   0.84178   0.77066   0.00000  Uiso   1.00
C892   C     0.16054   0.86678   0.23576   0.00000  Uiso   1.00
C893   C     0.33946   0.63322   0.76424   0.00000  Uiso   1.00
C894   C     0.02957   0.73407   0.45916   0.00000  Uiso   1.00
C895   C     0.47043   0.76593   0.54084   0.00000  Uiso   1.00
C896   C     0.26574   0.97028   0.45917   0.00000  Uiso   1.00
F897   F     0.08761   0.70284   0.46114   0.00000  Uiso   1.00
F898   F     0.16220   0.54681   0.03886   0.00000  Uiso   1.00
F899   F     0.04593   0.83835   0.96128   0.00000  Uiso   1.00
F900   F     0.45407   0.66165   0.03872   0.00000  Uiso   1.00
F901   F     0.16217   0.54676   0.96136   0.00000  Uiso   1.00
F902   F     0.33783   0.95324   0.03864   0.00000  Uiso   1.00
F903   F     0.45404   0.66167   0.96123   0.00000  Uiso   1.00
F904   F     0.04596   0.83833   0.03877   0.00000  Uiso   1.00
F905   F     0.44288   0.78174   0.39866   0.00000  Uiso   1.00
F906   F     0.05712   0.71826   0.60134   0.00000  Uiso   1.00
F907   F     0.21858   0.55739   0.39866   0.00000  Uiso   1.00
F908   F     0.41239   0.79716   0.53886   0.00000  Uiso   1.00
F909   F     0.28142   0.94261   0.60134   0.00000  Uiso   1.00
F910   F     0.05704   0.71816   0.39852   0.00000  Uiso   1.00
F911   F     0.44296   0.78184   0.60148   0.00000  Uiso   1.00
F912   F     0.28146   0.94265   0.39854   0.00000  Uiso   1.00
F913   F     0.21854   0.55735   0.60146   0.00000  Uiso   1.00
F914   F     0.19277   0.53153   0.89866   0.00000  Uiso   1.00
F915   F     0.30723   0.96847   0.10133   0.00000  Uiso   1.00
F916   F     0.46894   0.69247   0.89860   0.00000  Uiso   1.00
F917   F     0.03106   0.80753   0.10140   0.00000  Uiso   1.00
F918   F     0.30716   0.96837   0.89853   0.00000  Uiso   1.00
F919   F     0.29662   0.91195   0.46115   0.00000  Uiso   1.00
F920   F     0.19284   0.53163   0.10147   0.00000  Uiso   1.00
F921   F     0.03100   0.80758   0.89863   0.00000  Uiso   1.00
F922   F     0.46900   0.69242   0.10137   0.00000  Uiso   1.00
F923   F     0.20338   0.58805   0.53885   0.00000  Uiso   1.00
F924   F     0.41236   0.79711   0.46135   0.00000  Uiso   1.00
F925   F     0.08764   0.70289   0.53864   0.00000  Uiso   1.00
F926   F     0.20340   0.58807   0.46135   0.00000  Uiso   1.00
F927   F     0.29660   0.91193   0.53865   0.00000  Uiso   1.00
F928   F     0.33780   0.95319   0.96114   0.00000  Uiso   1.00
H929   H     0.13219   0.96667   0.28331   0.00000  Uiso   1.00
H930   H     0.46714   0.88424   0.72923   0.00000  Uiso   1.00
H931   H     0.44755   0.86345   0.68654   0.00000  Uiso   1.00
H932   H     0.44715   0.91194   0.69259   0.00000  Uiso   1.00
H933   H     0.36722   0.53387   0.28464   0.00000  Uiso   1.00
H934   H     0.41286   0.53862   0.26712   0.00000  Uiso   1.00
H935   H     0.39962   0.55632   0.31430   0.00000  Uiso   1.00
H936   H     0.13278   0.96613   0.71536   0.00000  Uiso   1.00
H937   H     0.10037   0.94369   0.68571   0.00000  Uiso   1.00
H938   H     0.08714   0.96139   0.73289   0.00000  Uiso   1.00
H939   H     0.46602   0.86751   0.28444   0.00000  Uiso   1.00
H940   H     0.08681   0.96160   0.26527   0.00000  Uiso   1.00
H941   H     0.46090   0.91333   0.26737   0.00000  Uiso   1.00
H942   H     0.44341   0.89964   0.31445   0.00000  Uiso   1.00
H943   H     0.03398   0.63249   0.71556   0.00000  Uiso   1.00
H944   H     0.05658   0.60036   0.68555   0.00000  Uiso   1.00
H945   H     0.03909   0.58666   0.73264   0.00000  Uiso   1.00
H946   H     0.11300   0.53098   0.74282   0.00000  Uiso   1.00
H947   H     0.08280   0.54713   0.70642   0.00000  Uiso   1.00
H948   H     0.13041   0.54490   0.69605   0.00000  Uiso   1.00
H949   H     0.38700   0.96902   0.25719   0.00000  Uiso   1.00
H950   H     0.36958   0.95510   0.30395   0.00000  Uiso   1.00
H951   H     0.09945   0.94462   0.31289   0.00000  Uiso   1.00
H952   H     0.41719   0.95287   0.29359   0.00000  Uiso   1.00
H953   H     0.03148   0.88783   0.74391   0.00000  Uiso   1.00
H954   H     0.04730   0.91779   0.70706   0.00000  Uiso   1.00
H955   H     0.04454   0.87005   0.69695   0.00000  Uiso   1.00
H956   H     0.46852   0.61217   0.25611   0.00000  Uiso   1.00
H957   H     0.45546   0.62996   0.30305   0.00000  Uiso   1.00
H958   H     0.45270   0.58221   0.29295   0.00000  Uiso   1.00
H959   H     0.36370   0.96279   0.70773   0.00000  Uiso   1.00
H960   H     0.41103   0.95831   0.71876   0.00000  Uiso   1.00
H961   H     0.39174   0.93708   0.67577   0.00000  Uiso   1.00
H962   H     0.36781   0.53333   0.71669   0.00000  Uiso   1.00
H963   H     0.13630   0.53721   0.29225   0.00000  Uiso   1.00
H964   H     0.10824   0.56290   0.32421   0.00000  Uiso   1.00
H965   H     0.08897   0.54168   0.28120   0.00000  Uiso   1.00
H966   H     0.46890   0.61235   0.74484   0.00000  Uiso   1.00
H967   H     0.45328   0.58168   0.70858   0.00000  Uiso   1.00
H968   H     0.45588   0.62924   0.69758   0.00000  Uiso   1.00
H969   H     0.03110   0.88765   0.25517   0.00000  Uiso   1.00
H970   H     0.04412   0.87076   0.30243   0.00000  Uiso   1.00
H971   H     0.04673   0.91831   0.29143   0.00000  Uiso   1.00
H972   H     0.38222   0.71664   0.78338   0.00000  Uiso   1.00
H973   H     0.40055   0.55537   0.68712   0.00000  Uiso   1.00
H974   H     0.33683   0.71161   0.76533   0.00000  Uiso   1.00
H975   H     0.34947   0.69459   0.81294   0.00000  Uiso   1.00
H976   H     0.11778   0.78336   0.21662   0.00000  Uiso   1.00
H977   H     0.15053   0.80541   0.18705   0.00000  Uiso   1.00
H978   H     0.16317   0.78839   0.23466   0.00000  Uiso   1.00
H979   H     0.28285   0.86575   0.77074   0.00000  Uiso   1.00
H980   H     0.30283   0.83805   0.80738   0.00000  Uiso   1.00
H981   H     0.30244   0.88654   0.81344   0.00000  Uiso   1.00
H982   H     0.21715   0.63426   0.22928   0.00000  Uiso   1.00
H983   H     0.19758   0.61347   0.18658   0.00000  Uiso   1.00
H984   H     0.41319   0.53840   0.73474   0.00000  Uiso   1.00
H985   H     0.19718   0.66196   0.19264   0.00000  Uiso   1.00
H986   H     0.11720   0.78388   0.78469   0.00000  Uiso   1.00
H987   H     0.16285   0.78861   0.76717   0.00000  Uiso   1.00
H988   H     0.14961   0.80634   0.81433   0.00000  Uiso   1.00
H989   H     0.38280   0.71611   0.21530   0.00000  Uiso   1.00
H990   H     0.35040   0.69365   0.18565   0.00000  Uiso   1.00
H991   H     0.33716   0.71138   0.23281   0.00000  Uiso   1.00
H992   H     0.21602   0.61750   0.78444   0.00000  Uiso   1.00
H993   H     0.21092   0.66332   0.76732   0.00000  Uiso   1.00
H994   H     0.19342   0.64967   0.81442   0.00000  Uiso   1.00
H995   H     0.03285   0.61575   0.27074   0.00000  Uiso   1.00
H996   H     0.28398   0.88250   0.21556   0.00000  Uiso   1.00
H997   H     0.30658   0.85034   0.18557   0.00000  Uiso   1.00
H998   H     0.28908   0.83668   0.23267   0.00000  Uiso   1.00
H999   H     0.36298   0.78098   0.24290   0.00000  Uiso   1.00
H1000  H     0.33278   0.79711   0.20649   0.00000  Uiso   1.00
H1001  H     0.38038   0.79486   0.19611   0.00000  Uiso   1.00
H1002  H     0.13702   0.71902   0.75710   0.00000  Uiso   1.00
H1003  H     0.11962   0.70515   0.80389   0.00000  Uiso   1.00
H1004  H     0.16723   0.70289   0.79350   0.00000  Uiso   1.00
H1005  H     0.28149   0.63783   0.24387   0.00000  Uiso   1.00
H1006  H     0.05283   0.58804   0.30737   0.00000  Uiso   1.00
H1007  H     0.29731   0.66778   0.20702   0.00000  Uiso   1.00
H1008  H     0.29456   0.62004   0.19692   0.00000  Uiso   1.00
H1009  H     0.21852   0.86217   0.75612   0.00000  Uiso   1.00
H1010  H     0.20545   0.87996   0.80307   0.00000  Uiso   1.00
H1011  H     0.20269   0.83221   0.79296   0.00000  Uiso   1.00
H1012  H     0.11376   0.71284   0.20786   0.00000  Uiso   1.00
H1013  H     0.16108   0.70832   0.21890   0.00000  Uiso   1.00
H1014  H     0.14180   0.68717   0.17586   0.00000  Uiso   1.00
H1015  H     0.38625   0.78717   0.79216   0.00000  Uiso   1.00
H1016  H     0.35822   0.81285   0.82415   0.00000  Uiso   1.00
H1017  H     0.05243   0.63653   0.31344   0.00000  Uiso   1.00
H1018  H     0.33893   0.79169   0.78113   0.00000  Uiso   1.00
H1019  H     0.21890   0.86235   0.24481   0.00000  Uiso   1.00
H1020  H     0.20326   0.83169   0.20855   0.00000  Uiso   1.00
H1021  H     0.20587   0.87925   0.19755   0.00000  Uiso   1.00
H1022  H     0.28110   0.63765   0.75518   0.00000  Uiso   1.00
H1023  H     0.29413   0.62076   0.80244   0.00000  Uiso   1.00
H1024  H     0.29673   0.66831   0.79144   0.00000  Uiso   1.00
O1025  O     0.25000   0.50000   0.25000   0.00000  Uiso   1.00
O1026  O     0.25000   0.96963   0.66245   0.00000  Uiso   1.00
O1027  O     0.46964   0.75000   0.33755   0.00000  Uiso   1.00
O1028  O     0.03037   0.75000   0.66245   0.00000  Uiso   1.00
O1029  O     0.00000   0.71963   0.83755   0.00000  Uiso   1.00
O1030  O     0.00000   0.78036   0.16245   0.00000  Uiso   1.00
O1031  O     0.28037   0.50000   0.83755   0.00000  Uiso   1.00
O1032  O     0.21964   0.50000   0.16245   0.00000  Uiso   1.00
O1033  O     0.00000   0.78036   0.83755   0.00000  Uiso   1.00
O1034  O     0.00000   0.71963   0.16245   0.00000  Uiso   1.00
O1035  O     0.21964   0.50000   0.83755   0.00000  Uiso   1.00
O1036  O     0.25000   0.50000   0.75000   0.00000  Uiso   1.00
O1037  O     0.28037   0.50000   0.16245   0.00000  Uiso   1.00
O1038  O     0.20725   0.57308   0.27302   0.00000  Uiso   1.00
O1039  O     0.29276   0.92692   0.72698   0.00000  Uiso   1.00
O1040  O     0.42693   0.70724   0.27302   0.00000  Uiso   1.00
O1041  O     0.07308   0.79275   0.72698   0.00000  Uiso   1.00
O1042  O     0.29276   0.92692   0.27302   0.00000  Uiso   1.00
O1043  O     0.20725   0.57308   0.72698   0.00000  Uiso   1.00
O1044  O     0.07308   0.79275   0.27302   0.00000  Uiso   1.00
O1045  O     0.42693   0.70724   0.72698   0.00000  Uiso   1.00
O1046  O     0.20725   0.92692   0.72698   0.00000  Uiso   1.00
O1047  O     0.00000   0.75000   0.25000   0.00000  Uiso   1.00
O1048  O     0.29276   0.57308   0.27302   0.00000  Uiso   1.00
O1049  O     0.42693   0.79275   0.72698   0.00000  Uiso   1.00
O1050  O     0.07308   0.70724   0.27302   0.00000  Uiso   1.00
O1051  O     0.29276   0.57308   0.72698   0.00000  Uiso   1.00
O1052  O     0.20725   0.92692   0.27302   0.00000  Uiso   1.00
O1053  O     0.07308   0.70724   0.72698   0.00000  Uiso   1.00
O1054  O     0.42693   0.79275   0.27302   0.00000  Uiso   1.00
O1055  O     0.45725   0.82307   0.77302   0.00000  Uiso   1.00
O1056  O     0.04276   0.67692   0.22698   0.00000  Uiso   1.00
O1057  O     0.17693   0.95724   0.77302   0.00000  Uiso   1.00
O1058  O     0.00000   0.75000   0.75000   0.00000  Uiso   1.00
O1059  O     0.32308   0.54276   0.22698   0.00000  Uiso   1.00
O1060  O     0.04276   0.67692   0.77302   0.00000  Uiso   1.00
O1061  O     0.45725   0.82307   0.22698   0.00000  Uiso   1.00
O1062  O     0.32308   0.54276   0.77302   0.00000  Uiso   1.00
O1063  O     0.17693   0.95724   0.22698   0.00000  Uiso   1.00
O1064  O     0.45725   0.67693   0.22698   0.00000  Uiso   1.00
O1065  O     0.04276   0.82307   0.77302   0.00000  Uiso   1.00
O1066  O     0.17693   0.54276   0.22698   0.00000  Uiso   1.00
O1067  O     0.32308   0.95724   0.77302   0.00000  Uiso   1.00
O1068  O     0.04276   0.82307   0.22698   0.00000  Uiso   1.00
O1069  O     0.25000   0.96963   0.33755   0.00000  Uiso   1.00
O1070  O     0.45725   0.67693   0.77302   0.00000  Uiso   1.00
O1071  O     0.32308   0.95724   0.22698   0.00000  Uiso   1.00
O1072  O     0.17693   0.54276   0.77302   0.00000  Uiso   1.00
O1073  O     0.25000   0.53037   0.66245   0.00000  Uiso   1.00
O1074  O     0.03037   0.75000   0.33755   0.00000  Uiso   1.00
O1075  O     0.46964   0.75000   0.66245   0.00000  Uiso   1.00
O1076  O     0.25000   0.53037   0.33755   0.00000  Uiso   1.00
Zn1077 Zn    0.20660   0.50000   0.21735   0.00000  Uiso   1.00
Zn1078 Zn    0.04341   0.75000   0.28265   0.00000  Uiso   1.00
Zn1079 Zn    0.25000   0.95659   0.71735   0.00000  Uiso   1.00
Zn1080 Zn    0.25000   0.54341   0.28265   0.00000  Uiso   1.00
Zn1081 Zn    0.04341   0.75000   0.71735   0.00000  Uiso   1.00
Zn1082 Zn    0.45660   0.75000   0.28265   0.00000  Uiso   1.00
Zn1083 Zn    0.25000   0.54341   0.71735   0.00000  Uiso   1.00
Zn1084 Zn    0.25000   0.95659   0.28265   0.00000  Uiso   1.00
Zn1085 Zn    0.29341   0.50000   0.78265   0.00000  Uiso   1.00
Zn1086 Zn    0.00000   0.70659   0.21735   0.00000  Uiso   1.00
Zn1087 Zn    0.00000   0.79340   0.78265   0.00000  Uiso   1.00
Zn1088 Zn    0.29341   0.50000   0.21735   0.00000  Uiso   1.00
Zn1089 Zn    0.20660   0.50000   0.78265   0.00000  Uiso   1.00
Zn1090 Zn    0.00000   0.79340   0.21735   0.00000  Uiso   1.00
Zn1091 Zn    0.00000   0.70659   0.78265   0.00000  Uiso   1.00
Zn1092 Zn    0.45660   0.75000   0.71735   0.00000  Uiso   1.00
C1093  C     0.97066   0.76576   0.41865   0.00000  Uiso   1.00
C1094  C     0.77940   0.98435   0.08135   0.00000  Uiso   1.00
C1095  C     0.73426   0.52972   0.54083   0.00000  Uiso   1.00
C1096  C     0.97040   0.76589   0.45923   0.00000  Uiso   1.00
C1097  C     0.52960   0.73411   0.54077   0.00000  Uiso   1.00
C1098  C     0.73428   0.52974   0.45923   0.00000  Uiso   1.00
C1099  C     0.76572   0.97026   0.54077   0.00000  Uiso   1.00
C1100  C     0.77963   0.98418   0.95916   0.00000  Uiso   1.00
C1101  C     0.72037   0.51582   0.04084   0.00000  Uiso   1.00
C1102  C     0.51550   0.77983   0.95921   0.00000  Uiso   1.00
C1103  C     0.98450   0.72017   0.04079   0.00000  Uiso   1.00
C1104  C     0.72034   0.51577   0.95923   0.00000  Uiso   1.00
C1105  C     0.98456   0.72047   0.91862   0.00000  Uiso   1.00
C1106  C     0.77966   0.98423   0.04077   0.00000  Uiso   1.00
C1107  C     0.98447   0.72019   0.95920   0.00000  Uiso   1.00
C1108  C     0.51553   0.77981   0.04080   0.00000  Uiso   1.00
C1109  C     0.59807   0.84808   0.24956   0.00000  Uiso   1.00
C1110  C     0.90193   0.65192   0.75044   0.00000  Uiso   1.00
C1111  C     0.65191   0.59804   0.25025   0.00000  Uiso   1.00
C1112  C     0.84809   0.90196   0.74975   0.00000  Uiso   1.00
C1113  C     0.90194   0.65191   0.24956   0.00000  Uiso   1.00
C1114  C     0.59806   0.84809   0.75044   0.00000  Uiso   1.00
C1115  C     0.84803   0.90190   0.24969   0.00000  Uiso   1.00
C1116  C     0.51544   0.77953   0.08138   0.00000  Uiso   1.00
C1117  C     0.65197   0.59810   0.75031   0.00000  Uiso   1.00
C1118  C     0.59804   0.65190   0.74968   0.00000  Uiso   1.00
C1119  C     0.90197   0.84810   0.25032   0.00000  Uiso   1.00
C1120  C     0.65194   0.90191   0.74957   0.00000  Uiso   1.00
C1121  C     0.84806   0.59809   0.25043   0.00000  Uiso   1.00
C1122  C     0.90191   0.84804   0.75024   0.00000  Uiso   1.00
C1123  C     0.59809   0.65196   0.24976   0.00000  Uiso   1.00
C1124  C     0.84807   0.59808   0.74957   0.00000  Uiso   1.00
C1125  C     0.65193   0.90192   0.25043   0.00000  Uiso   1.00
C1126  C     0.99999   0.74999   0.47958   0.00000  Uiso   1.00
C1127  C     0.77934   0.98427   0.91858   0.00000  Uiso   1.00
C1128  C     0.50001   0.75001   0.52042   0.00000  Uiso   1.00
C1129  C     0.75001   0.50001   0.47958   0.00000  Uiso   1.00
C1130  C     0.75000   0.99999   0.52041   0.00000  Uiso   1.00
C1131  C     0.74999   0.99999   0.97958   0.00000  Uiso   1.00
C1132  C     0.75001   0.50001   0.02042   0.00000  Uiso   1.00
C1133  C     0.99999   0.75001   0.97959   0.00000  Uiso   1.00
C1134  C     0.50001   0.74999   0.02041   0.00000  Uiso   1.00
C1135  C     0.60853   0.94784   0.28239   0.00000  Uiso   1.00
C1136  C     0.89148   0.55215   0.71762   0.00000  Uiso   1.00
C1137  C     0.55571   0.61430   0.29174   0.00000  Uiso   1.00
C1138  C     0.72066   0.51573   0.08142   0.00000  Uiso   1.00
C1139  C     0.94428   0.88569   0.70824   0.00000  Uiso   1.00
C1140  C     0.89094   0.55264   0.28374   0.00000  Uiso   1.00
C1141  C     0.60906   0.94736   0.71627   0.00000  Uiso   1.00
C1142  C     0.94710   0.89116   0.28381   0.00000  Uiso   1.00
C1143  C     0.55290   0.60884   0.71619   0.00000  Uiso   1.00
C1144  C     0.61021   0.55129   0.71911   0.00000  Uiso   1.00
C1145  C     0.88979   0.94870   0.28090   0.00000  Uiso   1.00
C1146  C     0.55138   0.89033   0.71981   0.00000  Uiso   1.00
C1147  C     0.94861   0.60967   0.28020   0.00000  Uiso   1.00
C1148  C     0.88704   0.94350   0.70681   0.00000  Uiso   1.00
C1149  C     0.51539   0.77957   0.91864   0.00000  Uiso   1.00
C1150  C     0.61295   0.55649   0.29317   0.00000  Uiso   1.00
C1151  C     0.94902   0.60935   0.72080   0.00000  Uiso   1.00
C1152  C     0.55099   0.89065   0.27921   0.00000  Uiso   1.00
C1153  C     0.85854   0.69783   0.78244   0.00000  Uiso   1.00
C1154  C     0.64145   0.80217   0.21755   0.00000  Uiso   1.00
C1155  C     0.80571   0.86431   0.79173   0.00000  Uiso   1.00
C1156  C     0.69430   0.63570   0.20828   0.00000  Uiso   1.00
C1157  C     0.64092   0.80265   0.78377   0.00000  Uiso   1.00
C1158  C     0.85908   0.69734   0.21621   0.00000  Uiso   1.00
C1159  C     0.69711   0.64117   0.78378   0.00000  Uiso   1.00
C1160  C     0.98461   0.72043   0.08136   0.00000  Uiso   1.00
C1161  C     0.80290   0.85883   0.21621   0.00000  Uiso   1.00
C1162  C     0.86019   0.80128   0.21917   0.00000  Uiso   1.00
C1163  C     0.63982   0.69872   0.78082   0.00000  Uiso   1.00
C1164  C     0.80139   0.64032   0.21978   0.00000  Uiso   1.00
C1165  C     0.69861   0.85967   0.78021   0.00000  Uiso   1.00
C1166  C     0.63709   0.69355   0.20692   0.00000  Uiso   1.00
C1167  C     0.86292   0.80646   0.79310   0.00000  Uiso   1.00
C1168  C     0.69901   0.85935   0.22077   0.00000  Uiso   1.00
C1169  C     0.80099   0.64065   0.77922   0.00000  Uiso   1.00
C1170  C     0.99997   0.74997   0.39839   0.00000  Uiso   1.00
C1171  C     0.50003   0.75003   0.60161   0.00000  Uiso   1.00
C1172  C     0.75002   0.50002   0.39841   0.00000  Uiso   1.00
C1173  C     0.52934   0.73424   0.58135   0.00000  Uiso   1.00
C1174  C     0.74998   0.99998   0.60159   0.00000  Uiso   1.00
C1175  C     0.74997   0.99997   0.89839   0.00000  Uiso   1.00
C1176  C     0.75003   0.50003   0.10160   0.00000  Uiso   1.00
C1177  C     0.99998   0.75002   0.89841   0.00000  Uiso   1.00
C1178  C     0.50002   0.74998   0.10159   0.00000  Uiso   1.00
C1179  C     0.55876   0.71833   0.47978   0.00000  Uiso   1.00
C1180  C     0.94124   0.78167   0.52022   0.00000  Uiso   1.00
C1181  C     0.78131   0.94094   0.47978   0.00000  Uiso   1.00
C1182  C     0.71869   0.55906   0.52022   0.00000  Uiso   1.00
C1183  C     0.94122   0.78165   0.47992   0.00000  Uiso   1.00
C1184  C     0.73439   0.52947   0.41866   0.00000  Uiso   1.00
C1185  C     0.55878   0.71835   0.52008   0.00000  Uiso   1.00
C1186  C     0.71870   0.55907   0.47991   0.00000  Uiso   1.00
C1187  C     0.78130   0.94093   0.52008   0.00000  Uiso   1.00
C1188  C     0.80888   0.96856   0.97978   0.00000  Uiso   1.00
C1189  C     0.69112   0.53144   0.02022   0.00000  Uiso   1.00
C1190  C     0.53086   0.80925   0.97987   0.00000  Uiso   1.00
C1191  C     0.96914   0.69075   0.02013   0.00000  Uiso   1.00
C1192  C     0.69110   0.53141   0.97992   0.00000  Uiso   1.00
C1193  C     0.80890   0.96859   0.02008   0.00000  Uiso   1.00
C1194  C     0.96913   0.69076   0.97983   0.00000  Uiso   1.00
C1195  C     0.76561   0.97053   0.58134   0.00000  Uiso   1.00
C1196  C     0.53087   0.80924   0.02017   0.00000  Uiso   1.00
C1197  C     0.75000   0.50001   0.35599   0.00000  Uiso   1.00
C1198  C     0.75000   0.99999   0.64401   0.00000  Uiso   1.00
C1199  C     0.99999   0.74999   0.35596   0.00000  Uiso   1.00
C1200  C     0.50001   0.75001   0.64404   0.00000  Uiso   1.00
C1201  C     0.99999   0.75001   0.85599   0.00000  Uiso   1.00
C1202  C     0.50001   0.74999   0.14401   0.00000  Uiso   1.00
C1203  C     0.74999   0.99999   0.85596   0.00000  Uiso   1.00
C1204  C     0.75001   0.50001   0.14404   0.00000  Uiso   1.00
C1205  C     0.68010   0.57000   0.24999   0.00000  Uiso   1.00
C1206  C     0.52928   0.73416   0.41858   0.00000  Uiso   1.00
C1207  C     0.81990   0.93000   0.75001   0.00000  Uiso   1.00
C1208  C     0.93009   0.67999   0.24997   0.00000  Uiso   1.00
C1209  C     0.56991   0.82001   0.75003   0.00000  Uiso   1.00
C1210  C     0.81998   0.93007   0.25000   0.00000  Uiso   1.00
C1211  C     0.68002   0.56993   0.75000   0.00000  Uiso   1.00
C1212  C     0.56992   0.82000   0.24996   0.00000  Uiso   1.00
C1213  C     0.93008   0.68000   0.75004   0.00000  Uiso   1.00
C1214  C     0.68009   0.92999   0.74997   0.00000  Uiso   1.00
C1215  C     0.81991   0.57001   0.25003   0.00000  Uiso   1.00
C1216  C     0.93010   0.82000   0.74999   0.00000  Uiso   1.00
C1217  C     0.97072   0.76584   0.58142   0.00000  Uiso   1.00
C1218  C     0.56990   0.68000   0.25001   0.00000  Uiso   1.00
C1219  C     0.81992   0.57000   0.74996   0.00000  Uiso   1.00
C1220  C     0.68008   0.93000   0.25004   0.00000  Uiso   1.00
C1221  C     0.56998   0.68007   0.75000   0.00000  Uiso   1.00
C1222  C     0.93002   0.81993   0.25000   0.00000  Uiso   1.00
C1223  C     0.61679   0.91042   0.26504   0.00000  Uiso   1.00
C1224  C     0.88321   0.58958   0.73496   0.00000  Uiso   1.00
C1225  C     0.59175   0.61911   0.27032   0.00000  Uiso   1.00
C1226  C     0.90825   0.88088   0.72967   0.00000  Uiso   1.00
C1227  C     0.88296   0.58981   0.26570   0.00000  Uiso   1.00
C1228  C     0.76564   0.97056   0.41859   0.00000  Uiso   1.00
C1229  C     0.61704   0.91019   0.73430   0.00000  Uiso   1.00
C1230  C     0.91005   0.88307   0.26577   0.00000  Uiso   1.00
C1231  C     0.58995   0.61693   0.73424   0.00000  Uiso   1.00
C1232  C     0.61719   0.58962   0.73492   0.00000  Uiso   1.00
C1233  C     0.88281   0.91038   0.26508   0.00000  Uiso   1.00
C1234  C     0.58969   0.88303   0.73515   0.00000  Uiso   1.00
C1235  C     0.91031   0.61697   0.26485   0.00000  Uiso   1.00
C1236  C     0.88100   0.90821   0.72930   0.00000  Uiso   1.00
C1237  C     0.61900   0.59179   0.27069   0.00000  Uiso   1.00
C1238  C     0.91054   0.61677   0.73578   0.00000  Uiso   1.00
C1239  C     0.73436   0.52944   0.58141   0.00000  Uiso   1.00
C1240  C     0.58946   0.88323   0.26423   0.00000  Uiso   1.00
C1241  C     0.86680   0.66041   0.76506   0.00000  Uiso   1.00
C1242  C     0.63320   0.83959   0.23493   0.00000  Uiso   1.00
C1243  C     0.84175   0.86911   0.77031   0.00000  Uiso   1.00
C1244  C     0.65826   0.63089   0.22970   0.00000  Uiso   1.00
C1245  C     0.63295   0.83981   0.76572   0.00000  Uiso   1.00
C1246  C     0.86705   0.66019   0.23427   0.00000  Uiso   1.00
C1247  C     0.66006   0.63307   0.76574   0.00000  Uiso   1.00
C1248  C     0.83994   0.86693   0.23425   0.00000  Uiso   1.00
C1249  C     0.86718   0.83961   0.23495   0.00000  Uiso   1.00
C1250  C     0.72060   0.51565   0.91865   0.00000  Uiso   1.00
C1251  C     0.63282   0.66039   0.76505   0.00000  Uiso   1.00
C1252  C     0.83970   0.63303   0.23513   0.00000  Uiso   1.00
C1253  C     0.66030   0.86697   0.76487   0.00000  Uiso   1.00
C1254  C     0.63102   0.65822   0.22935   0.00000  Uiso   1.00
C1255  C     0.86899   0.84178   0.77066   0.00000  Uiso   1.00
C1256  C     0.66054   0.86678   0.23576   0.00000  Uiso   1.00
C1257  C     0.83946   0.63322   0.76424   0.00000  Uiso   1.00
C1258  C     0.52957   0.73407   0.45916   0.00000  Uiso   1.00
C1259  C     0.97043   0.76593   0.54084   0.00000  Uiso   1.00
C1260  C     0.76574   0.97028   0.45917   0.00000  Uiso   1.00
F1261  F     0.58761   0.70284   0.46114   0.00000  Uiso   1.00
F1262  F     0.66220   0.54681   0.03886   0.00000  Uiso   1.00
F1263  F     0.54593   0.83835   0.96128   0.00000  Uiso   1.00
F1264  F     0.95407   0.66165   0.03872   0.00000  Uiso   1.00
F1265  F     0.66217   0.54676   0.96136   0.00000  Uiso   1.00
F1266  F     0.83783   0.95324   0.03864   0.00000  Uiso   1.00
F1267  F     0.95404   0.66167   0.96123   0.00000  Uiso   1.00
F1268  F     0.54596   0.83833   0.03877   0.00000  Uiso   1.00
F1269  F     0.94288   0.78174   0.39866   0.00000  Uiso   1.00
F1270  F     0.55712   0.71826   0.60134   0.00000  Uiso   1.00
F1271  F     0.71858   0.55739   0.39866   0.00000  Uiso   1.00
F1272  F     0.91239   0.79716   0.53886   0.00000  Uiso   1.00
F1273  F     0.78142   0.94261   0.60134   0.00000  Uiso   1.00
F1274  F     0.55704   0.71816   0.39852   0.00000  Uiso   1.00
F1275  F     0.94296   0.78184   0.60148   0.00000  Uiso   1.00
F1276  F     0.78146   0.94265   0.39854   0.00000  Uiso   1.00
F1277  F     0.71854   0.55735   0.60146   0.00000  Uiso   1.00
F1278  F     0.69277   0.53153   0.89866   0.00000  Uiso   1.00
F1279  F     0.80723   0.96847   0.10133   0.00000  Uiso   1.00
F1280  F     0.96894   0.69247   0.89860   0.00000  Uiso   1.00
F1281  F     0.53106   0.80753   0.10140   0.00000  Uiso   1.00
F1282  F     0.80716   0.96837   0.89853   0.00000  Uiso   1.00
F1283  F     0.79662   0.91195   0.46115   0.00000  Uiso   1.00
F1284  F     0.69284   0.53163   0.10147   0.00000  Uiso   1.00
F1285  F     0.53100   0.80758   0.89863   0.00000  Uiso   1.00
F1286  F     0.96900   0.69242   0.10137   0.00000  Uiso   1.00
F1287  F     0.70338   0.58805   0.53885   0.00000  Uiso   1.00
F1288  F     0.91236   0.79711   0.46135   0.00000  Uiso   1.00
F1289  F     0.58764   0.70289   0.53864   0.00000  Uiso   1.00
F1290  F     0.70340   0.58807   0.46135   0.00000  Uiso   1.00
F1291  F     0.79660   0.91193   0.53865   0.00000  Uiso   1.00
F1292  F     0.83780   0.95319   0.96114   0.00000  Uiso   1.00
H1293  H     0.63219   0.96667   0.28331   0.00000  Uiso   1.00
H1294  H     0.96714   0.88424   0.72923   0.00000  Uiso   1.00
H1295  H     0.94755   0.86345   0.68654   0.00000  Uiso   1.00
H1296  H     0.94715   0.91194   0.69259   0.00000  Uiso   1.00
H1297  H     0.86722   0.53387   0.28464   0.00000  Uiso   1.00
H1298  H     0.91286   0.53862   0.26712   0.00000  Uiso   1.00
H1299  H     0.89962   0.55632   0.31430   0.00000  Uiso   1.00
H1300  H     0.63278   0.96613   0.71536   0.00000  Uiso   1.00
H1301  H     0.60037   0.94369   0.68571   0.00000  Uiso   1.00
H1302  H     0.58714   0.96139   0.73289   0.00000  Uiso   1.00
H1303  H     0.96602   0.86751   0.28444   0.00000  Uiso   1.00
H1304  H     0.58681   0.96160   0.26527   0.00000  Uiso   1.00
H1305  H     0.96090   0.91333   0.26737   0.00000  Uiso   1.00
H1306  H     0.94341   0.89964   0.31445   0.00000  Uiso   1.00
H1307  H     0.53398   0.63249   0.71556   0.00000  Uiso   1.00
H1308  H     0.55658   0.60036   0.68555   0.00000  Uiso   1.00
H1309  H     0.53909   0.58666   0.73264   0.00000  Uiso   1.00
H1310  H     0.61300   0.53098   0.74282   0.00000  Uiso   1.00
H1311  H     0.58280   0.54713   0.70642   0.00000  Uiso   1.00
H1312  H     0.63041   0.54490   0.69605   0.00000  Uiso   1.00
H1313  H     0.88700   0.96902   0.25719   0.00000  Uiso   1.00
H1314  H     0.86958   0.95510   0.30395   0.00000  Uiso   1.00
H1315  H     0.59945   0.94462   0.31289   0.00000  Uiso   1.00
H1316  H     0.91719   0.95287   0.29359   0.00000  Uiso   1.00
H1317  H     0.53148   0.88783   0.74391   0.00000  Uiso   1.00
H1318  H     0.54730   0.91779   0.70706   0.00000  Uiso   1.00
H1319  H     0.54454   0.87005   0.69695   0.00000  Uiso   1.00
H1320  H     0.96852   0.61217   0.25611   0.00000  Uiso   1.00
H1321  H     0.95546   0.62996   0.30305   0.00000  Uiso   1.00
H1322  H     0.95270   0.58221   0.29295   0.00000  Uiso   1.00
H1323  H     0.86370   0.96279   0.70773   0.00000  Uiso   1.00
H1324  H     0.91103   0.95831   0.71876   0.00000  Uiso   1.00
H1325  H     0.89174   0.93708   0.67577   0.00000  Uiso   1.00
H1326  H     0.86781   0.53333   0.71669   0.00000  Uiso   1.00
H1327  H     0.63630   0.53721   0.29225   0.00000  Uiso   1.00
H1328  H     0.60824   0.56290   0.32421   0.00000  Uiso   1.00
H1329  H     0.58897   0.54168   0.28120   0.00000  Uiso   1.00
H1330  H     0.96890   0.61235   0.74484   0.00000  Uiso   1.00
H1331  H     0.95328   0.58168   0.70858   0.00000  Uiso   1.00
H1332  H     0.95588   0.62924   0.69758   0.00000  Uiso   1.00
H1333  H     0.53110   0.88765   0.25517   0.00000  Uiso   1.00
H1334  H     0.54412   0.87076   0.30243   0.00000  Uiso   1.00
H1335  H     0.54673   0.91831   0.29143   0.00000  Uiso   1.00
H1336  H     0.88222   0.71664   0.78338   0.00000  Uiso   1.00
H1337  H     0.90055   0.55537   0.68712   0.00000  Uiso   1.00
H1338  H     0.83683   0.71161   0.76533   0.00000  Uiso   1.00
H1339  H     0.84947   0.69459   0.81294   0.00000  Uiso   1.00
H1340  H     0.61778   0.78336   0.21662   0.00000  Uiso   1.00
H1341  H     0.65053   0.80541   0.18705   0.00000  Uiso   1.00
H1342  H     0.66317   0.78839   0.23466   0.00000  Uiso   1.00
H1343  H     0.78285   0.86575   0.77074   0.00000  Uiso   1.00
H1344  H     0.80283   0.83805   0.80738   0.00000  Uiso   1.00
H1345  H     0.80244   0.88654   0.81344   0.00000  Uiso   1.00
H1346  H     0.71715   0.63426   0.22928   0.00000  Uiso   1.00
H1347  H     0.69758   0.61347   0.18658   0.00000  Uiso   1.00
H1348  H     0.91319   0.53840   0.73474   0.00000  Uiso   1.00
H1349  H     0.69718   0.66196   0.19264   0.00000  Uiso   1.00
H1350  H     0.61720   0.78388   0.78469   0.00000  Uiso   1.00
H1351  H     0.66285   0.78861   0.76717   0.00000  Uiso   1.00
H1352  H     0.64961   0.80634   0.81433   0.00000  Uiso   1.00
H1353  H     0.88280   0.71611   0.21530   0.00000  Uiso   1.00
H1354  H     0.85040   0.69365   0.18565   0.00000  Uiso   1.00
H1355  H     0.83716   0.71138   0.23281   0.00000  Uiso   1.00
H1356  H     0.71602   0.61750   0.78444   0.00000  Uiso   1.00
H1357  H     0.71092   0.66332   0.76732   0.00000  Uiso   1.00
H1358  H     0.69342   0.64967   0.81442   0.00000  Uiso   1.00
H1359  H     0.53285   0.61575   0.27074   0.00000  Uiso   1.00
H1360  H     0.78398   0.88250   0.21556   0.00000  Uiso   1.00
H1361  H     0.80658   0.85034   0.18557   0.00000  Uiso   1.00
H1362  H     0.78908   0.83668   0.23267   0.00000  Uiso   1.00
H1363  H     0.86298   0.78098   0.24290   0.00000  Uiso   1.00
H1364  H     0.83278   0.79711   0.20649   0.00000  Uiso   1.00
H1365  H     0.88038   0.79486   0.19611   0.00000  Uiso   1.00
H1366  H     0.63702   0.71902   0.75710   0.00000  Uiso   1.00
H1367  H     0.61962   0.70515   0.80389   0.00000  Uiso   1.00
H1368  H     0.66723   0.70289   0.79350   0.00000  Uiso   1.00
H1369  H     0.78149   0.63783   0.24387   0.00000  Uiso   1.00
H1370  H     0.55283   0.58804   0.30737   0.00000  Uiso   1.00
H1371  H     0.79731   0.66778   0.20702   0.00000  Uiso   1.00
H1372  H     0.79456   0.62004   0.19692   0.00000  Uiso   1.00
H1373  H     0.71852   0.86217   0.75612   0.00000  Uiso   1.00
H1374  H     0.70545   0.87996   0.80307   0.00000  Uiso   1.00
H1375  H     0.70269   0.83221   0.79296   0.00000  Uiso   1.00
H1376  H     0.61376   0.71284   0.20786   0.00000  Uiso   1.00
H1377  H     0.66108   0.70832   0.21890   0.00000  Uiso   1.00
H1378  H     0.64180   0.68717   0.17586   0.00000  Uiso   1.00
H1379  H     0.88625   0.78717   0.79216   0.00000  Uiso   1.00
H1380  H     0.85822   0.81285   0.82415   0.00000  Uiso   1.00
H1381  H     0.55243   0.63653   0.31344   0.00000  Uiso   1.00
H1382  H     0.83893   0.79169   0.78113   0.00000  Uiso   1.00
H1383  H     0.71890   0.86235   0.24481   0.00000  Uiso   1.00
H1384  H     0.70326   0.83169   0.20855   0.00000  Uiso   1.00
H1385  H     0.70587   0.87925   0.19755   0.00000  Uiso   1.00
H1386  H     0.78110   0.63765   0.75518   0.00000  Uiso   1.00
H1387  H     0.79413   0.62076   0.80244   0.00000  Uiso   1.00
H1388  H     0.79673   0.66831   0.79144   0.00000  Uiso   1.00
O1389  O     0.75000   0.50000   0.25000   0.00000  Uiso   1.00
O1390  O     0.75000   0.96963   0.66245   0.00000  Uiso   1.00
O1391  O     0.96964   0.75000   0.33755   0.00000  Uiso   1.00
O1392  O     0.53037   0.75000   0.66245   0.00000  Uiso   1.00
O1393  O     0.50000   0.71963   0.83755   0.00000  Uiso   1.00
O1394  O     0.50000   0.78036   0.16245   0.00000  Uiso   1.00
O1395  O     0.78037   0.50000   0.83755   0.00000  Uiso   1.00
O1396  O     0.71964   0.50000   0.16245   0.00000  Uiso   1.00
O1397  O     0.50000   0.78036   0.83755   0.00000  Uiso   1.00
O1398  O     0.50000   0.71963   0.16245   0.00000  Uiso   1.00
O1399  O     0.71964   0.50000   0.83755   0.00000  Uiso   1.00
O1400  O     0.75000   0.50000   0.75000   0.00000  Uiso   1.00
O1401  O     0.78037   0.50000   0.16245   0.00000  Uiso   1.00
O1402  O     0.70725   0.57308   0.27302   0.00000  Uiso   1.00
O1403  O     0.79276   0.92692   0.72698   0.00000  Uiso   1.00
O1404  O     0.92693   0.70724   0.27302   0.00000  Uiso   1.00
O1405  O     0.57308   0.79275   0.72698   0.00000  Uiso   1.00
O1406  O     0.79276   0.92692   0.27302   0.00000  Uiso   1.00
O1407  O     0.70725   0.57308   0.72698   0.00000  Uiso   1.00
O1408  O     0.57308   0.79275   0.27302   0.00000  Uiso   1.00
O1409  O     0.92693   0.70724   0.72698   0.00000  Uiso   1.00
O1410  O     0.70725   0.92692   0.72698   0.00000  Uiso   1.00
O1411  O     0.50000   0.75000   0.25000   0.00000  Uiso   1.00
O1412  O     0.79276   0.57308   0.27302   0.00000  Uiso   1.00
O1413  O     0.92693   0.79275   0.72698   0.00000  Uiso   1.00
O1414  O     0.57308   0.70724   0.27302   0.00000  Uiso   1.00
O1415  O     0.79276   0.57308   0.72698   0.00000  Uiso   1.00
O1416  O     0.70725   0.92692   0.27302   0.00000  Uiso   1.00
O1417  O     0.57308   0.70724   0.72698   0.00000  Uiso   1.00
O1418  O     0.92693   0.79275   0.27302   0.00000  Uiso   1.00
O1419  O     0.95725   0.82307   0.77302   0.00000  Uiso   1.00
O1420  O     0.54276   0.67692   0.22698   0.00000  Uiso   1.00
O1421  O     0.67693   0.95724   0.77302   0.00000  Uiso   1.00
O1422  O     0.50000   0.75000   0.75000   0.00000  Uiso   1.00
O1423  O     0.82308   0.54276   0.22698   0.00000  Uiso   1.00
O1424  O     0.54276   0.67692   0.77302   0.00000  Uiso   1.00
O1425  O     0.95725   0.82307   0.22698   0.00000  Uiso   1.00
O1426  O     0.82308   0.54276   0.77302   0.00000  Uiso   1.00
O1427  O     0.67693   0.95724   0.22698   0.00000  Uiso   1.00
O1428  O     0.95725   0.67693   0.22698   0.00000  Uiso   1.00
O1429  O     0.54276   0.82307   0.77302   0.00000  Uiso   1.00
O1430  O     0.67693   0.54276   0.22698   0.00000  Uiso   1.00
O1431  O     0.82308   0.95724   0.77302   0.00000  Uiso   1.00
O1432  O     0.54276   0.82307   0.22698   0.00000  Uiso   1.00
O1433  O     0.75000   0.96963   0.33755   0.00000  Uiso   1.00
O1434  O     0.95725   0.67693   0.77302   0.00000  Uiso   1.00
O1435  O     0.82308   0.95724   0.22698   0.00000  Uiso   1.00
O1436  O     0.67693   0.54276   0.77302   0.00000  Uiso   1.00
O1437  O     0.75000   0.53037   0.66245   0.00000  Uiso   1.00
O1438  O     0.53037   0.75000   0.33755   0.00000  Uiso   1.00
O1439  O     0.96964   0.75000   0.66245   0.00000  Uiso   1.00
O1440  O     0.75000   0.53037   0.33755   0.00000  Uiso   1.00
Zn1441 Zn    0.70660   0.50000   0.21735   0.00000  Uiso   1.00
Zn1442 Zn    0.54341   0.75000   0.28265   0.00000  Uiso   1.00
Zn1443 Zn    0.75000   0.95659   0.71735   0.00000  Uiso   1.00
Zn1444 Zn    0.75000   0.54341   0.28265   0.00000  Uiso   1.00
Zn1445 Zn    0.54341   0.75000   0.71735   0.00000  Uiso   1.00
Zn1446 Zn    0.95660   0.75000   0.28265   0.00000  Uiso   1.00
Zn1447 Zn    0.75000   0.54341   0.71735   0.00000  Uiso   1.00
Zn1448 Zn    0.75000   0.95659   0.28265   0.00000  Uiso   1.00
Zn1449 Zn    0.79341   0.50000   0.78265   0.00000  Uiso   1.00
Zn1450 Zn    0.50000   0.70659   0.21735   0.00000  Uiso   1.00
Zn1451 Zn    0.50000   0.79340   0.78265   0.00000  Uiso   1.00
Zn1452 Zn    0.79341   0.50000   0.21735   0.00000  Uiso   1.00
Zn1453 Zn    0.70660   0.50000   0.78265   0.00000  Uiso   1.00
Zn1454 Zn    0.50000   0.79340   0.21735   0.00000  Uiso   1.00
Zn1455 Zn    0.50000   0.70659   0.78265   0.00000  Uiso   1.00
Zn1456 Zn    0.95660   0.75000   0.71735   0.00000  Uiso   1.00
loop_
_geom_bond_atom_site_label_1
_geom_bond_atom_site_label_2
_geom_bond_distance
_geom_bond_site_symmetry_2
_ccdc_geom_bond_type
C1     C78     1.403   .     A
C1     F177    1.360   .     S
C1     C4      1.401   .     A
C2     C14     1.401   .     A
C2     F187    1.360   .     S
C2     C812    1.403   .     S
C3     C147    1.401   .     A
C3     C90     1.406   .     A
C3     C766    1.415   1_545 S
C4     C91     1.406   .     A
C4     C34     1.415   .     A
C5     C36     1.415   .     A
C5     C81     1.401   .     A
C5     C93     1.406   .     A
C6     C94     1.406   .     A
C6     C92     1.401   .     A
C6     C37     1.415   .     A
C7     C103    1.401   .     A
C7     C38     1.415   .     A
C7     C95     1.406   .     A
C8     C35     1.401   .     A
C8     C96     1.406   .     A
C8     C39     1.415   .     A
C9     C46     1.401   .     A
C9     C97     1.406   .     A
C9     C40     1.415   .     A
C10    C57     1.401   .     A
C10    C98     1.406   .     A
C10    C405    1.415   1_455 S
C11    C68     1.401   .     A
C11    C99     1.406   .     A
C11    C406    1.415   .     S
C12    C158    1.401   .     A
C12    C100    1.406   .     A
C12    C767    1.415   1_545 S
C13    C85     1.403   .     A
C13    C15     1.401   .     A
C13    F188    1.360   .     S
C14    C101    1.406   .     A
C14    C768    1.415   .     S
C15    C41     1.415   .     A
C15    C102    1.406   .     A
C16    C104    1.406   .     A
C16    C24     1.401   .     A
C16    C42     1.415   .     A
C17    C120    1.453   .     S
C17    C148    1.414   .     A
C17    C150    1.415   .     A
C18    C121    1.453   .     S
C18    C149    1.415   .     A
C18    C146    1.414   .     A
C19    C113    1.452   .     S
C19    C145    1.414   .     A
C19    C152    1.413   .     A
C20    C144    1.414   .     A
C20    C151    1.413   .     A
C20    C115    1.452   .     S
C21    C116    1.453   .     S
C21    C143    1.414   .     A
C21    C154    1.414   .     A
C22    C142    1.414   .     A
C22    C153    1.414   .     A
C22    C117    1.453   .     S
C23    C118    1.452   .     S
C23    C156    1.414   .     A
C23    C141    1.414   .     A
C24    C86     1.403   .     A
C24    F189    1.360   .     S
C25    C119    1.452   .     S
C25    C140    1.414   .     A
C25    C155    1.414   .     A
C26    C159    1.414   .     A
C26    C129    1.452   .     S
C26    C139    1.414   .     A
C27    C138    1.414   .     A
C27    C157    1.414   .     A
C27    C130    1.452   .     S
C28    C137    1.414   .     A
C28    C122    1.453   .     S
C28    C161    1.414   .     A
C29    C135    1.414   .     A
C29    C160    1.414   .     A
C29    C123    1.453   .     S
C30    C134    1.413   .     A
C30    C163    1.414   .     A
C30    C124    1.452   .     S
C31    C162    1.414   .     A
C31    C133    1.413   .     A
C31    C126    1.452   .     S
C32    C127    1.453   .     S
C32    C165    1.414   .     A
C32    C132    1.415   .     A
C33    C164    1.414   .     A
C33    C131    1.415   .     A
C33    C128    1.453   .     S
C34    C400    1.410   .     S
C34    C530    1.415   .     S
C35    F190    1.360   .     S
C35    C83     1.403   .     A
C36    C398    1.410   1_455 S
C36    C531    1.415   1_455 S
C37    C766    1.410   1_545 S
C37    C896    1.415   1_545 S
C38    C731    1.415   .     S
C38    C765    1.410   .     S
C39    C740    1.415   .     S
C39    C768    1.410   1_556 S
C40    C742    1.415   1_545 S
C40    C767    1.410   1_544 S
C41    C374    1.415   .     S
C41    C406    1.410   1_556 S
C42    C375    1.415   1_455 S
C42    C405    1.410   1_454 S
C43    H201    1.106   .     S
C43    C131    1.521   .     S
C43    H223    1.110   .     S
C43    H212    1.110   .     S
C44    H256    1.110   .     S
C44    H245    1.110   .     S
C44    C132    1.521   .     S
C44    H234    1.106   .     S
C45    C133    1.521   .     S
C45    H267    1.108   .     S
C45    H289    1.111   .     S
C45    H278    1.105   .     S
C46    C84     1.403   .     A
C46    F192    1.360   .     S
C47    C134    1.521   .     S
C47    H204    1.105   .     S
C47    H202    1.108   .     S
C47    H203    1.111   .     S
C48    C135    1.521   .     S
C48    H205    1.106   .     S
C48    H207    1.110   .     S
C48    H206    1.110   .     S
C49    C137    1.521   .     S
C49    H210    1.110   .     S
C49    H208    1.106   .     S
C49    H209    1.110   .     S
C50    C138    1.521   .     S
C50    H213    1.110   .     S
C50    H214    1.110   .     S
C50    H211    1.106   .     S
C51    H216    1.110   .     S
C51    C139    1.521   .     S
C51    H217    1.110   .     S
C51    H215    1.106   .     S
C52    H219    1.105   .     S
C52    H218    1.110   .     S
C52    C140    1.523   .     S
C52    H220    1.111   .     S
C53    H221    1.110   .     S
C53    H222    1.111   .     S
C53    C141    1.523   .     S
C53    H224    1.105   .     S
C54    H227    1.111   .     S
C54    H225    1.109   .     S
C54    C142    1.522   .     S
C54    H226    1.105   .     S
C55    H230    1.105   .     S
C55    C143    1.522   .     S
C55    H229    1.111   .     S
C55    H228    1.109   .     S
C56    H231    1.107   .     S
C56    C144    1.521   .     S
C56    H232    1.110   .     S
C56    H233    1.110   .     S
C57    F193    1.360   .     S
C57    C449    1.403   1_455 S
C58    H235    1.107   .     S
C58    H236    1.110   .     S
C58    C145    1.521   .     S
C58    H237    1.110   .     S
C59    H240    1.111   .     S
C59    H238    1.110   .     S
C59    H239    1.105   .     S
C59    C146    1.523   .     S
C60    H241    1.110   .     S
C60    H243    1.105   .     S
C60    C148    1.523   .     S
C60    H242    1.111   .     S
C61    C149    1.521   .     S
C61    H246    1.110   .     S
C61    H244    1.106   .     S
C61    H247    1.110   .     S
C62    C150    1.521   .     S
C62    H248    1.106   .     S
C62    H250    1.110   .     S
C62    H249    1.110   .     S
C63    H252    1.105   .     S
C63    H251    1.108   .     S
C63    C151    1.521   .     S
C63    H253    1.111   .     S
C64    C152    1.521   .     S
C64    H257    1.105   .     S
C64    H255    1.111   .     S
C64    H254    1.108   .     S
C65    H259    1.110   .     S
C65    C153    1.521   .     S
C65    H258    1.106   .     S
C65    H260    1.110   .     S
C66    H263    1.110   .     S
C66    H261    1.106   .     S
C66    C154    1.521   .     S
C66    H262    1.110   .     S
C67    H265    1.110   .     S
C67    C155    1.521   .     S
C67    H266    1.110   .     S
C67    H264    1.106   .     S
C68    F194    1.360   .     S
C68    C450    1.403   .     S
C69    H270    1.110   .     S
C69    C156    1.521   .     S
C69    H269    1.110   .     S
C69    H268    1.106   .     S
C70    H273    1.111   .     S
C70    C157    1.523   .     S
C70    H271    1.110   .     S
C70    H272    1.105   .     S
C71    H276    1.105   .     S
C71    C159    1.523   .     S
C71    H274    1.110   .     S
C71    H275    1.111   .     S
C72    H280    1.111   .     S
C72    H279    1.105   .     S
C72    H277    1.109   .     S
C72    C160    1.522   .     S
C73    H282    1.111   .     S
C73    C161    1.522   .     S
C73    H281    1.109   .     S
C73    H283    1.105   .     S
C74    H286    1.110   .     S
C74    C162    1.521   .     S
C74    H284    1.107   .     S
C74    H285    1.110   .     S
C75    H288    1.110   .     S
C75    H287    1.107   .     S
C75    H290    1.110   .     S
C75    C163    1.521   .     S
C76    H291    1.110   .     S
C76    H293    1.111   .     S
C76    H292    1.105   .     S
C76    C164    1.523   .     S
C77    H294    1.110   .     S
C77    H296    1.105   .     S
C77    C165    1.523   .     S
C77    H295    1.111   .     S
C78    C107    1.465   .     S
C78    C478    1.403   .     S
C79    C108    1.465   .     S
C79    C81     1.403   .     A
C79    C489    1.403   1_455 S
C80    C92     1.403   .     A
C80    C105    1.465   .     S
C80    C864    1.403   1_545 S
C81    F178    1.360   .     S
C82    C106    1.465   .     S
C82    C103    1.403   .     A
C82    C875    1.403   .     S
C83    C111    1.465   .     S
C83    C886    1.403   .     S
C84    C112    1.465   .     S
C84    C730    1.403   1_545 S
C85    C109    1.465   .     S
C85    C421    1.403   .     S
C86    C110    1.465   .     S
C86    C432    1.403   1_455 S
C87    F169    1.358   .     S
C87    C93     1.392   .     A
C87    C166    1.406   .     A
C88    C91     1.392   .     A
C88    F180    1.358   .     S
C88    C167    1.406   .     A
C89    C95     1.391   .     A
C89    C168    1.406   .     A
C89    F191    1.358   .     S
C90    F195    1.358   .     S
C90    C94     1.391   .     A
C91    F196    1.358   .     S
C92    F179    1.360   .     S
C93    F197    1.358   .     S
C94    F198    1.358   .     S
C95    F199    1.358   .     S
C96    F200    1.358   .     S
C96    C101    1.392   1_556 S
C97    F170    1.358   .     S
C97    C100    1.392   1_554 S
C98    F171    1.358   .     S
C98    C104    1.391   1_556 S
C99    F172    1.358   .     S
C99    C102    1.391   1_554 S
C100   F173    1.358   .     S
C100   C97     1.392   1_556 S
C101   F174    1.358   .     S
C101   C96     1.392   1_554 S
C102   F175    1.358   .     S
C102   C99     1.391   1_556 S
C103   F181    1.360   .     S
C104   F176    1.358   .     S
C104   C98     1.391   1_554 S
C105   O348    1.278   .     A
C105   O1069   1.278   1_545 S
C106   O298    1.278   .     A
C106   O1073   1.278   .     S
C107   O299    1.280   .     A
C107   O710    1.280   .     S
C108   O300    1.280   .     A
C108   O711    1.280   1_455 S
C109   O665    1.278   .     S
C109   O669    1.278   .     S
C110   O306    1.278   .     A
C110   O302    1.278   .     A
C111   O1031   1.280   .     S
C111   O1035   1.280   .     S
C112   O304    1.280   .     A
C112   O309    1.280   .     A
C113   O310    1.278   .     A
C113   O338    1.278   .     A
C114   F182    1.360   .     S
C114   C166    1.401   .     A
C114   C442    1.403   1_455 S
C115   O311    1.278   .     A
C115   O339    1.278   .     A
C116   O336    1.276   .     A
C116   O312    1.279   .     A
C117   O337    1.276   .     A
C117   O313    1.279   .     A
C118   O314    1.279   .     A
C118   O343    1.276   .     A
C119   O344    1.276   .     A
C119   O315    1.279   .     A
C120   O316    1.279   .     A
C120   O340    1.277   .     A
C121   O317    1.279   .     A
C121   O342    1.277   .     A
C122   O329    1.279   .     A
C122   O318    1.276   .     A
C123   O331    1.279   .     A
C123   O320    1.276   .     A
C124   O321    1.278   .     A
C124   O327    1.278   .     A
C125   C167    1.401   .     A
C125   F183    1.360   .     S
C125   C443    1.403   .     S
C126   O322    1.278   .     A
C126   O328    1.278   .     A
C127   O323    1.277   .     A
C127   O334    1.279   .     A
C128   O335    1.279   .     A
C128   O324    1.277   .     A
C129   O332    1.279   .     A
C129   O325    1.276   .     A
C130   O333    1.279   .     A
C130   O326    1.276   .     A
C131   C148    1.410   .     A
C132   C146    1.410   .     A
C133   C145    1.410   .     A
C134   C144    1.410   .     A
C135   C143    1.409   .     A
C136   F184    1.360   .     S
C136   C168    1.401   .     A
C136   C808    1.403   .     S
C137   C142    1.409   .     A
C138   C141    1.409   .     A
C139   C140    1.409   .     A
C147   F185    1.360   .     S
C147   C810    1.403   1_545 S
C149   C165    1.410   .     A
C150   C164    1.410   .     A
C151   C163    1.410   .     A
C152   C162    1.410   .     A
C153   C161    1.409   .     A
C154   C160    1.409   .     A
C155   C159    1.409   .     A
C156   C157    1.409   .     A
C158   F186    1.360   .     S
C158   C811    1.403   1_545 S
C166   C398    1.415   1_455 S
C167   C400    1.415   .     S
C168   C765    1.415   .     S
O297   Zn352   1.944   .     S
O297   Zn360   1.947   .     S
O297   Zn349   1.948   .     S
O297   Zn1084  1.945   1_545 S
O298   Zn351   1.955   .     S
O299   Zn354   1.955   .     S
O300   Zn353   1.955   .     S
O301   Zn363   1.954   .     S
O301   C473    1.278   1_455 S
O302   Zn362   1.954   .     S
O303   Zn357   1.954   .     S
O303   C839    1.280   1_545 S
O304   Zn349   1.954   .     S
O305   Zn359   1.955   .     S
O305   C473    1.278   1_455 S
O306   Zn358   1.955   .     S
O307   Zn361   1.955   .     S
O307   C839    1.280   1_545 S
O308   Zn357   1.948   .     S
O308   Zn355   1.945   .     S
O308   Zn361   1.947   .     S
O308   Zn1079  1.944   1_545 S
O309   Zn360   1.955   .     S
O310   Zn352   1.931   .     S
O311   Zn351   1.931   .     S
O312   Zn354   1.930   .     S
O313   Zn353   1.930   .     S
O314   Zn356   1.930   .     S
O315   Zn355   1.930   .     S
O316   Zn350   1.930   .     S
O317   Zn364   1.930   .     S
O318   Zn351   1.932   .     S
O319   Zn350   1.948   .     S
O319   Zn358   1.944   .     S
O319   Zn362   1.945   .     S
O319   Zn718   1.947   1_455 S
O320   Zn352   1.932   .     S
O321   Zn364   1.929   .     S
O322   Zn350   1.929   .     S
O323   Zn355   1.932   .     S
O324   Zn356   1.932   .     S
O325   Zn353   1.929   .     S
O326   Zn354   1.929   .     S
O327   Zn723   1.931   .     S
O328   Zn358   1.931   .     S
O329   Zn1089  1.930   .     S
O330   Zn728   1.948   1_455 S
O330   Zn353   1.947   .     S
O330   Zn359   1.944   .     S
O330   Zn363   1.945   .     S
O331   Zn360   1.930   .     S
O332   Zn363   1.930   .     S
O333   Zn726   1.930   .     S
O334   Zn357   1.930   .     S
O335   Zn1077  1.930   .     S
O336   Zn722   1.932   .     S
O337   Zn359   1.932   .     S
O338   Zn349   1.929   .     S
O339   Zn1085  1.929   .     S
O340   Zn362   1.932   .     S
O341   Zn356   1.954   .     S
O341   C833    1.278   .     S
O342   Zn727   1.932   .     S
O343   Zn1088  1.929   .     S
O344   Zn361   1.929   .     S
O345   Zn355   1.954   .     S
O345   C834    1.278   1_545 S
O346   Zn350   1.954   .     S
O346   C471    1.280   1_455 S
O347   Zn364   1.954   .     S
O347   C472    1.280   .     S
O348   Zn352   1.955   .     S
Zn349  O1063   1.930   1_545 S
Zn351  O1036   1.944   .     S
Zn354  O683    1.947   .     S
Zn356  O1025   1.945   .     S
Zn357  O1067   1.929   1_545 S
Zn358  O700    1.932   1_455 S
Zn359  O691    1.931   1_455 S
Zn360  O1071   1.929   1_545 S
Zn361  O1057   1.930   1_545 S
Zn362  O697    1.930   1_455 S
Zn363  O706    1.932   1_455 S
Zn364  O694    1.948   .     S
C365   C442    1.403   .     A
C365   F541    1.360   .     S
C365   C368    1.401   .     A
C366   C378    1.401   .     A
C366   F551    1.360   .     S
C366   C1176   1.403   .     S
C367   C511    1.401   .     A
C367   C454    1.406   .     A
C367   C1130   1.415   1_545 S
C368   C455    1.406   .     A
C368   C398    1.415   .     A
C369   C400    1.415   .     A
C369   C445    1.401   .     A
C369   C457    1.406   .     A
C370   C458    1.406   .     A
C370   C456    1.401   .     A
C370   C401    1.415   .     A
C371   C467    1.401   .     A
C371   C402    1.415   .     A
C371   C459    1.406   .     A
C372   C399    1.401   .     A
C372   C460    1.406   .     A
C372   C403    1.415   .     A
C373   C410    1.401   .     A
C373   C461    1.406   .     A
C373   C404    1.415   .     A
C374   C421    1.401   .     A
C374   C462    1.406   .     A
C375   C432    1.401   .     A
C375   C463    1.406   .     A
C375   C42     1.415   1_655 S
C376   C522    1.401   .     A
C376   C464    1.406   .     A
C376   C1131   1.415   1_545 S
C377   C449    1.403   .     A
C377   C379    1.401   .     A
C377   F552    1.360   .     S
C378   C465    1.406   .     A
C378   C1132   1.415   .     S
C379   C405    1.415   .     A
C379   C466    1.406   .     A
C380   C468    1.406   .     A
C380   C388    1.401   .     A
C380   C406    1.415   .     A
C381   C484    1.453   .     S
C381   C512    1.414   .     A
C381   C514    1.415   .     A
C382   C485    1.453   .     S
C382   C513    1.415   .     A
C382   C510    1.414   .     A
C383   C477    1.452   .     S
C383   C509    1.414   .     A
C383   C516    1.413   .     A
C384   C508    1.414   .     A
C384   C515    1.413   .     A
C384   C479    1.452   .     S
C385   C480    1.453   .     S
C385   C507    1.414   .     A
C385   C518    1.414   .     A
C386   C506    1.414   .     A
C386   C517    1.414   .     A
C386   C481    1.453   .     S
C387   C482    1.452   .     S
C387   C520    1.414   .     A
C387   C505    1.414   .     A
C388   C450    1.403   .     A
C388   F553    1.360   .     S
C389   C483    1.452   .     S
C389   C504    1.414   .     A
C389   C519    1.414   .     A
C390   C523    1.414   .     A
C390   C493    1.452   .     S
C390   C503    1.414   .     A
C391   C502    1.414   .     A
C391   C521    1.414   .     A
C391   C494    1.452   .     S
C392   C501    1.414   .     A
C392   C486    1.453   .     S
C392   C525    1.414   .     A
C393   C499    1.414   .     A
C393   C524    1.414   .     A
C393   C487    1.453   .     S
C394   C498    1.413   .     A
C394   C527    1.414   .     A
C394   C488    1.452   .     S
C395   C526    1.414   .     A
C395   C497    1.413   .     A
C395   C490    1.452   .     S
C396   C491    1.453   .     S
C396   C529    1.414   .     A
C396   C496    1.415   .     A
C397   C528    1.414   .     A
C397   C495    1.415   .     A
C397   C492    1.453   .     S
C398   C36     1.410   1_655 S
C398   C166    1.415   1_655 S
C399   F554    1.360   .     S
C399   C447    1.403   .     A
C401   C1130   1.410   1_545 S
C401   C1260   1.415   1_545 S
C402   C1095   1.415   .     S
C402   C1129   1.410   .     S
C403   C1104   1.415   .     S
C403   C1132   1.410   1_556 S
C404   C1106   1.415   1_545 S
C404   C1131   1.410   1_544 S
C405   C10     1.415   1_655 S
C405   C42     1.410   1_656 S
C406   C41     1.410   1_554 S
C407   H565    1.106   .     S
C407   C495    1.521   .     S
C407   H587    1.110   .     S
C407   H576    1.110   .     S
C408   H620    1.110   .     S
C408   H609    1.110   .     S
C408   C496    1.521   .     S
C408   H598    1.106   .     S
C409   C497    1.521   .     S
C409   H631    1.108   .     S
C409   H653    1.111   .     S
C409   H642    1.105   .     S
C410   C448    1.403   .     A
C410   F556    1.360   .     S
C411   C498    1.521   .     S
C411   H568    1.105   .     S
C411   H566    1.108   .     S
C411   H567    1.111   .     S
C412   C499    1.521   .     S
C412   H569    1.106   .     S
C412   H571    1.110   .     S
C412   H570    1.110   .     S
C413   C501    1.521   .     S
C413   H574    1.110   .     S
C413   H572    1.106   .     S
C413   H573    1.110   .     S
C414   C502    1.521   .     S
C414   H577    1.110   .     S
C414   H578    1.110   .     S
C414   H575    1.106   .     S
C415   H580    1.110   .     S
C415   C503    1.521   .     S
C415   H581    1.110   .     S
C415   H579    1.106   .     S
C416   H583    1.105   .     S
C416   H582    1.110   .     S
C416   C504    1.523   .     S
C416   H584    1.111   .     S
C417   H585    1.110   .     S
C417   H586    1.111   .     S
C417   C505    1.523   .     S
C417   H588    1.105   .     S
C418   H591    1.111   .     S
C418   H589    1.109   .     S
C418   C506    1.522   .     S
C418   H590    1.105   .     S
C419   H594    1.105   .     S
C419   C507    1.522   .     S
C419   H593    1.111   .     S
C419   H592    1.109   .     S
C420   H595    1.107   .     S
C420   C508    1.521   .     S
C420   H596    1.110   .     S
C420   H597    1.110   .     S
C421   F557    1.360   .     S
C422   H599    1.107   .     S
C422   H600    1.110   .     S
C422   C509    1.521   .     S
C422   H601    1.110   .     S
C423   H604    1.111   .     S
C423   H602    1.110   .     S
C423   H603    1.105   .     S
C423   C510    1.523   .     S
C424   H605    1.110   .     S
C424   H607    1.105   .     S
C424   C512    1.523   .     S
C424   H606    1.111   .     S
C425   C513    1.521   .     S
C425   H610    1.110   .     S
C425   H608    1.106   .     S
C425   H611    1.110   .     S
C426   C514    1.521   .     S
C426   H612    1.106   .     S
C426   H614    1.110   .     S
C426   H613    1.110   .     S
C427   H616    1.105   .     S
C427   H615    1.108   .     S
C427   C515    1.521   .     S
C427   H617    1.111   .     S
C428   C516    1.521   .     S
C428   H621    1.105   .     S
C428   H619    1.111   .     S
C428   H618    1.108   .     S
C429   H623    1.110   .     S
C429   C517    1.521   .     S
C429   H622    1.106   .     S
C429   H624    1.110   .     S
C430   H627    1.110   .     S
C430   H625    1.106   .     S
C430   C518    1.521   .     S
C430   H626    1.110   .     S
C431   H629    1.110   .     S
C431   C519    1.521   .     S
C431   H630    1.110   .     S
C431   H628    1.106   .     S
C432   F558    1.360   .     S
C432   C86     1.403   1_655 S
C433   H634    1.110   .     S
C433   C520    1.521   .     S
C433   H633    1.110   .     S
C433   H632    1.106   .     S
C434   H637    1.111   .     S
C434   C521    1.523   .     S
C434   H635    1.110   .     S
C434   H636    1.105   .     S
C435   H640    1.105   .     S
C435   C523    1.523   .     S
C435   H638    1.110   .     S
C435   H639    1.111   .     S
C436   H644    1.111   .     S
C436   H643    1.105   .     S
C436   H641    1.109   .     S
C436   C524    1.522   .     S
C437   H646    1.111   .     S
C437   C525    1.522   .     S
C437   H645    1.109   .     S
C437   H647    1.105   .     S
C438   H650    1.110   .     S
C438   C526    1.521   .     S
C438   H648    1.107   .     S
C438   H649    1.110   .     S
C439   H652    1.110   .     S
C439   H651    1.107   .     S
C439   H654    1.110   .     S
C439   C527    1.521   .     S
C440   H655    1.110   .     S
C440   H657    1.111   .     S
C440   H656    1.105   .     S
C440   C528    1.523   .     S
C441   H658    1.110   .     S
C441   H660    1.105   .     S
C441   C529    1.523   .     S
C441   H659    1.111   .     S
C442   C471    1.465   .     S
C442   C114    1.403   1_655 S
C443   C472    1.465   .     S
C443   C445    1.403   .     A
C444   C456    1.403   .     A
C444   C469    1.465   .     S
C444   C1228   1.403   1_545 S
C445   F542    1.360   .     S
C446   C470    1.465   .     S
C446   C467    1.403   .     A
C446   C1239   1.403   .     S
C447   C475    1.465   .     S
C447   C1250   1.403   .     S
C448   C476    1.465   .     S
C448   C1094   1.403   1_545 S
C449   C473    1.465   .     S
C449   C57     1.403   1_655 S
C450   C474    1.465   .     S
C451   F533    1.358   .     S
C451   C457    1.392   .     A
C451   C530    1.406   .     A
C452   C455    1.392   .     A
C452   F544    1.358   .     S
C452   C531    1.406   .     A
C453   C459    1.391   .     A
C453   C532    1.406   .     A
C453   F555    1.358   .     S
C454   F559    1.358   .     S
C454   C458    1.391   .     A
C455   F560    1.358   .     S
C456   F543    1.360   .     S
C457   F561    1.358   .     S
C458   F562    1.358   .     S
C459   F563    1.358   .     S
C460   F564    1.358   .     S
C460   C465    1.392   1_556 S
C461   F534    1.358   .     S
C461   C464    1.392   1_554 S
C462   F535    1.358   .     S
C462   C468    1.391   1_556 S
C463   F536    1.358   .     S
C463   C466    1.391   1_554 S
C464   F537    1.358   .     S
C464   C461    1.392   1_556 S
C465   F538    1.358   .     S
C465   C460    1.392   1_554 S
C466   F539    1.358   .     S
C466   C463    1.391   1_556 S
C467   F545    1.360   .     S
C468   F540    1.358   .     S
C468   C462    1.391   1_554 S
C469   O712    1.278   .     A
C469   O1433   1.278   1_545 S
C470   O662    1.278   .     A
C470   O1437   1.278   .     S
C471   O663    1.280   .     A
C471   O346    1.280   1_655 S
C472   O664    1.280   .     A
C473   O301    1.278   1_655 S
C473   O305    1.278   1_655 S
C474   O670    1.278   .     A
C474   O666    1.278   .     A
C475   O1395   1.280   .     S
C475   O1399   1.280   .     S
C476   O668    1.280   .     A
C476   O673    1.280   .     A
C477   O674    1.278   .     A
C477   O702    1.278   .     A
C478   F546    1.360   .     S
C478   C530    1.401   .     A
C479   O675    1.278   .     A
C479   O703    1.278   .     A
C480   O700    1.276   .     A
C480   O676    1.279   .     A
C481   O701    1.276   .     A
C481   O677    1.279   .     A
C482   O678    1.279   .     A
C482   O707    1.276   .     A
C483   O708    1.276   .     A
C483   O679    1.279   .     A
C484   O680    1.279   .     A
C484   O704    1.277   .     A
C485   O681    1.279   .     A
C485   O706    1.277   .     A
C486   O693    1.279   .     A
C486   O682    1.276   .     A
C487   O695    1.279   .     A
C487   O684    1.276   .     A
C488   O685    1.278   .     A
C488   O691    1.278   .     A
C489   C531    1.401   .     A
C489   F547    1.360   .     S
C489   C79     1.403   1_655 S
C490   O686    1.278   .     A
C490   O692    1.278   .     A
C491   O687    1.277   .     A
C491   O698    1.279   .     A
C492   O699    1.279   .     A
C492   O688    1.277   .     A
C493   O696    1.279   .     A
C493   O689    1.276   .     A
C494   O697    1.279   .     A
C494   O690    1.276   .     A
C495   C512    1.410   .     A
C496   C510    1.410   .     A
C497   C509    1.410   .     A
C498   C508    1.410   .     A
C499   C507    1.409   .     A
C500   F548    1.360   .     S
C500   C532    1.401   .     A
C500   C1172   1.403   .     S
C501   C506    1.409   .     A
C502   C505    1.409   .     A
C503   C504    1.409   .     A
C511   F549    1.360   .     S
C511   C1174   1.403   1_545 S
C513   C529    1.410   .     A
C514   C528    1.410   .     A
C515   C527    1.410   .     A
C516   C526    1.410   .     A
C517   C525    1.409   .     A
C518   C524    1.409   .     A
C519   C523    1.409   .     A
C520   C521    1.409   .     A
C522   F550    1.360   .     S
C522   C1175   1.403   1_545 S
C531   C36     1.415   1_655 S
C532   C1129   1.415   .     S
O661   Zn716   1.944   .     S
O661   Zn724   1.947   .     S
O661   Zn713   1.948   .     S
O661   Zn1448  1.945   1_545 S
O662   Zn715   1.955   .     S
O663   Zn718   1.955   .     S
O664   Zn717   1.955   .     S
O665   Zn727   1.954   .     S
O666   Zn726   1.954   .     S
O667   Zn721   1.954   .     S
O667   C1203   1.280   1_545 S
O668   Zn713   1.954   .     S
O669   Zn723   1.955   .     S
O670   Zn722   1.955   .     S
O671   Zn725   1.955   .     S
O671   C1203   1.280   1_545 S
O672   Zn721   1.948   .     S
O672   Zn719   1.945   .     S
O672   Zn725   1.947   .     S
O672   Zn1443  1.944   1_545 S
O673   Zn724   1.955   .     S
O674   Zn716   1.931   .     S
O675   Zn715   1.931   .     S
O676   Zn718   1.930   .     S
O677   Zn717   1.930   .     S
O678   Zn720   1.930   .     S
O679   Zn719   1.930   .     S
O680   Zn714   1.930   .     S
O681   Zn728   1.930   .     S
O682   Zn715   1.932   .     S
O683   Zn714   1.948   .     S
O683   Zn722   1.944   .     S
O683   Zn726   1.945   .     S
O684   Zn716   1.932   .     S
O685   Zn728   1.929   .     S
O686   Zn714   1.929   .     S
O687   Zn719   1.932   .     S
O688   Zn720   1.932   .     S
O689   Zn717   1.929   .     S
O690   Zn718   1.929   .     S
O691   Zn359   1.931   1_655 S
O692   Zn722   1.931   .     S
O693   Zn1453  1.930   .     S
O694   Zn717   1.947   .     S
O694   Zn723   1.944   .     S
O694   Zn727   1.945   .     S
O695   Zn724   1.930   .     S
O696   Zn727   1.930   .     S
O697   Zn362   1.930   1_655 S
O698   Zn721   1.930   .     S
O699   Zn1441  1.930   .     S
O700   Zn358   1.932   1_655 S
O701   Zn723   1.932   .     S
O702   Zn713   1.929   .     S
O703   Zn1449  1.929   .     S
O704   Zn726   1.932   .     S
O705   Zn720   1.954   .     S
O705   C1197   1.278   .     S
O706   Zn363   1.932   1_655 S
O707   Zn1452  1.929   .     S
O708   Zn725   1.929   .     S
O709   Zn719   1.954   .     S
O709   C1198   1.278   1_545 S
O710   Zn714   1.954   .     S
O711   Zn728   1.954   .     S
O711   C108    1.280   1_655 S
O712   Zn716   1.955   .     S
Zn713  O1427   1.930   1_545 S
Zn715  O1400   1.944   .     S
Zn718  O319    1.947   1_655 S
Zn720  O1389   1.945   .     S
Zn721  O1431   1.929   1_545 S
Zn724  O1435   1.929   1_545 S
Zn725  O1421   1.930   1_545 S
Zn728  O330    1.948   1_655 S
C729   C806    1.403   .     A
C729   F905    1.360   .     S
C729   C732    1.401   .     A
C730   C742    1.401   .     A
C730   F915    1.360   .     S
C730   C84     1.403   1_565 S
C731   C875    1.401   .     A
C731   C818    1.406   .     A
C732   C819    1.406   .     A
C732   C762    1.415   .     A
C733   C764    1.415   .     A
C733   C809    1.401   .     A
C733   C821    1.406   .     A
C734   C822    1.406   .     A
C734   C820    1.401   .     A
C734   C765    1.415   .     A
C735   C831    1.401   .     A
C735   C766    1.415   .     A
C735   C823    1.406   .     A
C736   C763    1.401   .     A
C736   C824    1.406   .     A
C736   C767    1.415   .     A
C737   C774    1.401   .     A
C737   C825    1.406   .     A
C737   C768    1.415   .     A
C738   C785    1.401   .     A
C738   C826    1.406   .     A
C738   C1133   1.415   1_455 S
C739   C796    1.401   .     A
C739   C827    1.406   .     A
C739   C1134   1.415   .     S
C740   C886    1.401   .     A
C740   C828    1.406   .     A
C741   C813    1.403   .     A
C741   C743    1.401   .     A
C741   F916    1.360   .     S
C742   C829    1.406   .     A
C742   C40     1.415   1_565 S
C743   C769    1.415   .     A
C743   C830    1.406   .     A
C744   C832    1.406   .     A
C744   C752    1.401   .     A
C744   C770    1.415   .     A
C745   C848    1.453   .     S
C745   C876    1.414   .     A
C745   C878    1.415   .     A
C746   C849    1.453   .     S
C746   C877    1.415   .     A
C746   C874    1.414   .     A
C747   C841    1.452   .     S
C747   C873    1.414   .     A
C747   C880    1.413   .     A
C748   C872    1.414   .     A
C748   C879    1.413   .     A
C748   C843    1.452   .     S
C749   C844    1.453   .     S
C749   C871    1.414   .     A
C749   C882    1.414   .     A
C750   C870    1.414   .     A
C750   C881    1.414   .     A
C750   C845    1.453   .     S
C751   C846    1.452   .     S
C751   C884    1.414   .     A
C751   C869    1.414   .     A
C752   C814    1.403   .     A
C752   F917    1.360   .     S
C753   C847    1.452   .     S
C753   C868    1.414   .     A
C753   C883    1.414   .     A
C754   C887    1.414   .     A
C754   C857    1.452   .     S
C754   C867    1.414   .     A
C755   C866    1.414   .     A
C755   C885    1.414   .     A
C755   C858    1.452   .     S
C756   C865    1.414   .     A
C756   C850    1.453   .     S
C756   C889    1.414   .     A
C757   C863    1.414   .     A
C757   C888    1.414   .     A
C757   C851    1.453   .     S
C758   C862    1.413   .     A
C758   C891    1.414   .     A
C758   C852    1.452   .     S
C759   C890    1.414   .     A
C759   C861    1.413   .     A
C759   C854    1.452   .     S
C760   C855    1.453   .     S
C760   C893    1.414   .     A
C760   C860    1.415   .     A
C761   C892    1.414   .     A
C761   C859    1.415   .     A
C761   C856    1.453   .     S
C762   C1128   1.410   .     S
C762   C1258   1.415   .     S
C763   F918    1.360   .     S
C763   C811    1.403   .     A
C764   C1126   1.410   1_455 S
C764   C1259   1.415   1_455 S
C766   C3      1.415   1_565 S
C766   C37     1.410   1_565 S
C767   C12     1.415   1_565 S
C767   C40     1.410   1_566 S
C768   C39     1.410   1_554 S
C769   C1102   1.415   .     S
C769   C1134   1.410   1_556 S
C770   C1103   1.415   1_455 S
C770   C1133   1.410   1_454 S
C771   H929    1.106   .     S
C771   C859    1.521   .     S
C771   H951    1.110   .     S
C771   H940    1.110   .     S
C772   H984    1.110   .     S
C772   H973    1.110   .     S
C772   C860    1.521   .     S
C772   H962    1.106   .     S
C773   C861    1.521   .     S
C773   H995    1.108   .     S
C773   H1017   1.111   .     S
C773   H1006   1.105   .     S
C774   C812    1.403   .     A
C774   F920    1.360   .     S
C775   C862    1.521   .     S
C775   H932    1.105   .     S
C775   H930    1.108   .     S
C775   H931    1.111   .     S
C776   C863    1.521   .     S
C776   H933    1.106   .     S
C776   H935    1.110   .     S
C776   H934    1.110   .     S
C777   C865    1.521   .     S
C777   H938    1.110   .     S
C777   H936    1.106   .     S
C777   H937    1.110   .     S
C778   C866    1.521   .     S
C778   H941    1.110   .     S
C778   H942    1.110   .     S
C778   H939    1.106   .     S
C779   H944    1.110   .     S
C779   C867    1.521   .     S
C779   H945    1.110   .     S
C779   H943    1.106   .     S
C780   H947    1.105   .     S
C780   H946    1.110   .     S
C780   C868    1.523   .     S
C780   H948    1.111   .     S
C781   H949    1.110   .     S
C781   H950    1.111   .     S
C781   C869    1.523   .     S
C781   H952    1.105   .     S
C782   H955    1.111   .     S
C782   H953    1.109   .     S
C782   C870    1.522   .     S
C782   H954    1.105   .     S
C783   H958    1.105   .     S
C783   C871    1.522   .     S
C783   H957    1.111   .     S
C783   H956    1.109   .     S
C784   H959    1.107   .     S
C784   C872    1.521   .     S
C784   H960    1.110   .     S
C784   H961    1.110   .     S
C785   F921    1.360   .     S
C785   C1177   1.403   1_455 S
C786   H963    1.107   .     S
C786   H964    1.110   .     S
C786   C873    1.521   .     S
C786   H965    1.110   .     S
C787   H968    1.111   .     S
C787   H966    1.110   .     S
C787   H967    1.105   .     S
C787   C874    1.523   .     S
C788   H969    1.110   .     S
C788   H971    1.105   .     S
C788   C876    1.523   .     S
C788   H970    1.111   .     S
C789   C877    1.521   .     S
C789   H974    1.110   .     S
C789   H972    1.106   .     S
C789   H975    1.110   .     S
C790   C878    1.521   .     S
C790   H976    1.106   .     S
C790   H978    1.110   .     S
C790   H977    1.110   .     S
C791   H980    1.105   .     S
C791   H979    1.108   .     S
C791   C879    1.521   .     S
C791   H981    1.111   .     S
C792   C880    1.521   .     S
C792   H985    1.105   .     S
C792   H983    1.111   .     S
C792   H982    1.108   .     S
C793   H987    1.110   .     S
C793   C881    1.521   .     S
C793   H986    1.106   .     S
C793   H988    1.110   .     S
C794   H991    1.110   .     S
C794   H989    1.106   .     S
C794   C882    1.521   .     S
C794   H990    1.110   .     S
C795   H993    1.110   .     S
C795   C883    1.521   .     S
C795   H994    1.110   .     S
C795   H992    1.106   .     S
C796   F922    1.360   .     S
C796   C1178   1.403   .     S
C797   H998    1.110   .     S
C797   C884    1.521   .     S
C797   H997    1.110   .     S
C797   H996    1.106   .     S
C798   H1001   1.111   .     S
C798   C885    1.523   .     S
C798   H999    1.110   .     S
C798   H1000   1.105   .     S
C799   H1004   1.105   .     S
C799   C887    1.523   .     S
C799   H1002   1.110   .     S
C799   H1003   1.111   .     S
C800   H1008   1.111   .     S
C800   H1007   1.105   .     S
C800   H1005   1.109   .     S
C800   C888    1.522   .     S
C801   H1010   1.111   .     S
C801   C889    1.522   .     S
C801   H1009   1.109   .     S
C801   H1011   1.105   .     S
C802   H1014   1.110   .     S
C802   C890    1.521   .     S
C802   H1012   1.107   .     S
C802   H1013   1.110   .     S
C803   H1016   1.110   .     S
C803   H1015   1.107   .     S
C803   H1018   1.110   .     S
C803   C891    1.521   .     S
C804   H1019   1.110   .     S
C804   H1021   1.111   .     S
C804   H1020   1.105   .     S
C804   C892    1.523   .     S
C805   H1022   1.110   .     S
C805   H1024   1.105   .     S
C805   C893    1.523   .     S
C805   H1023   1.111   .     S
C806   C835    1.465   .     S
C806   C1206   1.403   .     S
C807   C836    1.465   .     S
C807   C809    1.403   .     A
C807   C1217   1.403   1_455 S
C808   C820    1.403   .     A
C808   C833    1.465   .     S
C809   F906    1.360   .     S
C810   C834    1.465   .     S
C810   C831    1.403   .     A
C810   C147    1.403   1_565 S
C811   C839    1.465   .     S
C811   C158    1.403   1_565 S
C812   C840    1.465   .     S
C813   C837    1.465   .     S
C813   C1149   1.403   .     S
C814   C838    1.465   .     S
C814   C1160   1.403   1_455 S
C815   F897    1.358   .     S
C815   C821    1.392   .     A
C815   C894    1.406   .     A
C816   C819    1.392   .     A
C816   F908    1.358   .     S
C816   C895    1.406   .     A
C817   C823    1.391   .     A
C817   C896    1.406   .     A
C817   F919    1.358   .     S
C818   F923    1.358   .     S
C818   C822    1.391   .     A
C819   F924    1.358   .     S
C820   F907    1.360   .     S
C821   F925    1.358   .     S
C822   F926    1.358   .     S
C823   F927    1.358   .     S
C824   F928    1.358   .     S
C824   C829    1.392   1_556 S
C825   F898    1.358   .     S
C825   C828    1.392   1_554 S
C826   F899    1.358   .     S
C826   C832    1.391   1_556 S
C827   F900    1.358   .     S
C827   C830    1.391   1_554 S
C828   F901    1.358   .     S
C828   C825    1.392   1_556 S
C829   F902    1.358   .     S
C829   C824    1.392   1_554 S
C830   F903    1.358   .     S
C830   C827    1.391   1_556 S
C831   F909    1.360   .     S
C832   F904    1.358   .     S
C832   C826    1.391   1_554 S
C833   O1076   1.278   .     A
C834   O1026   1.278   .     A
C834   O345    1.278   1_565 S
C835   O1027   1.280   .     A
C835   O1438   1.280   .     S
C836   O1028   1.280   .     A
C836   O1439   1.280   1_455 S
C837   O1393   1.278   .     S
C837   O1397   1.278   .     S
C838   O1034   1.278   .     A
C838   O1030   1.278   .     A
C839   O303    1.280   1_565 S
C839   O307    1.280   1_565 S
C840   O1032   1.280   .     A
C840   O1037   1.280   .     A
C841   O1038   1.278   .     A
C841   O1066   1.278   .     A
C842   F910    1.360   .     S
C842   C894    1.401   .     A
C842   C1170   1.403   1_455 S
C843   O1039   1.278   .     A
C843   O1067   1.278   .     A
C844   O1064   1.276   .     A
C844   O1040   1.279   .     A
C845   O1065   1.276   .     A
C845   O1041   1.279   .     A
C846   O1042   1.279   .     A
C846   O1071   1.276   .     A
C847   O1072   1.276   .     A
C847   O1043   1.279   .     A
C848   O1044   1.279   .     A
C848   O1068   1.277   .     A
C849   O1045   1.279   .     A
C849   O1070   1.277   .     A
C850   O1057   1.279   .     A
C850   O1046   1.276   .     A
C851   O1059   1.279   .     A
C851   O1048   1.276   .     A
C852   O1049   1.278   .     A
C852   O1055   1.278   .     A
C853   C895    1.401   .     A
C853   F911    1.360   .     S
C853   C1171   1.403   .     S
C854   O1050   1.278   .     A
C854   O1056   1.278   .     A
C855   O1051   1.277   .     A
C855   O1062   1.279   .     A
C856   O1063   1.279   .     A
C856   O1052   1.277   .     A
C857   O1060   1.279   .     A
C857   O1053   1.276   .     A
C858   O1061   1.279   .     A
C858   O1054   1.276   .     A
C859   C876    1.410   .     A
C860   C874    1.410   .     A
C861   C873    1.410   .     A
C862   C872    1.410   .     A
C863   C871    1.409   .     A
C864   F912    1.360   .     S
C864   C896    1.401   .     A
C864   C80     1.403   1_565 S
C865   C870    1.409   .     A
C866   C869    1.409   .     A
C867   C868    1.409   .     A
C875   F913    1.360   .     S
C877   C893    1.410   .     A
C878   C892    1.410   .     A
C879   C891    1.410   .     A
C880   C890    1.410   .     A
C881   C889    1.409   .     A
C882   C888    1.409   .     A
C883   C887    1.409   .     A
C884   C885    1.409   .     A
C886   F914    1.360   .     S
C894   C1126   1.415   1_455 S
C895   C1128   1.415   .     S
C896   C37     1.415   1_565 S
O1025  Zn1080  1.944   .     S
O1025  Zn1088  1.947   .     S
O1025  Zn1077  1.948   .     S
O1026  Zn1079  1.955   .     S
O1027  Zn1082  1.955   .     S
O1028  Zn1081  1.955   .     S
O1029  Zn1091  1.954   .     S
O1029  C1201   1.278   1_455 S
O1030  Zn1090  1.954   .     S
O1031  Zn1085  1.954   .     S
O1032  Zn1077  1.954   .     S
O1033  Zn1087  1.955   .     S
O1033  C1201   1.278   1_455 S
O1034  Zn1086  1.955   .     S
O1035  Zn1089  1.955   .     S
O1036  Zn1085  1.948   .     S
O1036  Zn1083  1.945   .     S
O1036  Zn1089  1.947   .     S
O1037  Zn1088  1.955   .     S
O1038  Zn1080  1.931   .     S
O1039  Zn1079  1.931   .     S
O1040  Zn1082  1.930   .     S
O1041  Zn1081  1.930   .     S
O1042  Zn1084  1.930   .     S
O1043  Zn1083  1.930   .     S
O1044  Zn1078  1.930   .     S
O1045  Zn1092  1.930   .     S
O1046  Zn1079  1.932   .     S
O1047  Zn1078  1.948   .     S
O1047  Zn1086  1.944   .     S
O1047  Zn1090  1.945   .     S
O1047  Zn1446  1.947   1_455 S
O1048  Zn1080  1.932   .     S
O1049  Zn1092  1.929   .     S
O1050  Zn1078  1.929   .     S
O1051  Zn1083  1.932   .     S
O1052  Zn1084  1.932   .     S
O1053  Zn1081  1.929   .     S
O1054  Zn1082  1.929   .     S
O1055  Zn1451  1.931   .     S
O1056  Zn1086  1.931   .     S
O1057  Zn361   1.930   1_565 S
O1058  Zn1456  1.948   1_455 S
O1058  Zn1081  1.947   .     S
O1058  Zn1087  1.944   .     S
O1058  Zn1091  1.945   .     S
O1059  Zn1088  1.930   .     S
O1060  Zn1091  1.930   .     S
O1061  Zn1454  1.930   .     S
O1062  Zn1085  1.930   .     S
O1063  Zn349   1.930   1_565 S
O1064  Zn1450  1.932   .     S
O1065  Zn1087  1.932   .     S
O1066  Zn1077  1.929   .     S
O1067  Zn357   1.929   1_565 S
O1068  Zn1090  1.932   .     S
O1069  Zn1084  1.954   .     S
O1069  C105    1.278   1_565 S
O1070  Zn1455  1.932   .     S
O1071  Zn360   1.929   1_565 S
O1072  Zn1089  1.929   .     S
O1073  Zn1083  1.954   .     S
O1074  Zn1078  1.954   .     S
O1074  C1199   1.280   1_455 S
O1075  Zn1092  1.954   .     S
O1075  C1200   1.280   .     S
O1076  Zn1080  1.955   .     S
Zn1079 O308    1.944   1_565 S
Zn1082 O1411   1.947   .     S
Zn1084 O297    1.945   1_565 S
Zn1086 O1428   1.932   1_455 S
Zn1087 O1419   1.931   1_455 S
Zn1090 O1425   1.930   1_455 S
Zn1091 O1434   1.932   1_455 S
Zn1092 O1422   1.948   .     S
C1093  C1170   1.403   .     A
C1093  F1269   1.360   .     S
C1093  C1096   1.401   .     A
C1094  C1106   1.401   .     A
C1094  F1279   1.360   .     S
C1094  C448    1.403   1_565 S
C1095  C1239   1.401   .     A
C1095  C1182   1.406   .     A
C1096  C1183   1.406   .     A
C1096  C1126   1.415   .     A
C1097  C1128   1.415   .     A
C1097  C1173   1.401   .     A
C1097  C1185   1.406   .     A
C1098  C1186   1.406   .     A
C1098  C1184   1.401   .     A
C1098  C1129   1.415   .     A
C1099  C1195   1.401   .     A
C1099  C1130   1.415   .     A
C1099  C1187   1.406   .     A
C1100  C1127   1.401   .     A
C1100  C1188   1.406   .     A
C1100  C1131   1.415   .     A
C1101  C1138   1.401   .     A
C1101  C1189   1.406   .     A
C1101  C1132   1.415   .     A
C1102  C1149   1.401   .     A
C1102  C1190   1.406   .     A
C1103  C1160   1.401   .     A
C1103  C1191   1.406   .     A
C1103  C770    1.415   1_655 S
C1104  C1250   1.401   .     A
C1104  C1192   1.406   .     A
C1105  C1177   1.403   .     A
C1105  C1107   1.401   .     A
C1105  F1280   1.360   .     S
C1106  C1193   1.406   .     A
C1106  C404    1.415   1_565 S
C1107  C1133   1.415   .     A
C1107  C1194   1.406   .     A
C1108  C1196   1.406   .     A
C1108  C1116   1.401   .     A
C1108  C1134   1.415   .     A
C1109  C1212   1.453   .     S
C1109  C1240   1.414   .     A
C1109  C1242   1.415   .     A
C1110  C1213   1.453   .     S
C1110  C1241   1.415   .     A
C1110  C1238   1.414   .     A
C1111  C1205   1.452   .     S
C1111  C1237   1.414   .     A
C1111  C1244   1.413   .     A
C1112  C1236   1.414   .     A
C1112  C1243   1.413   .     A
C1112  C1207   1.452   .     S
C1113  C1208   1.453   .     S
C1113  C1235   1.414   .     A
C1113  C1246   1.414   .     A
C1114  C1234   1.414   .     A
C1114  C1245   1.414   .     A
C1114  C1209   1.453   .     S
C1115  C1210   1.452   .     S
C1115  C1248   1.414   .     A
C1115  C1233   1.414   .     A
C1116  C1178   1.403   .     A
C1116  F1281   1.360   .     S
C1117  C1211   1.452   .     S
C1117  C1232   1.414   .     A
C1117  C1247   1.414   .     A
C1118  C1251   1.414   .     A
C1118  C1221   1.452   .     S
C1118  C1231   1.414   .     A
C1119  C1230   1.414   .     A
C1119  C1249   1.414   .     A
C1119  C1222   1.452   .     S
C1120  C1229   1.414   .     A
C1120  C1214   1.453   .     S
C1120  C1253   1.414   .     A
C1121  C1227   1.414   .     A
C1121  C1252   1.414   .     A
C1121  C1215   1.453   .     S
C1122  C1226   1.413   .     A
C1122  C1255   1.414   .     A
C1122  C1216   1.452   .     S
C1123  C1254   1.414   .     A
C1123  C1225   1.413   .     A
C1123  C1218   1.452   .     S
C1124  C1219   1.453   .     S
C1124  C1257   1.414   .     A
C1124  C1224   1.415   .     A
C1125  C1256   1.414   .     A
C1125  C1223   1.415   .     A
C1125  C1220   1.453   .     S
C1126  C764    1.410   1_655 S
C1126  C894    1.415   1_655 S
C1127  F1282   1.360   .     S
C1127  C1175   1.403   .     A
C1130  C367    1.415   1_565 S
C1130  C401    1.410   1_565 S
C1131  C376    1.415   1_565 S
C1131  C404    1.410   1_566 S
C1132  C403    1.410   1_554 S
C1133  C738    1.415   1_655 S
C1133  C770    1.410   1_656 S
C1134  C769    1.410   1_554 S
C1135  H1293   1.106   .     S
C1135  C1223   1.521   .     S
C1135  H1315   1.110   .     S
C1135  H1304   1.110   .     S
C1136  H1348   1.110   .     S
C1136  H1337   1.110   .     S
C1136  C1224   1.521   .     S
C1136  H1326   1.106   .     S
C1137  C1225   1.521   .     S
C1137  H1359   1.108   .     S
C1137  H1381   1.111   .     S
C1137  H1370   1.105   .     S
C1138  C1176   1.403   .     A
C1138  F1284   1.360   .     S
C1139  C1226   1.521   .     S
C1139  H1296   1.105   .     S
C1139  H1294   1.108   .     S
C1139  H1295   1.111   .     S
C1140  C1227   1.521   .     S
C1140  H1297   1.106   .     S
C1140  H1299   1.110   .     S
C1140  H1298   1.110   .     S
C1141  C1229   1.521   .     S
C1141  H1302   1.110   .     S
C1141  H1300   1.106   .     S
C1141  H1301   1.110   .     S
C1142  C1230   1.521   .     S
C1142  H1305   1.110   .     S
C1142  H1306   1.110   .     S
C1142  H1303   1.106   .     S
C1143  H1308   1.110   .     S
C1143  C1231   1.521   .     S
C1143  H1309   1.110   .     S
C1143  H1307   1.106   .     S
C1144  H1311   1.105   .     S
C1144  H1310   1.110   .     S
C1144  C1232   1.523   .     S
C1144  H1312   1.111   .     S
C1145  H1313   1.110   .     S
C1145  H1314   1.111   .     S
C1145  C1233   1.523   .     S
C1145  H1316   1.105   .     S
C1146  H1319   1.111   .     S
C1146  H1317   1.109   .     S
C1146  C1234   1.522   .     S
C1146  H1318   1.105   .     S
C1147  H1322   1.105   .     S
C1147  C1235   1.522   .     S
C1147  H1321   1.111   .     S
C1147  H1320   1.109   .     S
C1148  H1323   1.107   .     S
C1148  C1236   1.521   .     S
C1148  H1324   1.110   .     S
C1148  H1325   1.110   .     S
C1149  F1285   1.360   .     S
C1150  H1327   1.107   .     S
C1150  H1328   1.110   .     S
C1150  C1237   1.521   .     S
C1150  H1329   1.110   .     S
C1151  H1332   1.111   .     S
C1151  H1330   1.110   .     S
C1151  H1331   1.105   .     S
C1151  C1238   1.523   .     S
C1152  H1333   1.110   .     S
C1152  H1335   1.105   .     S
C1152  C1240   1.523   .     S
C1152  H1334   1.111   .     S
C1153  C1241   1.521   .     S
C1153  H1338   1.110   .     S
C1153  H1336   1.106   .     S
C1153  H1339   1.110   .     S
C1154  C1242   1.521   .     S
C1154  H1340   1.106   .     S
C1154  H1342   1.110   .     S
C1154  H1341   1.110   .     S
C1155  H1344   1.105   .     S
C1155  H1343   1.108   .     S
C1155  C1243   1.521   .     S
C1155  H1345   1.111   .     S
C1156  C1244   1.521   .     S
C1156  H1349   1.105   .     S
C1156  H1347   1.111   .     S
C1156  H1346   1.108   .     S
C1157  H1351   1.110   .     S
C1157  C1245   1.521   .     S
C1157  H1350   1.106   .     S
C1157  H1352   1.110   .     S
C1158  H1355   1.110   .     S
C1158  H1353   1.106   .     S
C1158  C1246   1.521   .     S
C1158  H1354   1.110   .     S
C1159  H1357   1.110   .     S
C1159  C1247   1.521   .     S
C1159  H1358   1.110   .     S
C1159  H1356   1.106   .     S
C1160  F1286   1.360   .     S
C1160  C814    1.403   1_655 S
C1161  H1362   1.110   .     S
C1161  C1248   1.521   .     S
C1161  H1361   1.110   .     S
C1161  H1360   1.106   .     S
C1162  H1365   1.111   .     S
C1162  C1249   1.523   .     S
C1162  H1363   1.110   .     S
C1162  H1364   1.105   .     S
C1163  H1368   1.105   .     S
C1163  C1251   1.523   .     S
C1163  H1366   1.110   .     S
C1163  H1367   1.111   .     S
C1164  H1372   1.111   .     S
C1164  H1371   1.105   .     S
C1164  H1369   1.109   .     S
C1164  C1252   1.522   .     S
C1165  H1374   1.111   .     S
C1165  C1253   1.522   .     S
C1165  H1373   1.109   .     S
C1165  H1375   1.105   .     S
C1166  H1378   1.110   .     S
C1166  C1254   1.521   .     S
C1166  H1376   1.107   .     S
C1166  H1377   1.110   .     S
C1167  H1380   1.110   .     S
C1167  H1379   1.107   .     S
C1167  H1382   1.110   .     S
C1167  C1255   1.521   .     S
C1168  H1383   1.110   .     S
C1168  H1385   1.111   .     S
C1168  H1384   1.105   .     S
C1168  C1256   1.523   .     S
C1169  H1386   1.110   .     S
C1169  H1388   1.105   .     S
C1169  C1257   1.523   .     S
C1169  H1387   1.111   .     S
C1170  C1199   1.465   .     S
C1170  C842    1.403   1_655 S
C1171  C1200   1.465   .     S
C1171  C1173   1.403   .     A
C1172  C1184   1.403   .     A
C1172  C1197   1.465   .     S
C1173  F1270   1.360   .     S
C1174  C1198   1.465   .     S
C1174  C1195   1.403   .     A
C1174  C511    1.403   1_565 S
C1175  C1203   1.465   .     S
C1175  C522    1.403   1_565 S
C1176  C1204   1.465   .     S
C1177  C1201   1.465   .     S
C1177  C785    1.403   1_655 S
C1178  C1202   1.465   .     S
C1179  F1261   1.358   .     S
C1179  C1185   1.392   .     A
C1179  C1258   1.406   .     A
C1180  C1183   1.392   .     A
C1180  F1272   1.358   .     S
C1180  C1259   1.406   .     A
C1181  C1187   1.391   .     A
C1181  C1260   1.406   .     A
C1181  F1283   1.358   .     S
C1182  F1287   1.358   .     S
C1182  C1186   1.391   .     A
C1183  F1288   1.358   .     S
C1184  F1271   1.360   .     S
C1185  F1289   1.358   .     S
C1186  F1290   1.358   .     S
C1187  F1291   1.358   .     S
C1188  F1292   1.358   .     S
C1188  C1193   1.392   1_556 S
C1189  F1262   1.358   .     S
C1189  C1192   1.392   1_554 S
C1190  F1263   1.358   .     S
C1190  C1196   1.391   1_556 S
C1191  F1264   1.358   .     S
C1191  C1194   1.391   1_554 S
C1192  F1265   1.358   .     S
C1192  C1189   1.392   1_556 S
C1193  F1266   1.358   .     S
C1193  C1188   1.392   1_554 S
C1194  F1267   1.358   .     S
C1194  C1191   1.391   1_556 S
C1195  F1273   1.360   .     S
C1196  F1268   1.358   .     S
C1196  C1190   1.391   1_554 S
C1197  O1440   1.278   .     A
C1198  O1390   1.278   .     A
C1198  O709    1.278   1_565 S
C1199  O1391   1.280   .     A
C1199  O1074   1.280   1_655 S
C1200  O1392   1.280   .     A
C1201  O1029   1.278   1_655 S
C1201  O1033   1.278   1_655 S
C1202  O1398   1.278   .     A
C1202  O1394   1.278   .     A
C1203  O667    1.280   1_565 S
C1203  O671    1.280   1_565 S
C1204  O1396   1.280   .     A
C1204  O1401   1.280   .     A
C1205  O1402   1.278   .     A
C1205  O1430   1.278   .     A
C1206  F1274   1.360   .     S
C1206  C1258   1.401   .     A
C1207  O1403   1.278   .     A
C1207  O1431   1.278   .     A
C1208  O1428   1.276   .     A
C1208  O1404   1.279   .     A
C1209  O1429   1.276   .     A
C1209  O1405   1.279   .     A
C1210  O1406   1.279   .     A
C1210  O1435   1.276   .     A
C1211  O1436   1.276   .     A
C1211  O1407   1.279   .     A
C1212  O1408   1.279   .     A
C1212  O1432   1.277   .     A
C1213  O1409   1.279   .     A
C1213  O1434   1.277   .     A
C1214  O1421   1.279   .     A
C1214  O1410   1.276   .     A
C1215  O1423   1.279   .     A
C1215  O1412   1.276   .     A
C1216  O1413   1.278   .     A
C1216  O1419   1.278   .     A
C1217  C1259   1.401   .     A
C1217  F1275   1.360   .     S
C1217  C807    1.403   1_655 S
C1218  O1414   1.278   .     A
C1218  O1420   1.278   .     A
C1219  O1415   1.277   .     A
C1219  O1426   1.279   .     A
C1220  O1427   1.279   .     A
C1220  O1416   1.277   .     A
C1221  O1424   1.279   .     A
C1221  O1417   1.276   .     A
C1222  O1425   1.279   .     A
C1222  O1418   1.276   .     A
C1223  C1240   1.410   .     A
C1224  C1238   1.410   .     A
C1225  C1237   1.410   .     A
C1226  C1236   1.410   .     A
C1227  C1235   1.409   .     A
C1228  F1276   1.360   .     S
C1228  C1260   1.401   .     A
C1228  C444    1.403   1_565 S
C1229  C1234   1.409   .     A
C1230  C1233   1.409   .     A
C1231  C1232   1.409   .     A
C1239  F1277   1.360   .     S
C1241  C1257   1.410   .     A
C1242  C1256   1.410   .     A
C1243  C1255   1.410   .     A
C1244  C1254   1.410   .     A
C1245  C1253   1.409   .     A
C1246  C1252   1.409   .     A
C1247  C1251   1.409   .     A
C1248  C1249   1.409   .     A
C1250  F1278   1.360   .     S
C1259  C764    1.415   1_655 S
C1260  C401    1.415   1_565 S
O1389  Zn1444  1.944   .     S
O1389  Zn1452  1.947   .     S
O1389  Zn1441  1.948   .     S
O1390  Zn1443  1.955   .     S
O1391  Zn1446  1.955   .     S
O1392  Zn1445  1.955   .     S
O1393  Zn1455  1.954   .     S
O1394  Zn1454  1.954   .     S
O1395  Zn1449  1.954   .     S
O1396  Zn1441  1.954   .     S
O1397  Zn1451  1.955   .     S
O1398  Zn1450  1.955   .     S
O1399  Zn1453  1.955   .     S
O1400  Zn1449  1.948   .     S
O1400  Zn1447  1.945   .     S
O1400  Zn1453  1.947   .     S
O1401  Zn1452  1.955   .     S
O1402  Zn1444  1.931   .     S
O1403  Zn1443  1.931   .     S
O1404  Zn1446  1.930   .     S
O1405  Zn1445  1.930   .     S
O1406  Zn1448  1.930   .     S
O1407  Zn1447  1.930   .     S
O1408  Zn1442  1.930   .     S
O1409  Zn1456  1.930   .     S
O1410  Zn1443  1.932   .     S
O1411  Zn1442  1.948   .     S
O1411  Zn1450  1.944   .     S
O1411  Zn1454  1.945   .     S
O1412  Zn1444  1.932   .     S
O1413  Zn1456  1.929   .     S
O1414  Zn1442  1.929   .     S
O1415  Zn1447  1.932   .     S
O1416  Zn1448  1.932   .     S
O1417  Zn1445  1.929   .     S
O1418  Zn1446  1.929   .     S
O1419  Zn1087  1.931   1_655 S
O1420  Zn1450  1.931   .     S
O1421  Zn725   1.930   1_565 S
O1422  Zn1445  1.947   .     S
O1422  Zn1451  1.944   .     S
O1422  Zn1455  1.945   .     S
O1423  Zn1452  1.930   .     S
O1424  Zn1455  1.930   .     S
O1425  Zn1090  1.930   1_655 S
O1426  Zn1449  1.930   .     S
O1427  Zn713   1.930   1_565 S
O1428  Zn1086  1.932   1_655 S
O1429  Zn1451  1.932   .     S
O1430  Zn1441  1.929   .     S
O1431  Zn721   1.929   1_565 S
O1432  Zn1454  1.932   .     S
O1433  Zn1448  1.954   .     S
O1433  C469    1.278   1_565 S
O1434  Zn1091  1.932   1_655 S
O1435  Zn724   1.929   1_565 S
O1436  Zn1453  1.929   .     S
O1437  Zn1447  1.954   .     S
O1438  Zn1442  1.954   .     S
O1439  Zn1456  1.954   .     S
O1439  C836    1.280   1_655 S
O1440  Zn1444  1.955   .     S
Zn1443 O672    1.944   1_565 S
Zn1446 O1047   1.947   1_655 S
Zn1448 O661    1.945   1_565 S
Zn1456 O1058   1.948   1_655 S
