data_str_m2_o1_o5_pcu_sym.73
_audit_creation_date              2020-01-03
_audit_creation_method            'Materials Studio'
_symmetry_space_group_name_H-M    'P1'
_symmetry_Int_Tables_number       1
_symmetry_cell_setting            triclinic
loop_
_symmetry_equiv_pos_as_xyz
  x,y,z
_cell_length_a                    32.6515
_cell_length_b                    28.9658
_cell_length_c                    27.2350
_cell_angle_alpha                 89.9997
_cell_angle_beta                  95.2473
_cell_angle_gamma                 89.9960
loop_
_atom_site_label
_atom_site_type_symbol
_atom_site_fract_x
_atom_site_fract_y
_atom_site_fract_z
_atom_site_U_iso_or_equiv
_atom_site_adp_type
_atom_site_occupancy
C1     C     0.08782   0.16667   0.17104   0.00000  Uiso   1.00
C2     C     0.02114   0.20905   0.17392   0.00000  Uiso   1.00
C3     C     0.29033   0.16666   0.15737   0.00000  Uiso   1.00
C4     C     0.04301   0.16667   0.17596   0.00000  Uiso   1.00
C5     C     0.14024   0.02475   0.13381   0.00000  Uiso   1.00
C6     C     0.19310   0.30859   0.19953   0.00000  Uiso   1.00
C7     C     0.19310   0.02474   0.19953   0.00000  Uiso   1.00
C8     C     0.14024   0.30859   0.13381   0.00000  Uiso   1.00
C9     C     0.04141   0.07992   0.18975   0.00000  Uiso   1.00
C10    C     0.29193   0.25341   0.14359   0.00000  Uiso   1.00
C11    C     0.29195   0.07990   0.14368   0.00000  Uiso   1.00
C12    C     0.24551   0.16666   0.16229   0.00000  Uiso   1.00
C13    C     0.04138   0.25344   0.18965   0.00000  Uiso   1.00
C14    C     0.11036   0.04875   0.09597   0.00000  Uiso   1.00
C15    C     0.22298   0.28458   0.23736   0.00000  Uiso   1.00
C16    C     0.22296   0.04875   0.23738   0.00000  Uiso   1.00
C17    C     0.11038   0.28459   0.09596   0.00000  Uiso   1.00
C18    C     0.16645   0.16667   0.07364   0.00000  Uiso   1.00
C19    C     0.16688   0.16667   0.25969   0.00000  Uiso   1.00
C20    C     0.16659   0.16667   0.02187   0.00000  Uiso   1.00
C21    C     0.16674   0.16667   0.31147   0.00000  Uiso   1.00
C22    C     0.02115   0.12429   0.17397   0.00000  Uiso   1.00
C23    C     0.31219   0.20904   0.15936   0.00000  Uiso   1.00
C24    C     0.31220   0.12428   0.15941   0.00000  Uiso   1.00
Cu25   Cu    0.16667   0.21355   0.16667   0.00000  Uiso   1.00
Cu26   Cu    0.16667   0.11978   0.16667   0.00000  Uiso   1.00
H27    H     0.03512   0.04852   0.16873   0.00000  Uiso   1.00
H28    H     0.21534   0.29333   0.27513   0.00000  Uiso   1.00
H29    H     0.22419   0.08605   0.23585   0.00000  Uiso   1.00
H30    H     0.21529   0.04002   0.27514   0.00000  Uiso   1.00
H31    H     0.25494   0.03796   0.23286   0.00000  Uiso   1.00
H32    H     0.10915   0.24728   0.09748   0.00000  Uiso   1.00
H33    H     0.07839   0.29538   0.10047   0.00000  Uiso   1.00
H34    H     0.11805   0.29331   0.05819   0.00000  Uiso   1.00
H35    H     0.29821   0.28481   0.16460   0.00000  Uiso   1.00
H36    H     0.29824   0.04852   0.16474   0.00000  Uiso   1.00
H37    H     0.03510   0.28481   0.16859   0.00000  Uiso   1.00
H38    H     0.10915   0.08606   0.09747   0.00000  Uiso   1.00
H39    H     0.11799   0.04000   0.05820   0.00000  Uiso   1.00
H40    H     0.07838   0.03799   0.10054   0.00000  Uiso   1.00
H41    H     0.22418   0.24727   0.23586   0.00000  Uiso   1.00
H42    H     0.25495   0.29534   0.23280   0.00000  Uiso   1.00
N43    N     0.16667   0.28402   0.16667   0.00000  Uiso   1.00
N44    N     0.16667   0.04931   0.16667   0.00000  Uiso   1.00
O45    O     0.10655   0.20625   0.16666   0.00000  Uiso   1.00
O46    O     0.26899   0.25541   0.10562   0.00000  Uiso   1.00
O47    O     0.26902   0.07787   0.10571   0.00000  Uiso   1.00
O48    O     0.06431   0.25547   0.22762   0.00000  Uiso   1.00
O49    O     0.22679   0.12709   0.16667   0.00000  Uiso   1.00
O50    O     0.22679   0.20625   0.16667   0.00000  Uiso   1.00
O51    O     0.10655   0.12709   0.16666   0.00000  Uiso   1.00
O52    O     0.16667   0.20625   0.09613   0.00000  Uiso   1.00
O53    O     0.16667   0.12708   0.23720   0.00000  Uiso   1.00
O54    O     0.16667   0.20625   0.23720   0.00000  Uiso   1.00
O55    O     0.16667   0.12708   0.09613   0.00000  Uiso   1.00
O56    O     0.06435   0.07793   0.22771   0.00000  Uiso   1.00
C57    C     0.42116   0.16667   0.17104   0.00000  Uiso   1.00
C58    C     0.35447   0.20905   0.17392   0.00000  Uiso   1.00
C59    C     0.62366   0.16666   0.15737   0.00000  Uiso   1.00
C60    C     0.37634   0.16667   0.17596   0.00000  Uiso   1.00
C61    C     0.47357   0.02475   0.13381   0.00000  Uiso   1.00
C62    C     0.52643   0.30859   0.19953   0.00000  Uiso   1.00
C63    C     0.52643   0.02474   0.19953   0.00000  Uiso   1.00
C64    C     0.47357   0.30859   0.13381   0.00000  Uiso   1.00
C65    C     0.37474   0.07992   0.18975   0.00000  Uiso   1.00
C66    C     0.62526   0.25341   0.14359   0.00000  Uiso   1.00
C67    C     0.62528   0.07990   0.14368   0.00000  Uiso   1.00
C68    C     0.57884   0.16666   0.16229   0.00000  Uiso   1.00
C69    C     0.37472   0.25344   0.18965   0.00000  Uiso   1.00
C70    C     0.44369   0.04875   0.09597   0.00000  Uiso   1.00
C71    C     0.55631   0.28458   0.23736   0.00000  Uiso   1.00
C72    C     0.55629   0.04875   0.23738   0.00000  Uiso   1.00
C73    C     0.44371   0.28459   0.09596   0.00000  Uiso   1.00
C74    C     0.49979   0.16667   0.07364   0.00000  Uiso   1.00
C75    C     0.50021   0.16667   0.25969   0.00000  Uiso   1.00
C76    C     0.49992   0.16667   0.02187   0.00000  Uiso   1.00
C77    C     0.50008   0.16667   0.31147   0.00000  Uiso   1.00
C78    C     0.35448   0.12429   0.17397   0.00000  Uiso   1.00
C79    C     0.64552   0.20904   0.15936   0.00000  Uiso   1.00
C80    C     0.64553   0.12428   0.15941   0.00000  Uiso   1.00
Cu81   Cu    0.50000   0.21355   0.16667   0.00000  Uiso   1.00
Cu82   Cu    0.50000   0.11978   0.16667   0.00000  Uiso   1.00
H83    H     0.36845   0.04852   0.16873   0.00000  Uiso   1.00
H84    H     0.54867   0.29333   0.27513   0.00000  Uiso   1.00
H85    H     0.55752   0.08605   0.23585   0.00000  Uiso   1.00
H86    H     0.54862   0.04002   0.27514   0.00000  Uiso   1.00
H87    H     0.58827   0.03796   0.23286   0.00000  Uiso   1.00
H88    H     0.44248   0.24728   0.09748   0.00000  Uiso   1.00
H89    H     0.41173   0.29538   0.10047   0.00000  Uiso   1.00
H90    H     0.45138   0.29331   0.05819   0.00000  Uiso   1.00
H91    H     0.63154   0.28481   0.16460   0.00000  Uiso   1.00
H92    H     0.63157   0.04852   0.16474   0.00000  Uiso   1.00
H93    H     0.36843   0.28481   0.16859   0.00000  Uiso   1.00
H94    H     0.44248   0.08606   0.09747   0.00000  Uiso   1.00
H95    H     0.45133   0.04000   0.05820   0.00000  Uiso   1.00
H96    H     0.41171   0.03799   0.10054   0.00000  Uiso   1.00
H97    H     0.55752   0.24727   0.23586   0.00000  Uiso   1.00
H98    H     0.58829   0.29534   0.23280   0.00000  Uiso   1.00
N99    N     0.50000   0.28402   0.16667   0.00000  Uiso   1.00
N100   N     0.50000   0.04931   0.16667   0.00000  Uiso   1.00
O101   O     0.43988   0.20625   0.16666   0.00000  Uiso   1.00
O102   O     0.60232   0.25541   0.10562   0.00000  Uiso   1.00
O103   O     0.60235   0.07787   0.10571   0.00000  Uiso   1.00
O104   O     0.39765   0.25547   0.22762   0.00000  Uiso   1.00
O105   O     0.56012   0.12709   0.16667   0.00000  Uiso   1.00
O106   O     0.56012   0.20625   0.16667   0.00000  Uiso   1.00
O107   O     0.43988   0.12709   0.16666   0.00000  Uiso   1.00
O108   O     0.50000   0.20625   0.09613   0.00000  Uiso   1.00
O109   O     0.50000   0.12708   0.23720   0.00000  Uiso   1.00
O110   O     0.50000   0.20625   0.23720   0.00000  Uiso   1.00
O111   O     0.50000   0.12708   0.09613   0.00000  Uiso   1.00
O112   O     0.39768   0.07793   0.22771   0.00000  Uiso   1.00
C113   C     0.75449   0.16667   0.17104   0.00000  Uiso   1.00
C114   C     0.68780   0.20905   0.17392   0.00000  Uiso   1.00
C115   C     0.95700   0.16666   0.15737   0.00000  Uiso   1.00
C116   C     0.70967   0.16667   0.17596   0.00000  Uiso   1.00
C117   C     0.80690   0.02475   0.13381   0.00000  Uiso   1.00
C118   C     0.85976   0.30859   0.19953   0.00000  Uiso   1.00
C119   C     0.85976   0.02474   0.19953   0.00000  Uiso   1.00
C120   C     0.80691   0.30859   0.13381   0.00000  Uiso   1.00
C121   C     0.70807   0.07992   0.18975   0.00000  Uiso   1.00
C122   C     0.95859   0.25341   0.14359   0.00000  Uiso   1.00
C123   C     0.95862   0.07990   0.14368   0.00000  Uiso   1.00
C124   C     0.91218   0.16666   0.16229   0.00000  Uiso   1.00
C125   C     0.70805   0.25344   0.18965   0.00000  Uiso   1.00
C126   C     0.77702   0.04875   0.09597   0.00000  Uiso   1.00
C127   C     0.88964   0.28458   0.23736   0.00000  Uiso   1.00
C128   C     0.88962   0.04875   0.23738   0.00000  Uiso   1.00
C129   C     0.77704   0.28459   0.09596   0.00000  Uiso   1.00
C130   C     0.83312   0.16667   0.07364   0.00000  Uiso   1.00
C131   C     0.83355   0.16667   0.25969   0.00000  Uiso   1.00
C132   C     0.83326   0.16667   0.02187   0.00000  Uiso   1.00
C133   C     0.83341   0.16667   0.31147   0.00000  Uiso   1.00
C134   C     0.68781   0.12429   0.17397   0.00000  Uiso   1.00
C135   C     0.97885   0.20904   0.15936   0.00000  Uiso   1.00
C136   C     0.97886   0.12428   0.15941   0.00000  Uiso   1.00
Cu137  Cu    0.83333   0.21355   0.16667   0.00000  Uiso   1.00
Cu138  Cu    0.83333   0.11978   0.16667   0.00000  Uiso   1.00
H139   H     0.70179   0.04852   0.16873   0.00000  Uiso   1.00
H140   H     0.88201   0.29333   0.27513   0.00000  Uiso   1.00
H141   H     0.89085   0.08605   0.23585   0.00000  Uiso   1.00
H142   H     0.88195   0.04002   0.27514   0.00000  Uiso   1.00
H143   H     0.92161   0.03796   0.23286   0.00000  Uiso   1.00
H144   H     0.77581   0.24728   0.09748   0.00000  Uiso   1.00
H145   H     0.74506   0.29538   0.10047   0.00000  Uiso   1.00
H146   H     0.78472   0.29331   0.05819   0.00000  Uiso   1.00
H147   H     0.96488   0.28481   0.16460   0.00000  Uiso   1.00
H148   H     0.96490   0.04852   0.16474   0.00000  Uiso   1.00
H149   H     0.70176   0.28481   0.16859   0.00000  Uiso   1.00
H150   H     0.77582   0.08606   0.09747   0.00000  Uiso   1.00
H151   H     0.78466   0.04000   0.05820   0.00000  Uiso   1.00
H152   H     0.74505   0.03799   0.10054   0.00000  Uiso   1.00
H153   H     0.89085   0.24727   0.23586   0.00000  Uiso   1.00
H154   H     0.92162   0.29534   0.23280   0.00000  Uiso   1.00
N155   N     0.83333   0.28402   0.16667   0.00000  Uiso   1.00
N156   N     0.83333   0.04931   0.16667   0.00000  Uiso   1.00
O157   O     0.77321   0.20625   0.16666   0.00000  Uiso   1.00
O158   O     0.93565   0.25541   0.10562   0.00000  Uiso   1.00
O159   O     0.93569   0.07787   0.10571   0.00000  Uiso   1.00
O160   O     0.73098   0.25547   0.22762   0.00000  Uiso   1.00
O161   O     0.89345   0.12709   0.16667   0.00000  Uiso   1.00
O162   O     0.89345   0.20625   0.16667   0.00000  Uiso   1.00
O163   O     0.77321   0.12709   0.16666   0.00000  Uiso   1.00
O164   O     0.83333   0.20625   0.09613   0.00000  Uiso   1.00
O165   O     0.83333   0.12708   0.23720   0.00000  Uiso   1.00
O166   O     0.83333   0.20625   0.23720   0.00000  Uiso   1.00
O167   O     0.83333   0.12708   0.09613   0.00000  Uiso   1.00
O168   O     0.73101   0.07793   0.22771   0.00000  Uiso   1.00
C169   C     0.08782   0.50000   0.17104   0.00000  Uiso   1.00
C170   C     0.02114   0.54238   0.17392   0.00000  Uiso   1.00
C171   C     0.29033   0.50000   0.15737   0.00000  Uiso   1.00
C172   C     0.04301   0.50000   0.17596   0.00000  Uiso   1.00
C173   C     0.14024   0.35808   0.13381   0.00000  Uiso   1.00
C174   C     0.19310   0.64192   0.19953   0.00000  Uiso   1.00
C175   C     0.19310   0.35808   0.19953   0.00000  Uiso   1.00
C176   C     0.14024   0.64192   0.13381   0.00000  Uiso   1.00
C177   C     0.04141   0.41325   0.18975   0.00000  Uiso   1.00
C178   C     0.29193   0.58675   0.14359   0.00000  Uiso   1.00
C179   C     0.29195   0.41323   0.14368   0.00000  Uiso   1.00
C180   C     0.24551   0.50000   0.16229   0.00000  Uiso   1.00
C181   C     0.04138   0.58677   0.18965   0.00000  Uiso   1.00
C182   C     0.11036   0.38209   0.09597   0.00000  Uiso   1.00
C183   C     0.22298   0.61791   0.23736   0.00000  Uiso   1.00
C184   C     0.22296   0.38208   0.23738   0.00000  Uiso   1.00
C185   C     0.11038   0.61792   0.09596   0.00000  Uiso   1.00
C186   C     0.16645   0.50000   0.07364   0.00000  Uiso   1.00
C187   C     0.16688   0.50000   0.25969   0.00000  Uiso   1.00
C188   C     0.16659   0.50000   0.02187   0.00000  Uiso   1.00
C189   C     0.16674   0.50000   0.31147   0.00000  Uiso   1.00
C190   C     0.02115   0.45762   0.17397   0.00000  Uiso   1.00
C191   C     0.31219   0.54238   0.15936   0.00000  Uiso   1.00
C192   C     0.31220   0.45762   0.15941   0.00000  Uiso   1.00
Cu193  Cu    0.16667   0.54689   0.16667   0.00000  Uiso   1.00
Cu194  Cu    0.16667   0.45311   0.16667   0.00000  Uiso   1.00
H195   H     0.03512   0.38186   0.16873   0.00000  Uiso   1.00
H196   H     0.21534   0.62666   0.27513   0.00000  Uiso   1.00
H197   H     0.22419   0.41938   0.23585   0.00000  Uiso   1.00
H198   H     0.21529   0.37336   0.27514   0.00000  Uiso   1.00
H199   H     0.25494   0.37129   0.23286   0.00000  Uiso   1.00
H200   H     0.10915   0.58062   0.09748   0.00000  Uiso   1.00
H201   H     0.07839   0.62871   0.10047   0.00000  Uiso   1.00
H202   H     0.11805   0.62664   0.05819   0.00000  Uiso   1.00
H203   H     0.29821   0.61814   0.16460   0.00000  Uiso   1.00
H204   H     0.29824   0.38186   0.16474   0.00000  Uiso   1.00
H205   H     0.03510   0.61814   0.16859   0.00000  Uiso   1.00
H206   H     0.10915   0.41939   0.09747   0.00000  Uiso   1.00
H207   H     0.11799   0.37334   0.05820   0.00000  Uiso   1.00
H208   H     0.07838   0.37133   0.10054   0.00000  Uiso   1.00
H209   H     0.22418   0.58061   0.23586   0.00000  Uiso   1.00
H210   H     0.25495   0.62867   0.23280   0.00000  Uiso   1.00
N211   N     0.16667   0.61736   0.16667   0.00000  Uiso   1.00
N212   N     0.16667   0.38264   0.16667   0.00000  Uiso   1.00
O213   O     0.10655   0.53958   0.16666   0.00000  Uiso   1.00
O214   O     0.26899   0.58874   0.10562   0.00000  Uiso   1.00
O215   O     0.26902   0.41120   0.10571   0.00000  Uiso   1.00
O216   O     0.06431   0.58880   0.22762   0.00000  Uiso   1.00
O217   O     0.22679   0.46042   0.16667   0.00000  Uiso   1.00
O218   O     0.22679   0.53958   0.16667   0.00000  Uiso   1.00
O219   O     0.10655   0.46042   0.16666   0.00000  Uiso   1.00
O220   O     0.16667   0.53959   0.09613   0.00000  Uiso   1.00
O221   O     0.16667   0.46041   0.23720   0.00000  Uiso   1.00
O222   O     0.16667   0.53959   0.23720   0.00000  Uiso   1.00
O223   O     0.16667   0.46041   0.09613   0.00000  Uiso   1.00
O224   O     0.06435   0.41126   0.22771   0.00000  Uiso   1.00
C225   C     0.42116   0.50000   0.17104   0.00000  Uiso   1.00
C226   C     0.35447   0.54238   0.17392   0.00000  Uiso   1.00
C227   C     0.62366   0.50000   0.15737   0.00000  Uiso   1.00
C228   C     0.37634   0.50000   0.17596   0.00000  Uiso   1.00
C229   C     0.47357   0.35808   0.13381   0.00000  Uiso   1.00
C230   C     0.52643   0.64192   0.19953   0.00000  Uiso   1.00
C231   C     0.52643   0.35808   0.19953   0.00000  Uiso   1.00
C232   C     0.47357   0.64192   0.13381   0.00000  Uiso   1.00
C233   C     0.37474   0.41325   0.18975   0.00000  Uiso   1.00
C234   C     0.62526   0.58675   0.14359   0.00000  Uiso   1.00
C235   C     0.62528   0.41323   0.14368   0.00000  Uiso   1.00
C236   C     0.57884   0.50000   0.16229   0.00000  Uiso   1.00
C237   C     0.37472   0.58677   0.18965   0.00000  Uiso   1.00
C238   C     0.44369   0.38209   0.09597   0.00000  Uiso   1.00
C239   C     0.55631   0.61791   0.23736   0.00000  Uiso   1.00
C240   C     0.55629   0.38208   0.23738   0.00000  Uiso   1.00
C241   C     0.44371   0.61792   0.09596   0.00000  Uiso   1.00
C242   C     0.49979   0.50000   0.07364   0.00000  Uiso   1.00
C243   C     0.50021   0.50000   0.25969   0.00000  Uiso   1.00
C244   C     0.49992   0.50000   0.02187   0.00000  Uiso   1.00
C245   C     0.50008   0.50000   0.31147   0.00000  Uiso   1.00
C246   C     0.35448   0.45762   0.17397   0.00000  Uiso   1.00
C247   C     0.64552   0.54238   0.15936   0.00000  Uiso   1.00
C248   C     0.64553   0.45762   0.15941   0.00000  Uiso   1.00
Cu249  Cu    0.50000   0.54689   0.16667   0.00000  Uiso   1.00
Cu250  Cu    0.50000   0.45311   0.16667   0.00000  Uiso   1.00
H251   H     0.36845   0.38186   0.16873   0.00000  Uiso   1.00
H252   H     0.54867   0.62666   0.27513   0.00000  Uiso   1.00
H253   H     0.55752   0.41938   0.23585   0.00000  Uiso   1.00
H254   H     0.54862   0.37336   0.27514   0.00000  Uiso   1.00
H255   H     0.58827   0.37129   0.23286   0.00000  Uiso   1.00
H256   H     0.44248   0.58062   0.09748   0.00000  Uiso   1.00
H257   H     0.41173   0.62871   0.10047   0.00000  Uiso   1.00
H258   H     0.45138   0.62664   0.05819   0.00000  Uiso   1.00
H259   H     0.63154   0.61814   0.16460   0.00000  Uiso   1.00
H260   H     0.63157   0.38186   0.16474   0.00000  Uiso   1.00
H261   H     0.36843   0.61814   0.16859   0.00000  Uiso   1.00
H262   H     0.44248   0.41939   0.09747   0.00000  Uiso   1.00
H263   H     0.45133   0.37334   0.05820   0.00000  Uiso   1.00
H264   H     0.41171   0.37133   0.10054   0.00000  Uiso   1.00
H265   H     0.55752   0.58061   0.23586   0.00000  Uiso   1.00
H266   H     0.58829   0.62867   0.23280   0.00000  Uiso   1.00
N267   N     0.50000   0.61736   0.16667   0.00000  Uiso   1.00
N268   N     0.50000   0.38264   0.16667   0.00000  Uiso   1.00
O269   O     0.43988   0.53958   0.16666   0.00000  Uiso   1.00
O270   O     0.60232   0.58874   0.10562   0.00000  Uiso   1.00
O271   O     0.60235   0.41120   0.10571   0.00000  Uiso   1.00
O272   O     0.39765   0.58880   0.22762   0.00000  Uiso   1.00
O273   O     0.56012   0.46042   0.16667   0.00000  Uiso   1.00
O274   O     0.56012   0.53958   0.16667   0.00000  Uiso   1.00
O275   O     0.43988   0.46042   0.16666   0.00000  Uiso   1.00
O276   O     0.50000   0.53959   0.09613   0.00000  Uiso   1.00
O277   O     0.50000   0.46041   0.23720   0.00000  Uiso   1.00
O278   O     0.50000   0.53959   0.23720   0.00000  Uiso   1.00
O279   O     0.50000   0.46041   0.09613   0.00000  Uiso   1.00
O280   O     0.39768   0.41126   0.22771   0.00000  Uiso   1.00
C281   C     0.75449   0.50000   0.17104   0.00000  Uiso   1.00
C282   C     0.68780   0.54238   0.17392   0.00000  Uiso   1.00
C283   C     0.95700   0.50000   0.15737   0.00000  Uiso   1.00
C284   C     0.70967   0.50000   0.17596   0.00000  Uiso   1.00
C285   C     0.80690   0.35808   0.13381   0.00000  Uiso   1.00
C286   C     0.85976   0.64192   0.19953   0.00000  Uiso   1.00
C287   C     0.85976   0.35808   0.19953   0.00000  Uiso   1.00
C288   C     0.80691   0.64192   0.13381   0.00000  Uiso   1.00
C289   C     0.70807   0.41325   0.18975   0.00000  Uiso   1.00
C290   C     0.95859   0.58675   0.14359   0.00000  Uiso   1.00
C291   C     0.95862   0.41323   0.14368   0.00000  Uiso   1.00
C292   C     0.91218   0.50000   0.16229   0.00000  Uiso   1.00
C293   C     0.70805   0.58677   0.18965   0.00000  Uiso   1.00
C294   C     0.77702   0.38209   0.09597   0.00000  Uiso   1.00
C295   C     0.88964   0.61791   0.23736   0.00000  Uiso   1.00
C296   C     0.88962   0.38208   0.23738   0.00000  Uiso   1.00
C297   C     0.77704   0.61792   0.09596   0.00000  Uiso   1.00
C298   C     0.83312   0.50000   0.07364   0.00000  Uiso   1.00
C299   C     0.83355   0.50000   0.25969   0.00000  Uiso   1.00
C300   C     0.83326   0.50000   0.02187   0.00000  Uiso   1.00
C301   C     0.83341   0.50000   0.31147   0.00000  Uiso   1.00
C302   C     0.68781   0.45762   0.17397   0.00000  Uiso   1.00
C303   C     0.97885   0.54238   0.15936   0.00000  Uiso   1.00
C304   C     0.97886   0.45762   0.15941   0.00000  Uiso   1.00
Cu305  Cu    0.83333   0.54689   0.16667   0.00000  Uiso   1.00
Cu306  Cu    0.83333   0.45311   0.16667   0.00000  Uiso   1.00
H307   H     0.70179   0.38186   0.16873   0.00000  Uiso   1.00
H308   H     0.88201   0.62666   0.27513   0.00000  Uiso   1.00
H309   H     0.89085   0.41938   0.23585   0.00000  Uiso   1.00
H310   H     0.88195   0.37336   0.27514   0.00000  Uiso   1.00
H311   H     0.92161   0.37129   0.23286   0.00000  Uiso   1.00
H312   H     0.77581   0.58062   0.09748   0.00000  Uiso   1.00
H313   H     0.74506   0.62871   0.10047   0.00000  Uiso   1.00
H314   H     0.78472   0.62664   0.05819   0.00000  Uiso   1.00
H315   H     0.96488   0.61814   0.16460   0.00000  Uiso   1.00
H316   H     0.96490   0.38186   0.16474   0.00000  Uiso   1.00
H317   H     0.70176   0.61814   0.16859   0.00000  Uiso   1.00
H318   H     0.77582   0.41939   0.09747   0.00000  Uiso   1.00
H319   H     0.78466   0.37334   0.05820   0.00000  Uiso   1.00
H320   H     0.74505   0.37133   0.10054   0.00000  Uiso   1.00
H321   H     0.89085   0.58061   0.23586   0.00000  Uiso   1.00
H322   H     0.92162   0.62867   0.23280   0.00000  Uiso   1.00
N323   N     0.83333   0.61736   0.16667   0.00000  Uiso   1.00
N324   N     0.83333   0.38264   0.16667   0.00000  Uiso   1.00
O325   O     0.77321   0.53958   0.16666   0.00000  Uiso   1.00
O326   O     0.93565   0.58874   0.10562   0.00000  Uiso   1.00
O327   O     0.93569   0.41120   0.10571   0.00000  Uiso   1.00
O328   O     0.73098   0.58880   0.22762   0.00000  Uiso   1.00
O329   O     0.89345   0.46042   0.16667   0.00000  Uiso   1.00
O330   O     0.89345   0.53958   0.16667   0.00000  Uiso   1.00
O331   O     0.77321   0.46042   0.16666   0.00000  Uiso   1.00
O332   O     0.83333   0.53959   0.09613   0.00000  Uiso   1.00
O333   O     0.83333   0.46041   0.23720   0.00000  Uiso   1.00
O334   O     0.83333   0.53959   0.23720   0.00000  Uiso   1.00
O335   O     0.83333   0.46041   0.09613   0.00000  Uiso   1.00
O336   O     0.73101   0.41126   0.22771   0.00000  Uiso   1.00
C337   C     0.08782   0.83333   0.17104   0.00000  Uiso   1.00
C338   C     0.02114   0.87572   0.17392   0.00000  Uiso   1.00
C339   C     0.29033   0.83333   0.15737   0.00000  Uiso   1.00
C340   C     0.04301   0.83334   0.17596   0.00000  Uiso   1.00
C341   C     0.14024   0.69141   0.13381   0.00000  Uiso   1.00
C342   C     0.19310   0.97525   0.19953   0.00000  Uiso   1.00
C343   C     0.19310   0.69141   0.19953   0.00000  Uiso   1.00
C344   C     0.14024   0.97526   0.13381   0.00000  Uiso   1.00
C345   C     0.04141   0.74659   0.18975   0.00000  Uiso   1.00
C346   C     0.29193   0.92008   0.14359   0.00000  Uiso   1.00
C347   C     0.29195   0.74656   0.14368   0.00000  Uiso   1.00
C348   C     0.24551   0.83333   0.16229   0.00000  Uiso   1.00
C349   C     0.04138   0.92010   0.18965   0.00000  Uiso   1.00
C350   C     0.11036   0.71542   0.09597   0.00000  Uiso   1.00
C351   C     0.22298   0.95125   0.23736   0.00000  Uiso   1.00
C352   C     0.22296   0.71541   0.23738   0.00000  Uiso   1.00
C353   C     0.11038   0.95125   0.09596   0.00000  Uiso   1.00
C354   C     0.16645   0.83333   0.07364   0.00000  Uiso   1.00
C355   C     0.16688   0.83333   0.25969   0.00000  Uiso   1.00
C356   C     0.16659   0.83333   0.02187   0.00000  Uiso   1.00
C357   C     0.16674   0.83333   0.31147   0.00000  Uiso   1.00
C358   C     0.02115   0.79096   0.17397   0.00000  Uiso   1.00
C359   C     0.31219   0.87571   0.15936   0.00000  Uiso   1.00
C360   C     0.31220   0.79095   0.15941   0.00000  Uiso   1.00
Cu361  Cu    0.16667   0.88022   0.16667   0.00000  Uiso   1.00
Cu362  Cu    0.16667   0.78645   0.16667   0.00000  Uiso   1.00
H363   H     0.03512   0.71519   0.16873   0.00000  Uiso   1.00
H364   H     0.21534   0.96000   0.27513   0.00000  Uiso   1.00
H365   H     0.22419   0.75272   0.23585   0.00000  Uiso   1.00
H366   H     0.21529   0.70669   0.27514   0.00000  Uiso   1.00
H367   H     0.25494   0.70462   0.23286   0.00000  Uiso   1.00
H368   H     0.10915   0.91395   0.09748   0.00000  Uiso   1.00
H369   H     0.07839   0.96204   0.10047   0.00000  Uiso   1.00
H370   H     0.11805   0.95998   0.05819   0.00000  Uiso   1.00
H371   H     0.29821   0.95148   0.16460   0.00000  Uiso   1.00
H372   H     0.29824   0.71519   0.16474   0.00000  Uiso   1.00
H373   H     0.03510   0.95148   0.16859   0.00000  Uiso   1.00
H374   H     0.10915   0.75273   0.09747   0.00000  Uiso   1.00
H375   H     0.11799   0.70667   0.05820   0.00000  Uiso   1.00
H376   H     0.07838   0.70466   0.10054   0.00000  Uiso   1.00
H377   H     0.22418   0.91394   0.23586   0.00000  Uiso   1.00
H378   H     0.25495   0.96201   0.23280   0.00000  Uiso   1.00
N379   N     0.16667   0.95069   0.16667   0.00000  Uiso   1.00
N380   N     0.16667   0.71598   0.16667   0.00000  Uiso   1.00
O381   O     0.10655   0.87291   0.16666   0.00000  Uiso   1.00
O382   O     0.26899   0.92207   0.10562   0.00000  Uiso   1.00
O383   O     0.26902   0.74453   0.10571   0.00000  Uiso   1.00
O384   O     0.06431   0.92214   0.22762   0.00000  Uiso   1.00
O385   O     0.22679   0.79375   0.16667   0.00000  Uiso   1.00
O386   O     0.22679   0.87291   0.16667   0.00000  Uiso   1.00
O387   O     0.10655   0.79375   0.16666   0.00000  Uiso   1.00
O388   O     0.16667   0.87292   0.09613   0.00000  Uiso   1.00
O389   O     0.16667   0.79375   0.23720   0.00000  Uiso   1.00
O390   O     0.16667   0.87292   0.23720   0.00000  Uiso   1.00
O391   O     0.16667   0.79375   0.09613   0.00000  Uiso   1.00
O392   O     0.06435   0.74459   0.22771   0.00000  Uiso   1.00
C393   C     0.42116   0.83333   0.17104   0.00000  Uiso   1.00
C394   C     0.35447   0.87572   0.17392   0.00000  Uiso   1.00
C395   C     0.62366   0.83333   0.15737   0.00000  Uiso   1.00
C396   C     0.37634   0.83334   0.17596   0.00000  Uiso   1.00
C397   C     0.47357   0.69141   0.13381   0.00000  Uiso   1.00
C398   C     0.52643   0.97525   0.19953   0.00000  Uiso   1.00
C399   C     0.52643   0.69141   0.19953   0.00000  Uiso   1.00
C400   C     0.47357   0.97526   0.13381   0.00000  Uiso   1.00
C401   C     0.37474   0.74659   0.18975   0.00000  Uiso   1.00
C402   C     0.62526   0.92008   0.14359   0.00000  Uiso   1.00
C403   C     0.62528   0.74656   0.14368   0.00000  Uiso   1.00
C404   C     0.57884   0.83333   0.16229   0.00000  Uiso   1.00
C405   C     0.37472   0.92010   0.18965   0.00000  Uiso   1.00
C406   C     0.44369   0.71542   0.09597   0.00000  Uiso   1.00
C407   C     0.55631   0.95125   0.23736   0.00000  Uiso   1.00
C408   C     0.55629   0.71541   0.23738   0.00000  Uiso   1.00
C409   C     0.44371   0.95125   0.09596   0.00000  Uiso   1.00
C410   C     0.49979   0.83333   0.07364   0.00000  Uiso   1.00
C411   C     0.50021   0.83333   0.25969   0.00000  Uiso   1.00
C412   C     0.49992   0.83333   0.02187   0.00000  Uiso   1.00
C413   C     0.50008   0.83333   0.31147   0.00000  Uiso   1.00
C414   C     0.35448   0.79096   0.17397   0.00000  Uiso   1.00
C415   C     0.64552   0.87571   0.15936   0.00000  Uiso   1.00
C416   C     0.64553   0.79095   0.15941   0.00000  Uiso   1.00
Cu417  Cu    0.50000   0.88022   0.16667   0.00000  Uiso   1.00
Cu418  Cu    0.50000   0.78645   0.16667   0.00000  Uiso   1.00
H419   H     0.36845   0.71519   0.16873   0.00000  Uiso   1.00
H420   H     0.54867   0.96000   0.27513   0.00000  Uiso   1.00
H421   H     0.55752   0.75272   0.23585   0.00000  Uiso   1.00
H422   H     0.54862   0.70669   0.27514   0.00000  Uiso   1.00
H423   H     0.58827   0.70462   0.23286   0.00000  Uiso   1.00
H424   H     0.44248   0.91395   0.09748   0.00000  Uiso   1.00
H425   H     0.41173   0.96204   0.10047   0.00000  Uiso   1.00
H426   H     0.45138   0.95998   0.05819   0.00000  Uiso   1.00
H427   H     0.63154   0.95148   0.16460   0.00000  Uiso   1.00
H428   H     0.63157   0.71519   0.16474   0.00000  Uiso   1.00
H429   H     0.36843   0.95148   0.16859   0.00000  Uiso   1.00
H430   H     0.44248   0.75273   0.09747   0.00000  Uiso   1.00
H431   H     0.45133   0.70667   0.05820   0.00000  Uiso   1.00
H432   H     0.41171   0.70466   0.10054   0.00000  Uiso   1.00
H433   H     0.55752   0.91394   0.23586   0.00000  Uiso   1.00
H434   H     0.58829   0.96201   0.23280   0.00000  Uiso   1.00
N435   N     0.50000   0.95069   0.16667   0.00000  Uiso   1.00
N436   N     0.50000   0.71598   0.16667   0.00000  Uiso   1.00
O437   O     0.43988   0.87291   0.16666   0.00000  Uiso   1.00
O438   O     0.60232   0.92207   0.10562   0.00000  Uiso   1.00
O439   O     0.60235   0.74453   0.10571   0.00000  Uiso   1.00
O440   O     0.39765   0.92214   0.22762   0.00000  Uiso   1.00
O441   O     0.56012   0.79375   0.16667   0.00000  Uiso   1.00
O442   O     0.56012   0.87291   0.16667   0.00000  Uiso   1.00
O443   O     0.43988   0.79375   0.16666   0.00000  Uiso   1.00
O444   O     0.50000   0.87292   0.09613   0.00000  Uiso   1.00
O445   O     0.50000   0.79375   0.23720   0.00000  Uiso   1.00
O446   O     0.50000   0.87292   0.23720   0.00000  Uiso   1.00
O447   O     0.50000   0.79375   0.09613   0.00000  Uiso   1.00
O448   O     0.39768   0.74459   0.22771   0.00000  Uiso   1.00
C449   C     0.75449   0.83333   0.17104   0.00000  Uiso   1.00
C450   C     0.68780   0.87572   0.17392   0.00000  Uiso   1.00
C451   C     0.95700   0.83333   0.15737   0.00000  Uiso   1.00
C452   C     0.70967   0.83334   0.17596   0.00000  Uiso   1.00
C453   C     0.80690   0.69141   0.13381   0.00000  Uiso   1.00
C454   C     0.85976   0.97525   0.19953   0.00000  Uiso   1.00
C455   C     0.85976   0.69141   0.19953   0.00000  Uiso   1.00
C456   C     0.80691   0.97526   0.13381   0.00000  Uiso   1.00
C457   C     0.70807   0.74659   0.18975   0.00000  Uiso   1.00
C458   C     0.95859   0.92008   0.14359   0.00000  Uiso   1.00
C459   C     0.95862   0.74656   0.14368   0.00000  Uiso   1.00
C460   C     0.91218   0.83333   0.16229   0.00000  Uiso   1.00
C461   C     0.70805   0.92010   0.18965   0.00000  Uiso   1.00
C462   C     0.77702   0.71542   0.09597   0.00000  Uiso   1.00
C463   C     0.88964   0.95125   0.23736   0.00000  Uiso   1.00
C464   C     0.88962   0.71541   0.23738   0.00000  Uiso   1.00
C465   C     0.77704   0.95125   0.09596   0.00000  Uiso   1.00
C466   C     0.83312   0.83333   0.07364   0.00000  Uiso   1.00
C467   C     0.83355   0.83333   0.25969   0.00000  Uiso   1.00
C468   C     0.83326   0.83333   0.02187   0.00000  Uiso   1.00
C469   C     0.83341   0.83333   0.31147   0.00000  Uiso   1.00
C470   C     0.68781   0.79096   0.17397   0.00000  Uiso   1.00
C471   C     0.97885   0.87571   0.15936   0.00000  Uiso   1.00
C472   C     0.97886   0.79095   0.15941   0.00000  Uiso   1.00
Cu473  Cu    0.83333   0.88022   0.16667   0.00000  Uiso   1.00
Cu474  Cu    0.83333   0.78645   0.16667   0.00000  Uiso   1.00
H475   H     0.70179   0.71519   0.16873   0.00000  Uiso   1.00
H476   H     0.88201   0.96000   0.27513   0.00000  Uiso   1.00
H477   H     0.89085   0.75272   0.23585   0.00000  Uiso   1.00
H478   H     0.88195   0.70669   0.27514   0.00000  Uiso   1.00
H479   H     0.92161   0.70462   0.23286   0.00000  Uiso   1.00
H480   H     0.77581   0.91395   0.09748   0.00000  Uiso   1.00
H481   H     0.74506   0.96204   0.10047   0.00000  Uiso   1.00
H482   H     0.78472   0.95998   0.05819   0.00000  Uiso   1.00
H483   H     0.96488   0.95148   0.16460   0.00000  Uiso   1.00
H484   H     0.96490   0.71519   0.16474   0.00000  Uiso   1.00
H485   H     0.70176   0.95148   0.16859   0.00000  Uiso   1.00
H486   H     0.77582   0.75273   0.09747   0.00000  Uiso   1.00
H487   H     0.78466   0.70667   0.05820   0.00000  Uiso   1.00
H488   H     0.74505   0.70466   0.10054   0.00000  Uiso   1.00
H489   H     0.89085   0.91394   0.23586   0.00000  Uiso   1.00
H490   H     0.92162   0.96201   0.23280   0.00000  Uiso   1.00
N491   N     0.83333   0.95069   0.16667   0.00000  Uiso   1.00
N492   N     0.83333   0.71598   0.16667   0.00000  Uiso   1.00
O493   O     0.77321   0.87291   0.16666   0.00000  Uiso   1.00
O494   O     0.93565   0.92207   0.10562   0.00000  Uiso   1.00
O495   O     0.93569   0.74453   0.10571   0.00000  Uiso   1.00
O496   O     0.73098   0.92214   0.22762   0.00000  Uiso   1.00
O497   O     0.89345   0.79375   0.16667   0.00000  Uiso   1.00
O498   O     0.89345   0.87291   0.16667   0.00000  Uiso   1.00
O499   O     0.77321   0.79375   0.16666   0.00000  Uiso   1.00
O500   O     0.83333   0.87292   0.09613   0.00000  Uiso   1.00
O501   O     0.83333   0.79375   0.23720   0.00000  Uiso   1.00
O502   O     0.83333   0.87292   0.23720   0.00000  Uiso   1.00
O503   O     0.83333   0.79375   0.09613   0.00000  Uiso   1.00
O504   O     0.73101   0.74459   0.22771   0.00000  Uiso   1.00
C505   C     0.08782   0.16667   0.50438   0.00000  Uiso   1.00
C506   C     0.02114   0.20905   0.50725   0.00000  Uiso   1.00
C507   C     0.29033   0.16666   0.49070   0.00000  Uiso   1.00
C508   C     0.04301   0.16667   0.50929   0.00000  Uiso   1.00
C509   C     0.14024   0.02475   0.46714   0.00000  Uiso   1.00
C510   C     0.19310   0.30859   0.53286   0.00000  Uiso   1.00
C511   C     0.19310   0.02474   0.53286   0.00000  Uiso   1.00
C512   C     0.14024   0.30859   0.46714   0.00000  Uiso   1.00
C513   C     0.04141   0.07992   0.52308   0.00000  Uiso   1.00
C514   C     0.29193   0.25341   0.47692   0.00000  Uiso   1.00
C515   C     0.29195   0.07990   0.47702   0.00000  Uiso   1.00
C516   C     0.24551   0.16666   0.49562   0.00000  Uiso   1.00
C517   C     0.04138   0.25344   0.52298   0.00000  Uiso   1.00
C518   C     0.11036   0.04875   0.42931   0.00000  Uiso   1.00
C519   C     0.22298   0.28458   0.57069   0.00000  Uiso   1.00
C520   C     0.22296   0.04875   0.57071   0.00000  Uiso   1.00
C521   C     0.11038   0.28459   0.42929   0.00000  Uiso   1.00
C522   C     0.16645   0.16667   0.40698   0.00000  Uiso   1.00
C523   C     0.16688   0.16667   0.59302   0.00000  Uiso   1.00
C524   C     0.16659   0.16667   0.35520   0.00000  Uiso   1.00
C525   C     0.16674   0.16667   0.64480   0.00000  Uiso   1.00
C526   C     0.02115   0.12429   0.50731   0.00000  Uiso   1.00
C527   C     0.31219   0.20904   0.49269   0.00000  Uiso   1.00
C528   C     0.31220   0.12428   0.49274   0.00000  Uiso   1.00
Cu529  Cu    0.16667   0.21355   0.50000   0.00000  Uiso   1.00
Cu530  Cu    0.16667   0.11978   0.50000   0.00000  Uiso   1.00
H531   H     0.03512   0.04852   0.50206   0.00000  Uiso   1.00
H532   H     0.21534   0.29333   0.60847   0.00000  Uiso   1.00
H533   H     0.22419   0.08605   0.56918   0.00000  Uiso   1.00
H534   H     0.21529   0.04002   0.60848   0.00000  Uiso   1.00
H535   H     0.25494   0.03796   0.56620   0.00000  Uiso   1.00
H536   H     0.10915   0.24728   0.43082   0.00000  Uiso   1.00
H537   H     0.07839   0.29538   0.43380   0.00000  Uiso   1.00
H538   H     0.11805   0.29331   0.39152   0.00000  Uiso   1.00
H539   H     0.29821   0.28481   0.49794   0.00000  Uiso   1.00
H540   H     0.29824   0.04852   0.49808   0.00000  Uiso   1.00
H541   H     0.03510   0.28481   0.50192   0.00000  Uiso   1.00
H542   H     0.10915   0.08606   0.43081   0.00000  Uiso   1.00
H543   H     0.11799   0.04000   0.39153   0.00000  Uiso   1.00
H544   H     0.07838   0.03799   0.43387   0.00000  Uiso   1.00
H545   H     0.22418   0.24727   0.56919   0.00000  Uiso   1.00
H546   H     0.25495   0.29534   0.56613   0.00000  Uiso   1.00
N547   N     0.16667   0.28402   0.50000   0.00000  Uiso   1.00
N548   N     0.16667   0.04931   0.50000   0.00000  Uiso   1.00
O549   O     0.10655   0.20625   0.50000   0.00000  Uiso   1.00
O550   O     0.26899   0.25541   0.43895   0.00000  Uiso   1.00
O551   O     0.26902   0.07787   0.43904   0.00000  Uiso   1.00
O552   O     0.06431   0.25547   0.56095   0.00000  Uiso   1.00
O553   O     0.22679   0.12709   0.50000   0.00000  Uiso   1.00
O554   O     0.22679   0.20625   0.50000   0.00000  Uiso   1.00
O555   O     0.10655   0.12709   0.50000   0.00000  Uiso   1.00
O556   O     0.16667   0.20625   0.42946   0.00000  Uiso   1.00
O557   O     0.16667   0.12708   0.57054   0.00000  Uiso   1.00
O558   O     0.16667   0.20625   0.57054   0.00000  Uiso   1.00
O559   O     0.16667   0.12708   0.42946   0.00000  Uiso   1.00
O560   O     0.06435   0.07793   0.56105   0.00000  Uiso   1.00
C561   C     0.42116   0.16667   0.50438   0.00000  Uiso   1.00
C562   C     0.35447   0.20905   0.50725   0.00000  Uiso   1.00
C563   C     0.62366   0.16666   0.49070   0.00000  Uiso   1.00
C564   C     0.37634   0.16667   0.50929   0.00000  Uiso   1.00
C565   C     0.47357   0.02475   0.46714   0.00000  Uiso   1.00
C566   C     0.52643   0.30859   0.53286   0.00000  Uiso   1.00
C567   C     0.52643   0.02474   0.53286   0.00000  Uiso   1.00
C568   C     0.47357   0.30859   0.46714   0.00000  Uiso   1.00
C569   C     0.37474   0.07992   0.52308   0.00000  Uiso   1.00
C570   C     0.62526   0.25341   0.47692   0.00000  Uiso   1.00
C571   C     0.62528   0.07990   0.47702   0.00000  Uiso   1.00
C572   C     0.57884   0.16666   0.49562   0.00000  Uiso   1.00
C573   C     0.37472   0.25344   0.52298   0.00000  Uiso   1.00
C574   C     0.44369   0.04875   0.42931   0.00000  Uiso   1.00
C575   C     0.55631   0.28458   0.57069   0.00000  Uiso   1.00
C576   C     0.55629   0.04875   0.57071   0.00000  Uiso   1.00
C577   C     0.44371   0.28459   0.42929   0.00000  Uiso   1.00
C578   C     0.49979   0.16667   0.40698   0.00000  Uiso   1.00
C579   C     0.50021   0.16667   0.59302   0.00000  Uiso   1.00
C580   C     0.49992   0.16667   0.35520   0.00000  Uiso   1.00
C581   C     0.50008   0.16667   0.64480   0.00000  Uiso   1.00
C582   C     0.35448   0.12429   0.50731   0.00000  Uiso   1.00
C583   C     0.64552   0.20904   0.49269   0.00000  Uiso   1.00
C584   C     0.64553   0.12428   0.49274   0.00000  Uiso   1.00
Cu585  Cu    0.50000   0.21355   0.50000   0.00000  Uiso   1.00
Cu586  Cu    0.50000   0.11978   0.50000   0.00000  Uiso   1.00
H587   H     0.36845   0.04852   0.50206   0.00000  Uiso   1.00
H588   H     0.54867   0.29333   0.60847   0.00000  Uiso   1.00
H589   H     0.55752   0.08605   0.56918   0.00000  Uiso   1.00
H590   H     0.54862   0.04002   0.60848   0.00000  Uiso   1.00
H591   H     0.58827   0.03796   0.56620   0.00000  Uiso   1.00
H592   H     0.44248   0.24728   0.43082   0.00000  Uiso   1.00
H593   H     0.41173   0.29538   0.43380   0.00000  Uiso   1.00
H594   H     0.45138   0.29331   0.39152   0.00000  Uiso   1.00
H595   H     0.63154   0.28481   0.49794   0.00000  Uiso   1.00
H596   H     0.63157   0.04852   0.49808   0.00000  Uiso   1.00
H597   H     0.36843   0.28481   0.50192   0.00000  Uiso   1.00
H598   H     0.44248   0.08606   0.43081   0.00000  Uiso   1.00
H599   H     0.45133   0.04000   0.39153   0.00000  Uiso   1.00
H600   H     0.41171   0.03799   0.43387   0.00000  Uiso   1.00
H601   H     0.55752   0.24727   0.56919   0.00000  Uiso   1.00
H602   H     0.58829   0.29534   0.56613   0.00000  Uiso   1.00
N603   N     0.50000   0.28402   0.50000   0.00000  Uiso   1.00
N604   N     0.50000   0.04931   0.50000   0.00000  Uiso   1.00
O605   O     0.43988   0.20625   0.50000   0.00000  Uiso   1.00
O606   O     0.60232   0.25541   0.43895   0.00000  Uiso   1.00
O607   O     0.60235   0.07787   0.43904   0.00000  Uiso   1.00
O608   O     0.39765   0.25547   0.56095   0.00000  Uiso   1.00
O609   O     0.56012   0.12709   0.50000   0.00000  Uiso   1.00
O610   O     0.56012   0.20625   0.50000   0.00000  Uiso   1.00
O611   O     0.43988   0.12709   0.50000   0.00000  Uiso   1.00
O612   O     0.50000   0.20625   0.42946   0.00000  Uiso   1.00
O613   O     0.50000   0.12708   0.57054   0.00000  Uiso   1.00
O614   O     0.50000   0.20625   0.57054   0.00000  Uiso   1.00
O615   O     0.50000   0.12708   0.42946   0.00000  Uiso   1.00
O616   O     0.39768   0.07793   0.56105   0.00000  Uiso   1.00
C617   C     0.75449   0.16667   0.50438   0.00000  Uiso   1.00
C618   C     0.68780   0.20905   0.50725   0.00000  Uiso   1.00
C619   C     0.95700   0.16666   0.49070   0.00000  Uiso   1.00
C620   C     0.70967   0.16667   0.50929   0.00000  Uiso   1.00
C621   C     0.80690   0.02475   0.46714   0.00000  Uiso   1.00
C622   C     0.85976   0.30859   0.53286   0.00000  Uiso   1.00
C623   C     0.85976   0.02474   0.53286   0.00000  Uiso   1.00
C624   C     0.80691   0.30859   0.46714   0.00000  Uiso   1.00
C625   C     0.70807   0.07992   0.52308   0.00000  Uiso   1.00
C626   C     0.95859   0.25341   0.47692   0.00000  Uiso   1.00
C627   C     0.95862   0.07990   0.47702   0.00000  Uiso   1.00
C628   C     0.91218   0.16666   0.49562   0.00000  Uiso   1.00
C629   C     0.70805   0.25344   0.52298   0.00000  Uiso   1.00
C630   C     0.77702   0.04875   0.42931   0.00000  Uiso   1.00
C631   C     0.88964   0.28458   0.57069   0.00000  Uiso   1.00
C632   C     0.88962   0.04875   0.57071   0.00000  Uiso   1.00
C633   C     0.77704   0.28459   0.42929   0.00000  Uiso   1.00
C634   C     0.83312   0.16667   0.40698   0.00000  Uiso   1.00
C635   C     0.83355   0.16667   0.59302   0.00000  Uiso   1.00
C636   C     0.83326   0.16667   0.35520   0.00000  Uiso   1.00
C637   C     0.83341   0.16667   0.64480   0.00000  Uiso   1.00
C638   C     0.68781   0.12429   0.50731   0.00000  Uiso   1.00
C639   C     0.97885   0.20904   0.49269   0.00000  Uiso   1.00
C640   C     0.97886   0.12428   0.49274   0.00000  Uiso   1.00
Cu641  Cu    0.83333   0.21355   0.50000   0.00000  Uiso   1.00
Cu642  Cu    0.83333   0.11978   0.50000   0.00000  Uiso   1.00
H643   H     0.70179   0.04852   0.50206   0.00000  Uiso   1.00
H644   H     0.88201   0.29333   0.60847   0.00000  Uiso   1.00
H645   H     0.89085   0.08605   0.56918   0.00000  Uiso   1.00
H646   H     0.88195   0.04002   0.60848   0.00000  Uiso   1.00
H647   H     0.92161   0.03796   0.56620   0.00000  Uiso   1.00
H648   H     0.77581   0.24728   0.43082   0.00000  Uiso   1.00
H649   H     0.74506   0.29538   0.43380   0.00000  Uiso   1.00
H650   H     0.78472   0.29331   0.39152   0.00000  Uiso   1.00
H651   H     0.96488   0.28481   0.49794   0.00000  Uiso   1.00
H652   H     0.96490   0.04852   0.49808   0.00000  Uiso   1.00
H653   H     0.70176   0.28481   0.50192   0.00000  Uiso   1.00
H654   H     0.77582   0.08606   0.43081   0.00000  Uiso   1.00
H655   H     0.78466   0.04000   0.39153   0.00000  Uiso   1.00
H656   H     0.74505   0.03799   0.43387   0.00000  Uiso   1.00
H657   H     0.89085   0.24727   0.56919   0.00000  Uiso   1.00
H658   H     0.92162   0.29534   0.56613   0.00000  Uiso   1.00
N659   N     0.83333   0.28402   0.50000   0.00000  Uiso   1.00
N660   N     0.83333   0.04931   0.50000   0.00000  Uiso   1.00
O661   O     0.77321   0.20625   0.50000   0.00000  Uiso   1.00
O662   O     0.93565   0.25541   0.43895   0.00000  Uiso   1.00
O663   O     0.93569   0.07787   0.43904   0.00000  Uiso   1.00
O664   O     0.73098   0.25547   0.56095   0.00000  Uiso   1.00
O665   O     0.89345   0.12709   0.50000   0.00000  Uiso   1.00
O666   O     0.89345   0.20625   0.50000   0.00000  Uiso   1.00
O667   O     0.77321   0.12709   0.50000   0.00000  Uiso   1.00
O668   O     0.83333   0.20625   0.42946   0.00000  Uiso   1.00
O669   O     0.83333   0.12708   0.57054   0.00000  Uiso   1.00
O670   O     0.83333   0.20625   0.57054   0.00000  Uiso   1.00
O671   O     0.83333   0.12708   0.42946   0.00000  Uiso   1.00
O672   O     0.73101   0.07793   0.56105   0.00000  Uiso   1.00
C673   C     0.08782   0.50000   0.50438   0.00000  Uiso   1.00
C674   C     0.02114   0.54238   0.50725   0.00000  Uiso   1.00
C675   C     0.29033   0.50000   0.49070   0.00000  Uiso   1.00
C676   C     0.04301   0.50000   0.50929   0.00000  Uiso   1.00
C677   C     0.14024   0.35808   0.46714   0.00000  Uiso   1.00
C678   C     0.19310   0.64192   0.53286   0.00000  Uiso   1.00
C679   C     0.19310   0.35808   0.53286   0.00000  Uiso   1.00
C680   C     0.14024   0.64192   0.46714   0.00000  Uiso   1.00
C681   C     0.04141   0.41325   0.52308   0.00000  Uiso   1.00
C682   C     0.29193   0.58675   0.47692   0.00000  Uiso   1.00
C683   C     0.29195   0.41323   0.47702   0.00000  Uiso   1.00
C684   C     0.24551   0.50000   0.49562   0.00000  Uiso   1.00
C685   C     0.04138   0.58677   0.52298   0.00000  Uiso   1.00
C686   C     0.11036   0.38209   0.42931   0.00000  Uiso   1.00
C687   C     0.22298   0.61791   0.57069   0.00000  Uiso   1.00
C688   C     0.22296   0.38208   0.57071   0.00000  Uiso   1.00
C689   C     0.11038   0.61792   0.42929   0.00000  Uiso   1.00
C690   C     0.16645   0.50000   0.40698   0.00000  Uiso   1.00
C691   C     0.16688   0.50000   0.59302   0.00000  Uiso   1.00
C692   C     0.16659   0.50000   0.35520   0.00000  Uiso   1.00
C693   C     0.16674   0.50000   0.64480   0.00000  Uiso   1.00
C694   C     0.02115   0.45762   0.50731   0.00000  Uiso   1.00
C695   C     0.31219   0.54238   0.49269   0.00000  Uiso   1.00
C696   C     0.31220   0.45762   0.49274   0.00000  Uiso   1.00
Cu697  Cu    0.16667   0.54689   0.50000   0.00000  Uiso   1.00
Cu698  Cu    0.16667   0.45311   0.50000   0.00000  Uiso   1.00
H699   H     0.03512   0.38186   0.50206   0.00000  Uiso   1.00
H700   H     0.21534   0.62666   0.60847   0.00000  Uiso   1.00
H701   H     0.22419   0.41938   0.56918   0.00000  Uiso   1.00
H702   H     0.21529   0.37336   0.60848   0.00000  Uiso   1.00
H703   H     0.25494   0.37129   0.56620   0.00000  Uiso   1.00
H704   H     0.10915   0.58062   0.43082   0.00000  Uiso   1.00
H705   H     0.07839   0.62871   0.43380   0.00000  Uiso   1.00
H706   H     0.11805   0.62664   0.39152   0.00000  Uiso   1.00
H707   H     0.29821   0.61814   0.49794   0.00000  Uiso   1.00
H708   H     0.29824   0.38186   0.49808   0.00000  Uiso   1.00
H709   H     0.03510   0.61814   0.50192   0.00000  Uiso   1.00
H710   H     0.10915   0.41939   0.43081   0.00000  Uiso   1.00
H711   H     0.11799   0.37334   0.39153   0.00000  Uiso   1.00
H712   H     0.07838   0.37133   0.43387   0.00000  Uiso   1.00
H713   H     0.22418   0.58061   0.56919   0.00000  Uiso   1.00
H714   H     0.25495   0.62867   0.56613   0.00000  Uiso   1.00
N715   N     0.16667   0.61736   0.50000   0.00000  Uiso   1.00
N716   N     0.16667   0.38264   0.50000   0.00000  Uiso   1.00
O717   O     0.10655   0.53958   0.50000   0.00000  Uiso   1.00
O718   O     0.26899   0.58874   0.43895   0.00000  Uiso   1.00
O719   O     0.26902   0.41120   0.43904   0.00000  Uiso   1.00
O720   O     0.06431   0.58880   0.56095   0.00000  Uiso   1.00
O721   O     0.22679   0.46042   0.50000   0.00000  Uiso   1.00
O722   O     0.22679   0.53958   0.50000   0.00000  Uiso   1.00
O723   O     0.10655   0.46042   0.50000   0.00000  Uiso   1.00
O724   O     0.16667   0.53959   0.42946   0.00000  Uiso   1.00
O725   O     0.16667   0.46041   0.57054   0.00000  Uiso   1.00
O726   O     0.16667   0.53959   0.57054   0.00000  Uiso   1.00
O727   O     0.16667   0.46041   0.42946   0.00000  Uiso   1.00
O728   O     0.06435   0.41126   0.56105   0.00000  Uiso   1.00
C729   C     0.42116   0.50000   0.50438   0.00000  Uiso   1.00
C730   C     0.35447   0.54238   0.50725   0.00000  Uiso   1.00
C731   C     0.62366   0.50000   0.49070   0.00000  Uiso   1.00
C732   C     0.37634   0.50000   0.50929   0.00000  Uiso   1.00
C733   C     0.47357   0.35808   0.46714   0.00000  Uiso   1.00
C734   C     0.52643   0.64192   0.53286   0.00000  Uiso   1.00
C735   C     0.52643   0.35808   0.53286   0.00000  Uiso   1.00
C736   C     0.47357   0.64192   0.46714   0.00000  Uiso   1.00
C737   C     0.37474   0.41325   0.52308   0.00000  Uiso   1.00
C738   C     0.62526   0.58675   0.47692   0.00000  Uiso   1.00
C739   C     0.62528   0.41323   0.47702   0.00000  Uiso   1.00
C740   C     0.57884   0.50000   0.49562   0.00000  Uiso   1.00
C741   C     0.37472   0.58677   0.52298   0.00000  Uiso   1.00
C742   C     0.44369   0.38209   0.42931   0.00000  Uiso   1.00
C743   C     0.55631   0.61791   0.57069   0.00000  Uiso   1.00
C744   C     0.55629   0.38208   0.57071   0.00000  Uiso   1.00
C745   C     0.44371   0.61792   0.42929   0.00000  Uiso   1.00
C746   C     0.49979   0.50000   0.40698   0.00000  Uiso   1.00
C747   C     0.50021   0.50000   0.59302   0.00000  Uiso   1.00
C748   C     0.49992   0.50000   0.35520   0.00000  Uiso   1.00
C749   C     0.50008   0.50000   0.64480   0.00000  Uiso   1.00
C750   C     0.35448   0.45762   0.50731   0.00000  Uiso   1.00
C751   C     0.64552   0.54238   0.49269   0.00000  Uiso   1.00
C752   C     0.64553   0.45762   0.49274   0.00000  Uiso   1.00
Cu753  Cu    0.50000   0.54689   0.50000   0.00000  Uiso   1.00
Cu754  Cu    0.50000   0.45311   0.50000   0.00000  Uiso   1.00
H755   H     0.36845   0.38186   0.50206   0.00000  Uiso   1.00
H756   H     0.54867   0.62666   0.60847   0.00000  Uiso   1.00
H757   H     0.55752   0.41938   0.56918   0.00000  Uiso   1.00
H758   H     0.54862   0.37336   0.60848   0.00000  Uiso   1.00
H759   H     0.58827   0.37129   0.56620   0.00000  Uiso   1.00
H760   H     0.44248   0.58062   0.43082   0.00000  Uiso   1.00
H761   H     0.41173   0.62871   0.43380   0.00000  Uiso   1.00
H762   H     0.45138   0.62664   0.39152   0.00000  Uiso   1.00
H763   H     0.63154   0.61814   0.49794   0.00000  Uiso   1.00
H764   H     0.63157   0.38186   0.49808   0.00000  Uiso   1.00
H765   H     0.36843   0.61814   0.50192   0.00000  Uiso   1.00
H766   H     0.44248   0.41939   0.43081   0.00000  Uiso   1.00
H767   H     0.45133   0.37334   0.39153   0.00000  Uiso   1.00
H768   H     0.41171   0.37133   0.43387   0.00000  Uiso   1.00
H769   H     0.55752   0.58061   0.56919   0.00000  Uiso   1.00
H770   H     0.58829   0.62867   0.56613   0.00000  Uiso   1.00
N771   N     0.50000   0.61736   0.50000   0.00000  Uiso   1.00
N772   N     0.50000   0.38264   0.50000   0.00000  Uiso   1.00
O773   O     0.43988   0.53958   0.50000   0.00000  Uiso   1.00
O774   O     0.60232   0.58874   0.43895   0.00000  Uiso   1.00
O775   O     0.60235   0.41120   0.43904   0.00000  Uiso   1.00
O776   O     0.39765   0.58880   0.56095   0.00000  Uiso   1.00
O777   O     0.56012   0.46042   0.50000   0.00000  Uiso   1.00
O778   O     0.56012   0.53958   0.50000   0.00000  Uiso   1.00
O779   O     0.43988   0.46042   0.50000   0.00000  Uiso   1.00
O780   O     0.50000   0.53959   0.42946   0.00000  Uiso   1.00
O781   O     0.50000   0.46041   0.57054   0.00000  Uiso   1.00
O782   O     0.50000   0.53959   0.57054   0.00000  Uiso   1.00
O783   O     0.50000   0.46041   0.42946   0.00000  Uiso   1.00
O784   O     0.39768   0.41126   0.56105   0.00000  Uiso   1.00
C785   C     0.75449   0.50000   0.50438   0.00000  Uiso   1.00
C786   C     0.68780   0.54238   0.50725   0.00000  Uiso   1.00
C787   C     0.95700   0.50000   0.49070   0.00000  Uiso   1.00
C788   C     0.70967   0.50000   0.50929   0.00000  Uiso   1.00
C789   C     0.80690   0.35808   0.46714   0.00000  Uiso   1.00
C790   C     0.85976   0.64192   0.53286   0.00000  Uiso   1.00
C791   C     0.85976   0.35808   0.53286   0.00000  Uiso   1.00
C792   C     0.80691   0.64192   0.46714   0.00000  Uiso   1.00
C793   C     0.70807   0.41325   0.52308   0.00000  Uiso   1.00
C794   C     0.95859   0.58675   0.47692   0.00000  Uiso   1.00
C795   C     0.95862   0.41323   0.47702   0.00000  Uiso   1.00
C796   C     0.91218   0.50000   0.49562   0.00000  Uiso   1.00
C797   C     0.70805   0.58677   0.52298   0.00000  Uiso   1.00
C798   C     0.77702   0.38209   0.42931   0.00000  Uiso   1.00
C799   C     0.88964   0.61791   0.57069   0.00000  Uiso   1.00
C800   C     0.88962   0.38208   0.57071   0.00000  Uiso   1.00
C801   C     0.77704   0.61792   0.42929   0.00000  Uiso   1.00
C802   C     0.83312   0.50000   0.40698   0.00000  Uiso   1.00
C803   C     0.83355   0.50000   0.59302   0.00000  Uiso   1.00
C804   C     0.83326   0.50000   0.35520   0.00000  Uiso   1.00
C805   C     0.83341   0.50000   0.64480   0.00000  Uiso   1.00
C806   C     0.68781   0.45762   0.50731   0.00000  Uiso   1.00
C807   C     0.97885   0.54238   0.49269   0.00000  Uiso   1.00
C808   C     0.97886   0.45762   0.49274   0.00000  Uiso   1.00
Cu809  Cu    0.83333   0.54689   0.50000   0.00000  Uiso   1.00
Cu810  Cu    0.83333   0.45311   0.50000   0.00000  Uiso   1.00
H811   H     0.70179   0.38186   0.50206   0.00000  Uiso   1.00
H812   H     0.88201   0.62666   0.60847   0.00000  Uiso   1.00
H813   H     0.89085   0.41938   0.56918   0.00000  Uiso   1.00
H814   H     0.88195   0.37336   0.60848   0.00000  Uiso   1.00
H815   H     0.92161   0.37129   0.56620   0.00000  Uiso   1.00
H816   H     0.77581   0.58062   0.43082   0.00000  Uiso   1.00
H817   H     0.74506   0.62871   0.43380   0.00000  Uiso   1.00
H818   H     0.78472   0.62664   0.39152   0.00000  Uiso   1.00
H819   H     0.96488   0.61814   0.49794   0.00000  Uiso   1.00
H820   H     0.96490   0.38186   0.49808   0.00000  Uiso   1.00
H821   H     0.70176   0.61814   0.50192   0.00000  Uiso   1.00
H822   H     0.77582   0.41939   0.43081   0.00000  Uiso   1.00
H823   H     0.78466   0.37334   0.39153   0.00000  Uiso   1.00
H824   H     0.74505   0.37133   0.43387   0.00000  Uiso   1.00
H825   H     0.89085   0.58061   0.56919   0.00000  Uiso   1.00
H826   H     0.92162   0.62867   0.56613   0.00000  Uiso   1.00
N827   N     0.83333   0.61736   0.50000   0.00000  Uiso   1.00
N828   N     0.83333   0.38264   0.50000   0.00000  Uiso   1.00
O829   O     0.77321   0.53958   0.50000   0.00000  Uiso   1.00
O830   O     0.93565   0.58874   0.43895   0.00000  Uiso   1.00
O831   O     0.93569   0.41120   0.43904   0.00000  Uiso   1.00
O832   O     0.73098   0.58880   0.56095   0.00000  Uiso   1.00
O833   O     0.89345   0.46042   0.50000   0.00000  Uiso   1.00
O834   O     0.89345   0.53958   0.50000   0.00000  Uiso   1.00
O835   O     0.77321   0.46042   0.50000   0.00000  Uiso   1.00
O836   O     0.83333   0.53959   0.42946   0.00000  Uiso   1.00
O837   O     0.83333   0.46041   0.57054   0.00000  Uiso   1.00
O838   O     0.83333   0.53959   0.57054   0.00000  Uiso   1.00
O839   O     0.83333   0.46041   0.42946   0.00000  Uiso   1.00
O840   O     0.73101   0.41126   0.56105   0.00000  Uiso   1.00
C841   C     0.08782   0.83333   0.50438   0.00000  Uiso   1.00
C842   C     0.02114   0.87572   0.50725   0.00000  Uiso   1.00
C843   C     0.29033   0.83333   0.49070   0.00000  Uiso   1.00
C844   C     0.04301   0.83334   0.50929   0.00000  Uiso   1.00
C845   C     0.14024   0.69141   0.46714   0.00000  Uiso   1.00
C846   C     0.19310   0.97525   0.53286   0.00000  Uiso   1.00
C847   C     0.19310   0.69141   0.53286   0.00000  Uiso   1.00
C848   C     0.14024   0.97526   0.46714   0.00000  Uiso   1.00
C849   C     0.04141   0.74659   0.52308   0.00000  Uiso   1.00
C850   C     0.29193   0.92008   0.47692   0.00000  Uiso   1.00
C851   C     0.29195   0.74656   0.47702   0.00000  Uiso   1.00
C852   C     0.24551   0.83333   0.49562   0.00000  Uiso   1.00
C853   C     0.04138   0.92010   0.52298   0.00000  Uiso   1.00
C854   C     0.11036   0.71542   0.42931   0.00000  Uiso   1.00
C855   C     0.22298   0.95125   0.57069   0.00000  Uiso   1.00
C856   C     0.22296   0.71541   0.57071   0.00000  Uiso   1.00
C857   C     0.11038   0.95125   0.42929   0.00000  Uiso   1.00
C858   C     0.16645   0.83333   0.40698   0.00000  Uiso   1.00
C859   C     0.16688   0.83333   0.59302   0.00000  Uiso   1.00
C860   C     0.16659   0.83333   0.35520   0.00000  Uiso   1.00
C861   C     0.16674   0.83333   0.64480   0.00000  Uiso   1.00
C862   C     0.02115   0.79096   0.50731   0.00000  Uiso   1.00
C863   C     0.31219   0.87571   0.49269   0.00000  Uiso   1.00
C864   C     0.31220   0.79095   0.49274   0.00000  Uiso   1.00
Cu865  Cu    0.16667   0.88022   0.50000   0.00000  Uiso   1.00
Cu866  Cu    0.16667   0.78645   0.50000   0.00000  Uiso   1.00
H867   H     0.03512   0.71519   0.50206   0.00000  Uiso   1.00
H868   H     0.21534   0.96000   0.60847   0.00000  Uiso   1.00
H869   H     0.22419   0.75272   0.56918   0.00000  Uiso   1.00
H870   H     0.21529   0.70669   0.60848   0.00000  Uiso   1.00
H871   H     0.25494   0.70462   0.56620   0.00000  Uiso   1.00
H872   H     0.10915   0.91395   0.43082   0.00000  Uiso   1.00
H873   H     0.07839   0.96204   0.43380   0.00000  Uiso   1.00
H874   H     0.11805   0.95998   0.39152   0.00000  Uiso   1.00
H875   H     0.29821   0.95148   0.49794   0.00000  Uiso   1.00
H876   H     0.29824   0.71519   0.49808   0.00000  Uiso   1.00
H877   H     0.03510   0.95148   0.50192   0.00000  Uiso   1.00
H878   H     0.10915   0.75273   0.43081   0.00000  Uiso   1.00
H879   H     0.11799   0.70667   0.39153   0.00000  Uiso   1.00
H880   H     0.07838   0.70466   0.43387   0.00000  Uiso   1.00
H881   H     0.22418   0.91394   0.56919   0.00000  Uiso   1.00
H882   H     0.25495   0.96201   0.56613   0.00000  Uiso   1.00
N883   N     0.16667   0.95069   0.50000   0.00000  Uiso   1.00
N884   N     0.16667   0.71598   0.50000   0.00000  Uiso   1.00
O885   O     0.10655   0.87291   0.50000   0.00000  Uiso   1.00
O886   O     0.26899   0.92207   0.43895   0.00000  Uiso   1.00
O887   O     0.26902   0.74453   0.43904   0.00000  Uiso   1.00
O888   O     0.06431   0.92214   0.56095   0.00000  Uiso   1.00
O889   O     0.22679   0.79375   0.50000   0.00000  Uiso   1.00
O890   O     0.22679   0.87291   0.50000   0.00000  Uiso   1.00
O891   O     0.10655   0.79375   0.50000   0.00000  Uiso   1.00
O892   O     0.16667   0.87292   0.42946   0.00000  Uiso   1.00
O893   O     0.16667   0.79375   0.57054   0.00000  Uiso   1.00
O894   O     0.16667   0.87292   0.57054   0.00000  Uiso   1.00
O895   O     0.16667   0.79375   0.42946   0.00000  Uiso   1.00
O896   O     0.06435   0.74459   0.56105   0.00000  Uiso   1.00
C897   C     0.42116   0.83333   0.50438   0.00000  Uiso   1.00
C898   C     0.35447   0.87572   0.50725   0.00000  Uiso   1.00
C899   C     0.62366   0.83333   0.49070   0.00000  Uiso   1.00
C900   C     0.37634   0.83334   0.50929   0.00000  Uiso   1.00
C901   C     0.47357   0.69141   0.46714   0.00000  Uiso   1.00
C902   C     0.52643   0.97525   0.53286   0.00000  Uiso   1.00
C903   C     0.52643   0.69141   0.53286   0.00000  Uiso   1.00
C904   C     0.47357   0.97526   0.46714   0.00000  Uiso   1.00
C905   C     0.37474   0.74659   0.52308   0.00000  Uiso   1.00
C906   C     0.62526   0.92008   0.47692   0.00000  Uiso   1.00
C907   C     0.62528   0.74656   0.47702   0.00000  Uiso   1.00
C908   C     0.57884   0.83333   0.49562   0.00000  Uiso   1.00
C909   C     0.37472   0.92010   0.52298   0.00000  Uiso   1.00
C910   C     0.44369   0.71542   0.42931   0.00000  Uiso   1.00
C911   C     0.55631   0.95125   0.57069   0.00000  Uiso   1.00
C912   C     0.55629   0.71541   0.57071   0.00000  Uiso   1.00
C913   C     0.44371   0.95125   0.42929   0.00000  Uiso   1.00
C914   C     0.49979   0.83333   0.40698   0.00000  Uiso   1.00
C915   C     0.50021   0.83333   0.59302   0.00000  Uiso   1.00
C916   C     0.49992   0.83333   0.35520   0.00000  Uiso   1.00
C917   C     0.50008   0.83333   0.64480   0.00000  Uiso   1.00
C918   C     0.35448   0.79096   0.50731   0.00000  Uiso   1.00
C919   C     0.64552   0.87571   0.49269   0.00000  Uiso   1.00
C920   C     0.64553   0.79095   0.49274   0.00000  Uiso   1.00
Cu921  Cu    0.50000   0.88022   0.50000   0.00000  Uiso   1.00
Cu922  Cu    0.50000   0.78645   0.50000   0.00000  Uiso   1.00
H923   H     0.36845   0.71519   0.50206   0.00000  Uiso   1.00
H924   H     0.54867   0.96000   0.60847   0.00000  Uiso   1.00
H925   H     0.55752   0.75272   0.56918   0.00000  Uiso   1.00
H926   H     0.54862   0.70669   0.60848   0.00000  Uiso   1.00
H927   H     0.58827   0.70462   0.56620   0.00000  Uiso   1.00
H928   H     0.44248   0.91395   0.43082   0.00000  Uiso   1.00
H929   H     0.41173   0.96204   0.43380   0.00000  Uiso   1.00
H930   H     0.45138   0.95998   0.39152   0.00000  Uiso   1.00
H931   H     0.63154   0.95148   0.49794   0.00000  Uiso   1.00
H932   H     0.63157   0.71519   0.49808   0.00000  Uiso   1.00
H933   H     0.36843   0.95148   0.50192   0.00000  Uiso   1.00
H934   H     0.44248   0.75273   0.43081   0.00000  Uiso   1.00
H935   H     0.45133   0.70667   0.39153   0.00000  Uiso   1.00
H936   H     0.41171   0.70466   0.43387   0.00000  Uiso   1.00
H937   H     0.55752   0.91394   0.56919   0.00000  Uiso   1.00
H938   H     0.58829   0.96201   0.56613   0.00000  Uiso   1.00
N939   N     0.50000   0.95069   0.50000   0.00000  Uiso   1.00
N940   N     0.50000   0.71598   0.50000   0.00000  Uiso   1.00
O941   O     0.43988   0.87291   0.50000   0.00000  Uiso   1.00
O942   O     0.60232   0.92207   0.43895   0.00000  Uiso   1.00
O943   O     0.60235   0.74453   0.43904   0.00000  Uiso   1.00
O944   O     0.39765   0.92214   0.56095   0.00000  Uiso   1.00
O945   O     0.56012   0.79375   0.50000   0.00000  Uiso   1.00
O946   O     0.56012   0.87291   0.50000   0.00000  Uiso   1.00
O947   O     0.43988   0.79375   0.50000   0.00000  Uiso   1.00
O948   O     0.50000   0.87292   0.42946   0.00000  Uiso   1.00
O949   O     0.50000   0.79375   0.57054   0.00000  Uiso   1.00
O950   O     0.50000   0.87292   0.57054   0.00000  Uiso   1.00
O951   O     0.50000   0.79375   0.42946   0.00000  Uiso   1.00
O952   O     0.39768   0.74459   0.56105   0.00000  Uiso   1.00
C953   C     0.75449   0.83333   0.50438   0.00000  Uiso   1.00
C954   C     0.68780   0.87572   0.50725   0.00000  Uiso   1.00
C955   C     0.95700   0.83333   0.49070   0.00000  Uiso   1.00
C956   C     0.70967   0.83334   0.50929   0.00000  Uiso   1.00
C957   C     0.80690   0.69141   0.46714   0.00000  Uiso   1.00
C958   C     0.85976   0.97525   0.53286   0.00000  Uiso   1.00
C959   C     0.85976   0.69141   0.53286   0.00000  Uiso   1.00
C960   C     0.80691   0.97526   0.46714   0.00000  Uiso   1.00
C961   C     0.70807   0.74659   0.52308   0.00000  Uiso   1.00
C962   C     0.95859   0.92008   0.47692   0.00000  Uiso   1.00
C963   C     0.95862   0.74656   0.47702   0.00000  Uiso   1.00
C964   C     0.91218   0.83333   0.49562   0.00000  Uiso   1.00
C965   C     0.70805   0.92010   0.52298   0.00000  Uiso   1.00
C966   C     0.77702   0.71542   0.42931   0.00000  Uiso   1.00
C967   C     0.88964   0.95125   0.57069   0.00000  Uiso   1.00
C968   C     0.88962   0.71541   0.57071   0.00000  Uiso   1.00
C969   C     0.77704   0.95125   0.42929   0.00000  Uiso   1.00
C970   C     0.83312   0.83333   0.40698   0.00000  Uiso   1.00
C971   C     0.83355   0.83333   0.59302   0.00000  Uiso   1.00
C972   C     0.83326   0.83333   0.35520   0.00000  Uiso   1.00
C973   C     0.83341   0.83333   0.64480   0.00000  Uiso   1.00
C974   C     0.68781   0.79096   0.50731   0.00000  Uiso   1.00
C975   C     0.97885   0.87571   0.49269   0.00000  Uiso   1.00
C976   C     0.97886   0.79095   0.49274   0.00000  Uiso   1.00
Cu977  Cu    0.83333   0.88022   0.50000   0.00000  Uiso   1.00
Cu978  Cu    0.83333   0.78645   0.50000   0.00000  Uiso   1.00
H979   H     0.70179   0.71519   0.50206   0.00000  Uiso   1.00
H980   H     0.88201   0.96000   0.60847   0.00000  Uiso   1.00
H981   H     0.89085   0.75272   0.56918   0.00000  Uiso   1.00
H982   H     0.88195   0.70669   0.60848   0.00000  Uiso   1.00
H983   H     0.92161   0.70462   0.56620   0.00000  Uiso   1.00
H984   H     0.77581   0.91395   0.43082   0.00000  Uiso   1.00
H985   H     0.74506   0.96204   0.43380   0.00000  Uiso   1.00
H986   H     0.78472   0.95998   0.39152   0.00000  Uiso   1.00
H987   H     0.96488   0.95148   0.49794   0.00000  Uiso   1.00
H988   H     0.96490   0.71519   0.49808   0.00000  Uiso   1.00
H989   H     0.70176   0.95148   0.50192   0.00000  Uiso   1.00
H990   H     0.77582   0.75273   0.43081   0.00000  Uiso   1.00
H991   H     0.78466   0.70667   0.39153   0.00000  Uiso   1.00
H992   H     0.74505   0.70466   0.43387   0.00000  Uiso   1.00
H993   H     0.89085   0.91394   0.56919   0.00000  Uiso   1.00
H994   H     0.92162   0.96201   0.56613   0.00000  Uiso   1.00
N995   N     0.83333   0.95069   0.50000   0.00000  Uiso   1.00
N996   N     0.83333   0.71598   0.50000   0.00000  Uiso   1.00
O997   O     0.77321   0.87291   0.50000   0.00000  Uiso   1.00
O998   O     0.93565   0.92207   0.43895   0.00000  Uiso   1.00
O999   O     0.93569   0.74453   0.43904   0.00000  Uiso   1.00
O1000  O     0.73098   0.92214   0.56095   0.00000  Uiso   1.00
O1001  O     0.89345   0.79375   0.50000   0.00000  Uiso   1.00
O1002  O     0.89345   0.87291   0.50000   0.00000  Uiso   1.00
O1003  O     0.77321   0.79375   0.50000   0.00000  Uiso   1.00
O1004  O     0.83333   0.87292   0.42946   0.00000  Uiso   1.00
O1005  O     0.83333   0.79375   0.57054   0.00000  Uiso   1.00
O1006  O     0.83333   0.87292   0.57054   0.00000  Uiso   1.00
O1007  O     0.83333   0.79375   0.42946   0.00000  Uiso   1.00
O1008  O     0.73101   0.74459   0.56105   0.00000  Uiso   1.00
C1009  C     0.08782   0.16667   0.83771   0.00000  Uiso   1.00
C1010  C     0.02114   0.20905   0.84059   0.00000  Uiso   1.00
C1011  C     0.29033   0.16666   0.82404   0.00000  Uiso   1.00
C1012  C     0.04301   0.16667   0.84263   0.00000  Uiso   1.00
C1013  C     0.14024   0.02475   0.80047   0.00000  Uiso   1.00
C1014  C     0.19310   0.30859   0.86619   0.00000  Uiso   1.00
C1015  C     0.19310   0.02474   0.86619   0.00000  Uiso   1.00
C1016  C     0.14024   0.30859   0.80047   0.00000  Uiso   1.00
C1017  C     0.04141   0.07992   0.85641   0.00000  Uiso   1.00
C1018  C     0.29193   0.25341   0.81025   0.00000  Uiso   1.00
C1019  C     0.29195   0.07990   0.81035   0.00000  Uiso   1.00
C1020  C     0.24551   0.16666   0.82896   0.00000  Uiso   1.00
C1021  C     0.04138   0.25344   0.85631   0.00000  Uiso   1.00
C1022  C     0.11036   0.04875   0.76264   0.00000  Uiso   1.00
C1023  C     0.22298   0.28458   0.90403   0.00000  Uiso   1.00
C1024  C     0.22296   0.04875   0.90404   0.00000  Uiso   1.00
C1025  C     0.11038   0.28459   0.76262   0.00000  Uiso   1.00
C1026  C     0.16645   0.16667   0.74031   0.00000  Uiso   1.00
C1027  C     0.16688   0.16667   0.92636   0.00000  Uiso   1.00
C1028  C     0.16659   0.16667   0.68853   0.00000  Uiso   1.00
C1029  C     0.16674   0.16667   0.97813   0.00000  Uiso   1.00
C1030  C     0.02115   0.12429   0.84064   0.00000  Uiso   1.00
C1031  C     0.31219   0.20904   0.82603   0.00000  Uiso   1.00
C1032  C     0.31220   0.12428   0.82608   0.00000  Uiso   1.00
Cu1033 Cu    0.16667   0.21355   0.83333   0.00000  Uiso   1.00
Cu1034 Cu    0.16667   0.11978   0.83333   0.00000  Uiso   1.00
H1035  H     0.03512   0.04852   0.83540   0.00000  Uiso   1.00
H1036  H     0.21534   0.29333   0.94180   0.00000  Uiso   1.00
H1037  H     0.22419   0.08605   0.90252   0.00000  Uiso   1.00
H1038  H     0.21529   0.04002   0.94181   0.00000  Uiso   1.00
H1039  H     0.25494   0.03796   0.89953   0.00000  Uiso   1.00
H1040  H     0.10915   0.24728   0.76415   0.00000  Uiso   1.00
H1041  H     0.07839   0.29538   0.76714   0.00000  Uiso   1.00
H1042  H     0.11805   0.29331   0.72486   0.00000  Uiso   1.00
H1043  H     0.29821   0.28481   0.83127   0.00000  Uiso   1.00
H1044  H     0.29824   0.04852   0.83141   0.00000  Uiso   1.00
H1045  H     0.03510   0.28481   0.83525   0.00000  Uiso   1.00
H1046  H     0.10915   0.08606   0.76414   0.00000  Uiso   1.00
H1047  H     0.11799   0.04000   0.72487   0.00000  Uiso   1.00
H1048  H     0.07838   0.03799   0.76720   0.00000  Uiso   1.00
H1049  H     0.22418   0.24727   0.90253   0.00000  Uiso   1.00
H1050  H     0.25495   0.29534   0.89946   0.00000  Uiso   1.00
N1051  N     0.16667   0.28402   0.83333   0.00000  Uiso   1.00
N1052  N     0.16667   0.04931   0.83333   0.00000  Uiso   1.00
O1053  O     0.10655   0.20625   0.83333   0.00000  Uiso   1.00
O1054  O     0.26899   0.25541   0.77228   0.00000  Uiso   1.00
O1055  O     0.26902   0.07787   0.77238   0.00000  Uiso   1.00
O1056  O     0.06431   0.25547   0.89429   0.00000  Uiso   1.00
O1057  O     0.22679   0.12709   0.83334   0.00000  Uiso   1.00
O1058  O     0.22679   0.20625   0.83334   0.00000  Uiso   1.00
O1059  O     0.10655   0.12709   0.83333   0.00000  Uiso   1.00
O1060  O     0.16667   0.20625   0.76280   0.00000  Uiso   1.00
O1061  O     0.16667   0.12708   0.90387   0.00000  Uiso   1.00
O1062  O     0.16667   0.20625   0.90387   0.00000  Uiso   1.00
O1063  O     0.16667   0.12708   0.76280   0.00000  Uiso   1.00
O1064  O     0.06435   0.07793   0.89438   0.00000  Uiso   1.00
C1065  C     0.42116   0.16667   0.83771   0.00000  Uiso   1.00
C1066  C     0.35447   0.20905   0.84059   0.00000  Uiso   1.00
C1067  C     0.62366   0.16666   0.82404   0.00000  Uiso   1.00
C1068  C     0.37634   0.16667   0.84263   0.00000  Uiso   1.00
C1069  C     0.47357   0.02475   0.80047   0.00000  Uiso   1.00
C1070  C     0.52643   0.30859   0.86619   0.00000  Uiso   1.00
C1071  C     0.52643   0.02474   0.86619   0.00000  Uiso   1.00
C1072  C     0.47357   0.30859   0.80047   0.00000  Uiso   1.00
C1073  C     0.37474   0.07992   0.85641   0.00000  Uiso   1.00
C1074  C     0.62526   0.25341   0.81025   0.00000  Uiso   1.00
C1075  C     0.62528   0.07990   0.81035   0.00000  Uiso   1.00
C1076  C     0.57884   0.16666   0.82896   0.00000  Uiso   1.00
C1077  C     0.37472   0.25344   0.85631   0.00000  Uiso   1.00
C1078  C     0.44369   0.04875   0.76264   0.00000  Uiso   1.00
C1079  C     0.55631   0.28458   0.90403   0.00000  Uiso   1.00
C1080  C     0.55629   0.04875   0.90404   0.00000  Uiso   1.00
C1081  C     0.44371   0.28459   0.76262   0.00000  Uiso   1.00
C1082  C     0.49979   0.16667   0.74031   0.00000  Uiso   1.00
C1083  C     0.50021   0.16667   0.92636   0.00000  Uiso   1.00
C1084  C     0.49992   0.16667   0.68853   0.00000  Uiso   1.00
C1085  C     0.50008   0.16667   0.97813   0.00000  Uiso   1.00
C1086  C     0.35448   0.12429   0.84064   0.00000  Uiso   1.00
C1087  C     0.64552   0.20904   0.82603   0.00000  Uiso   1.00
C1088  C     0.64553   0.12428   0.82608   0.00000  Uiso   1.00
Cu1089 Cu    0.50000   0.21355   0.83333   0.00000  Uiso   1.00
Cu1090 Cu    0.50000   0.11978   0.83333   0.00000  Uiso   1.00
H1091  H     0.36845   0.04852   0.83540   0.00000  Uiso   1.00
H1092  H     0.54867   0.29333   0.94180   0.00000  Uiso   1.00
H1093  H     0.55752   0.08605   0.90252   0.00000  Uiso   1.00
H1094  H     0.54862   0.04002   0.94181   0.00000  Uiso   1.00
H1095  H     0.58827   0.03796   0.89953   0.00000  Uiso   1.00
H1096  H     0.44248   0.24728   0.76415   0.00000  Uiso   1.00
H1097  H     0.41173   0.29538   0.76714   0.00000  Uiso   1.00
H1098  H     0.45138   0.29331   0.72486   0.00000  Uiso   1.00
H1099  H     0.63154   0.28481   0.83127   0.00000  Uiso   1.00
H1100  H     0.63157   0.04852   0.83141   0.00000  Uiso   1.00
H1101  H     0.36843   0.28481   0.83525   0.00000  Uiso   1.00
H1102  H     0.44248   0.08606   0.76414   0.00000  Uiso   1.00
H1103  H     0.45133   0.04000   0.72487   0.00000  Uiso   1.00
H1104  H     0.41171   0.03799   0.76720   0.00000  Uiso   1.00
H1105  H     0.55752   0.24727   0.90253   0.00000  Uiso   1.00
H1106  H     0.58829   0.29534   0.89946   0.00000  Uiso   1.00
N1107  N     0.50000   0.28402   0.83333   0.00000  Uiso   1.00
N1108  N     0.50000   0.04931   0.83333   0.00000  Uiso   1.00
O1109  O     0.43988   0.20625   0.83333   0.00000  Uiso   1.00
O1110  O     0.60232   0.25541   0.77228   0.00000  Uiso   1.00
O1111  O     0.60235   0.07787   0.77238   0.00000  Uiso   1.00
O1112  O     0.39765   0.25547   0.89429   0.00000  Uiso   1.00
O1113  O     0.56012   0.12709   0.83334   0.00000  Uiso   1.00
O1114  O     0.56012   0.20625   0.83334   0.00000  Uiso   1.00
O1115  O     0.43988   0.12709   0.83333   0.00000  Uiso   1.00
O1116  O     0.50000   0.20625   0.76280   0.00000  Uiso   1.00
O1117  O     0.50000   0.12708   0.90387   0.00000  Uiso   1.00
O1118  O     0.50000   0.20625   0.90387   0.00000  Uiso   1.00
O1119  O     0.50000   0.12708   0.76280   0.00000  Uiso   1.00
O1120  O     0.39768   0.07793   0.89438   0.00000  Uiso   1.00
C1121  C     0.75449   0.16667   0.83771   0.00000  Uiso   1.00
C1122  C     0.68780   0.20905   0.84059   0.00000  Uiso   1.00
C1123  C     0.95700   0.16666   0.82404   0.00000  Uiso   1.00
C1124  C     0.70967   0.16667   0.84263   0.00000  Uiso   1.00
C1125  C     0.80690   0.02475   0.80047   0.00000  Uiso   1.00
C1126  C     0.85976   0.30859   0.86619   0.00000  Uiso   1.00
C1127  C     0.85976   0.02474   0.86619   0.00000  Uiso   1.00
C1128  C     0.80691   0.30859   0.80047   0.00000  Uiso   1.00
C1129  C     0.70807   0.07992   0.85641   0.00000  Uiso   1.00
C1130  C     0.95859   0.25341   0.81025   0.00000  Uiso   1.00
C1131  C     0.95862   0.07990   0.81035   0.00000  Uiso   1.00
C1132  C     0.91218   0.16666   0.82896   0.00000  Uiso   1.00
C1133  C     0.70805   0.25344   0.85631   0.00000  Uiso   1.00
C1134  C     0.77702   0.04875   0.76264   0.00000  Uiso   1.00
C1135  C     0.88964   0.28458   0.90403   0.00000  Uiso   1.00
C1136  C     0.88962   0.04875   0.90404   0.00000  Uiso   1.00
C1137  C     0.77704   0.28459   0.76262   0.00000  Uiso   1.00
C1138  C     0.83312   0.16667   0.74031   0.00000  Uiso   1.00
C1139  C     0.83355   0.16667   0.92636   0.00000  Uiso   1.00
C1140  C     0.83326   0.16667   0.68853   0.00000  Uiso   1.00
C1141  C     0.83341   0.16667   0.97813   0.00000  Uiso   1.00
C1142  C     0.68781   0.12429   0.84064   0.00000  Uiso   1.00
C1143  C     0.97885   0.20904   0.82603   0.00000  Uiso   1.00
C1144  C     0.97886   0.12428   0.82608   0.00000  Uiso   1.00
Cu1145 Cu    0.83333   0.21355   0.83333   0.00000  Uiso   1.00
Cu1146 Cu    0.83333   0.11978   0.83333   0.00000  Uiso   1.00
H1147  H     0.70179   0.04852   0.83540   0.00000  Uiso   1.00
H1148  H     0.88201   0.29333   0.94180   0.00000  Uiso   1.00
H1149  H     0.89085   0.08605   0.90252   0.00000  Uiso   1.00
H1150  H     0.88195   0.04002   0.94181   0.00000  Uiso   1.00
H1151  H     0.92161   0.03796   0.89953   0.00000  Uiso   1.00
H1152  H     0.77581   0.24728   0.76415   0.00000  Uiso   1.00
H1153  H     0.74506   0.29538   0.76714   0.00000  Uiso   1.00
H1154  H     0.78472   0.29331   0.72486   0.00000  Uiso   1.00
H1155  H     0.96488   0.28481   0.83127   0.00000  Uiso   1.00
H1156  H     0.96490   0.04852   0.83141   0.00000  Uiso   1.00
H1157  H     0.70176   0.28481   0.83525   0.00000  Uiso   1.00
H1158  H     0.77582   0.08606   0.76414   0.00000  Uiso   1.00
H1159  H     0.78466   0.04000   0.72487   0.00000  Uiso   1.00
H1160  H     0.74505   0.03799   0.76720   0.00000  Uiso   1.00
H1161  H     0.89085   0.24727   0.90253   0.00000  Uiso   1.00
H1162  H     0.92162   0.29534   0.89946   0.00000  Uiso   1.00
N1163  N     0.83333   0.28402   0.83333   0.00000  Uiso   1.00
N1164  N     0.83333   0.04931   0.83333   0.00000  Uiso   1.00
O1165  O     0.77321   0.20625   0.83333   0.00000  Uiso   1.00
O1166  O     0.93565   0.25541   0.77228   0.00000  Uiso   1.00
O1167  O     0.93569   0.07787   0.77238   0.00000  Uiso   1.00
O1168  O     0.73098   0.25547   0.89429   0.00000  Uiso   1.00
O1169  O     0.89345   0.12709   0.83334   0.00000  Uiso   1.00
O1170  O     0.89345   0.20625   0.83334   0.00000  Uiso   1.00
O1171  O     0.77321   0.12709   0.83333   0.00000  Uiso   1.00
O1172  O     0.83333   0.20625   0.76280   0.00000  Uiso   1.00
O1173  O     0.83333   0.12708   0.90387   0.00000  Uiso   1.00
O1174  O     0.83333   0.20625   0.90387   0.00000  Uiso   1.00
O1175  O     0.83333   0.12708   0.76280   0.00000  Uiso   1.00
O1176  O     0.73101   0.07793   0.89438   0.00000  Uiso   1.00
C1177  C     0.08782   0.50000   0.83771   0.00000  Uiso   1.00
C1178  C     0.02114   0.54238   0.84059   0.00000  Uiso   1.00
C1179  C     0.29033   0.50000   0.82404   0.00000  Uiso   1.00
C1180  C     0.04301   0.50000   0.84263   0.00000  Uiso   1.00
C1181  C     0.14024   0.35808   0.80047   0.00000  Uiso   1.00
C1182  C     0.19310   0.64192   0.86619   0.00000  Uiso   1.00
C1183  C     0.19310   0.35808   0.86619   0.00000  Uiso   1.00
C1184  C     0.14024   0.64192   0.80047   0.00000  Uiso   1.00
C1185  C     0.04141   0.41325   0.85641   0.00000  Uiso   1.00
C1186  C     0.29193   0.58675   0.81025   0.00000  Uiso   1.00
C1187  C     0.29195   0.41323   0.81035   0.00000  Uiso   1.00
C1188  C     0.24551   0.50000   0.82896   0.00000  Uiso   1.00
C1189  C     0.04138   0.58677   0.85631   0.00000  Uiso   1.00
C1190  C     0.11036   0.38209   0.76264   0.00000  Uiso   1.00
C1191  C     0.22298   0.61791   0.90403   0.00000  Uiso   1.00
C1192  C     0.22296   0.38208   0.90404   0.00000  Uiso   1.00
C1193  C     0.11038   0.61792   0.76262   0.00000  Uiso   1.00
C1194  C     0.16645   0.50000   0.74031   0.00000  Uiso   1.00
C1195  C     0.16688   0.50000   0.92636   0.00000  Uiso   1.00
C1196  C     0.16659   0.50000   0.68853   0.00000  Uiso   1.00
C1197  C     0.16674   0.50000   0.97813   0.00000  Uiso   1.00
C1198  C     0.02115   0.45762   0.84064   0.00000  Uiso   1.00
C1199  C     0.31219   0.54238   0.82603   0.00000  Uiso   1.00
C1200  C     0.31220   0.45762   0.82608   0.00000  Uiso   1.00
Cu1201 Cu    0.16667   0.54689   0.83333   0.00000  Uiso   1.00
Cu1202 Cu    0.16667   0.45311   0.83333   0.00000  Uiso   1.00
H1203  H     0.03512   0.38186   0.83540   0.00000  Uiso   1.00
H1204  H     0.21534   0.62666   0.94180   0.00000  Uiso   1.00
H1205  H     0.22419   0.41938   0.90252   0.00000  Uiso   1.00
H1206  H     0.21529   0.37336   0.94181   0.00000  Uiso   1.00
H1207  H     0.25494   0.37129   0.89953   0.00000  Uiso   1.00
H1208  H     0.10915   0.58062   0.76415   0.00000  Uiso   1.00
H1209  H     0.07839   0.62871   0.76714   0.00000  Uiso   1.00
H1210  H     0.11805   0.62664   0.72486   0.00000  Uiso   1.00
H1211  H     0.29821   0.61814   0.83127   0.00000  Uiso   1.00
H1212  H     0.29824   0.38186   0.83141   0.00000  Uiso   1.00
H1213  H     0.03510   0.61814   0.83525   0.00000  Uiso   1.00
H1214  H     0.10915   0.41939   0.76414   0.00000  Uiso   1.00
H1215  H     0.11799   0.37334   0.72487   0.00000  Uiso   1.00
H1216  H     0.07838   0.37133   0.76720   0.00000  Uiso   1.00
H1217  H     0.22418   0.58061   0.90253   0.00000  Uiso   1.00
H1218  H     0.25495   0.62867   0.89946   0.00000  Uiso   1.00
N1219  N     0.16667   0.61736   0.83333   0.00000  Uiso   1.00
N1220  N     0.16667   0.38264   0.83333   0.00000  Uiso   1.00
O1221  O     0.10655   0.53958   0.83333   0.00000  Uiso   1.00
O1222  O     0.26899   0.58874   0.77228   0.00000  Uiso   1.00
O1223  O     0.26902   0.41120   0.77238   0.00000  Uiso   1.00
O1224  O     0.06431   0.58880   0.89429   0.00000  Uiso   1.00
O1225  O     0.22679   0.46042   0.83334   0.00000  Uiso   1.00
O1226  O     0.22679   0.53958   0.83334   0.00000  Uiso   1.00
O1227  O     0.10655   0.46042   0.83333   0.00000  Uiso   1.00
O1228  O     0.16667   0.53959   0.76280   0.00000  Uiso   1.00
O1229  O     0.16667   0.46041   0.90387   0.00000  Uiso   1.00
O1230  O     0.16667   0.53959   0.90387   0.00000  Uiso   1.00
O1231  O     0.16667   0.46041   0.76280   0.00000  Uiso   1.00
O1232  O     0.06435   0.41126   0.89438   0.00000  Uiso   1.00
C1233  C     0.42116   0.50000   0.83771   0.00000  Uiso   1.00
C1234  C     0.35447   0.54238   0.84059   0.00000  Uiso   1.00
C1235  C     0.62366   0.50000   0.82404   0.00000  Uiso   1.00
C1236  C     0.37634   0.50000   0.84263   0.00000  Uiso   1.00
C1237  C     0.47357   0.35808   0.80047   0.00000  Uiso   1.00
C1238  C     0.52643   0.64192   0.86619   0.00000  Uiso   1.00
C1239  C     0.52643   0.35808   0.86619   0.00000  Uiso   1.00
C1240  C     0.47357   0.64192   0.80047   0.00000  Uiso   1.00
C1241  C     0.37474   0.41325   0.85641   0.00000  Uiso   1.00
C1242  C     0.62526   0.58675   0.81025   0.00000  Uiso   1.00
C1243  C     0.62528   0.41323   0.81035   0.00000  Uiso   1.00
C1244  C     0.57884   0.50000   0.82896   0.00000  Uiso   1.00
C1245  C     0.37472   0.58677   0.85631   0.00000  Uiso   1.00
C1246  C     0.44369   0.38209   0.76264   0.00000  Uiso   1.00
C1247  C     0.55631   0.61791   0.90403   0.00000  Uiso   1.00
C1248  C     0.55629   0.38208   0.90404   0.00000  Uiso   1.00
C1249  C     0.44371   0.61792   0.76262   0.00000  Uiso   1.00
C1250  C     0.49979   0.50000   0.74031   0.00000  Uiso   1.00
C1251  C     0.50021   0.50000   0.92636   0.00000  Uiso   1.00
C1252  C     0.49992   0.50000   0.68853   0.00000  Uiso   1.00
C1253  C     0.50008   0.50000   0.97813   0.00000  Uiso   1.00
C1254  C     0.35448   0.45762   0.84064   0.00000  Uiso   1.00
C1255  C     0.64552   0.54238   0.82603   0.00000  Uiso   1.00
C1256  C     0.64553   0.45762   0.82608   0.00000  Uiso   1.00
Cu1257 Cu    0.50000   0.54689   0.83333   0.00000  Uiso   1.00
Cu1258 Cu    0.50000   0.45311   0.83333   0.00000  Uiso   1.00
H1259  H     0.36845   0.38186   0.83540   0.00000  Uiso   1.00
H1260  H     0.54867   0.62666   0.94180   0.00000  Uiso   1.00
H1261  H     0.55752   0.41938   0.90252   0.00000  Uiso   1.00
H1262  H     0.54862   0.37336   0.94181   0.00000  Uiso   1.00
H1263  H     0.58827   0.37129   0.89953   0.00000  Uiso   1.00
H1264  H     0.44248   0.58062   0.76415   0.00000  Uiso   1.00
H1265  H     0.41173   0.62871   0.76714   0.00000  Uiso   1.00
H1266  H     0.45138   0.62664   0.72486   0.00000  Uiso   1.00
H1267  H     0.63154   0.61814   0.83127   0.00000  Uiso   1.00
H1268  H     0.63157   0.38186   0.83141   0.00000  Uiso   1.00
H1269  H     0.36843   0.61814   0.83525   0.00000  Uiso   1.00
H1270  H     0.44248   0.41939   0.76414   0.00000  Uiso   1.00
H1271  H     0.45133   0.37334   0.72487   0.00000  Uiso   1.00
H1272  H     0.41171   0.37133   0.76720   0.00000  Uiso   1.00
H1273  H     0.55752   0.58061   0.90253   0.00000  Uiso   1.00
H1274  H     0.58829   0.62867   0.89946   0.00000  Uiso   1.00
N1275  N     0.50000   0.61736   0.83333   0.00000  Uiso   1.00
N1276  N     0.50000   0.38264   0.83333   0.00000  Uiso   1.00
O1277  O     0.43988   0.53958   0.83333   0.00000  Uiso   1.00
O1278  O     0.60232   0.58874   0.77228   0.00000  Uiso   1.00
O1279  O     0.60235   0.41120   0.77238   0.00000  Uiso   1.00
O1280  O     0.39765   0.58880   0.89429   0.00000  Uiso   1.00
O1281  O     0.56012   0.46042   0.83334   0.00000  Uiso   1.00
O1282  O     0.56012   0.53958   0.83334   0.00000  Uiso   1.00
O1283  O     0.43988   0.46042   0.83333   0.00000  Uiso   1.00
O1284  O     0.50000   0.53959   0.76280   0.00000  Uiso   1.00
O1285  O     0.50000   0.46041   0.90387   0.00000  Uiso   1.00
O1286  O     0.50000   0.53959   0.90387   0.00000  Uiso   1.00
O1287  O     0.50000   0.46041   0.76280   0.00000  Uiso   1.00
O1288  O     0.39768   0.41126   0.89438   0.00000  Uiso   1.00
C1289  C     0.75449   0.50000   0.83771   0.00000  Uiso   1.00
C1290  C     0.68780   0.54238   0.84059   0.00000  Uiso   1.00
C1291  C     0.95700   0.50000   0.82404   0.00000  Uiso   1.00
C1292  C     0.70967   0.50000   0.84263   0.00000  Uiso   1.00
C1293  C     0.80690   0.35808   0.80047   0.00000  Uiso   1.00
C1294  C     0.85976   0.64192   0.86619   0.00000  Uiso   1.00
C1295  C     0.85976   0.35808   0.86619   0.00000  Uiso   1.00
C1296  C     0.80691   0.64192   0.80047   0.00000  Uiso   1.00
C1297  C     0.70807   0.41325   0.85641   0.00000  Uiso   1.00
C1298  C     0.95859   0.58675   0.81025   0.00000  Uiso   1.00
C1299  C     0.95862   0.41323   0.81035   0.00000  Uiso   1.00
C1300  C     0.91218   0.50000   0.82896   0.00000  Uiso   1.00
C1301  C     0.70805   0.58677   0.85631   0.00000  Uiso   1.00
C1302  C     0.77702   0.38209   0.76264   0.00000  Uiso   1.00
C1303  C     0.88964   0.61791   0.90403   0.00000  Uiso   1.00
C1304  C     0.88962   0.38208   0.90404   0.00000  Uiso   1.00
C1305  C     0.77704   0.61792   0.76262   0.00000  Uiso   1.00
C1306  C     0.83312   0.50000   0.74031   0.00000  Uiso   1.00
C1307  C     0.83355   0.50000   0.92636   0.00000  Uiso   1.00
C1308  C     0.83326   0.50000   0.68853   0.00000  Uiso   1.00
C1309  C     0.83341   0.50000   0.97813   0.00000  Uiso   1.00
C1310  C     0.68781   0.45762   0.84064   0.00000  Uiso   1.00
C1311  C     0.97885   0.54238   0.82603   0.00000  Uiso   1.00
C1312  C     0.97886   0.45762   0.82608   0.00000  Uiso   1.00
Cu1313 Cu    0.83333   0.54689   0.83333   0.00000  Uiso   1.00
Cu1314 Cu    0.83333   0.45311   0.83333   0.00000  Uiso   1.00
H1315  H     0.70179   0.38186   0.83540   0.00000  Uiso   1.00
H1316  H     0.88201   0.62666   0.94180   0.00000  Uiso   1.00
H1317  H     0.89085   0.41938   0.90252   0.00000  Uiso   1.00
H1318  H     0.88195   0.37336   0.94181   0.00000  Uiso   1.00
H1319  H     0.92161   0.37129   0.89953   0.00000  Uiso   1.00
H1320  H     0.77581   0.58062   0.76415   0.00000  Uiso   1.00
H1321  H     0.74506   0.62871   0.76714   0.00000  Uiso   1.00
H1322  H     0.78472   0.62664   0.72486   0.00000  Uiso   1.00
H1323  H     0.96488   0.61814   0.83127   0.00000  Uiso   1.00
H1324  H     0.96490   0.38186   0.83141   0.00000  Uiso   1.00
H1325  H     0.70176   0.61814   0.83525   0.00000  Uiso   1.00
H1326  H     0.77582   0.41939   0.76414   0.00000  Uiso   1.00
H1327  H     0.78466   0.37334   0.72487   0.00000  Uiso   1.00
H1328  H     0.74505   0.37133   0.76720   0.00000  Uiso   1.00
H1329  H     0.89085   0.58061   0.90253   0.00000  Uiso   1.00
H1330  H     0.92162   0.62867   0.89946   0.00000  Uiso   1.00
N1331  N     0.83333   0.61736   0.83333   0.00000  Uiso   1.00
N1332  N     0.83333   0.38264   0.83333   0.00000  Uiso   1.00
O1333  O     0.77321   0.53958   0.83333   0.00000  Uiso   1.00
O1334  O     0.93565   0.58874   0.77228   0.00000  Uiso   1.00
O1335  O     0.93569   0.41120   0.77238   0.00000  Uiso   1.00
O1336  O     0.73098   0.58880   0.89429   0.00000  Uiso   1.00
O1337  O     0.89345   0.46042   0.83334   0.00000  Uiso   1.00
O1338  O     0.89345   0.53958   0.83334   0.00000  Uiso   1.00
O1339  O     0.77321   0.46042   0.83333   0.00000  Uiso   1.00
O1340  O     0.83333   0.53959   0.76280   0.00000  Uiso   1.00
O1341  O     0.83333   0.46041   0.90387   0.00000  Uiso   1.00
O1342  O     0.83333   0.53959   0.90387   0.00000  Uiso   1.00
O1343  O     0.83333   0.46041   0.76280   0.00000  Uiso   1.00
O1344  O     0.73101   0.41126   0.89438   0.00000  Uiso   1.00
C1345  C     0.08782   0.83333   0.83771   0.00000  Uiso   1.00
C1346  C     0.02114   0.87572   0.84059   0.00000  Uiso   1.00
C1347  C     0.29033   0.83333   0.82404   0.00000  Uiso   1.00
C1348  C     0.04301   0.83334   0.84263   0.00000  Uiso   1.00
C1349  C     0.14024   0.69141   0.80047   0.00000  Uiso   1.00
C1350  C     0.19310   0.97525   0.86619   0.00000  Uiso   1.00
C1351  C     0.19310   0.69141   0.86619   0.00000  Uiso   1.00
C1352  C     0.14024   0.97526   0.80047   0.00000  Uiso   1.00
C1353  C     0.04141   0.74659   0.85641   0.00000  Uiso   1.00
C1354  C     0.29193   0.92008   0.81025   0.00000  Uiso   1.00
C1355  C     0.29195   0.74656   0.81035   0.00000  Uiso   1.00
C1356  C     0.24551   0.83333   0.82896   0.00000  Uiso   1.00
C1357  C     0.04138   0.92010   0.85631   0.00000  Uiso   1.00
C1358  C     0.11036   0.71542   0.76264   0.00000  Uiso   1.00
C1359  C     0.22298   0.95125   0.90403   0.00000  Uiso   1.00
C1360  C     0.22296   0.71541   0.90404   0.00000  Uiso   1.00
C1361  C     0.11038   0.95125   0.76262   0.00000  Uiso   1.00
C1362  C     0.16645   0.83333   0.74031   0.00000  Uiso   1.00
C1363  C     0.16688   0.83333   0.92636   0.00000  Uiso   1.00
C1364  C     0.16659   0.83333   0.68853   0.00000  Uiso   1.00
C1365  C     0.16674   0.83333   0.97813   0.00000  Uiso   1.00
C1366  C     0.02115   0.79096   0.84064   0.00000  Uiso   1.00
C1367  C     0.31219   0.87571   0.82603   0.00000  Uiso   1.00
C1368  C     0.31220   0.79095   0.82608   0.00000  Uiso   1.00
Cu1369 Cu    0.16667   0.88022   0.83333   0.00000  Uiso   1.00
Cu1370 Cu    0.16667   0.78645   0.83333   0.00000  Uiso   1.00
H1371  H     0.03512   0.71519   0.83540   0.00000  Uiso   1.00
H1372  H     0.21534   0.96000   0.94180   0.00000  Uiso   1.00
H1373  H     0.22419   0.75272   0.90252   0.00000  Uiso   1.00
H1374  H     0.21529   0.70669   0.94181   0.00000  Uiso   1.00
H1375  H     0.25494   0.70462   0.89953   0.00000  Uiso   1.00
H1376  H     0.10915   0.91395   0.76415   0.00000  Uiso   1.00
H1377  H     0.07839   0.96204   0.76714   0.00000  Uiso   1.00
H1378  H     0.11805   0.95998   0.72486   0.00000  Uiso   1.00
H1379  H     0.29821   0.95148   0.83127   0.00000  Uiso   1.00
H1380  H     0.29824   0.71519   0.83141   0.00000  Uiso   1.00
H1381  H     0.03510   0.95148   0.83525   0.00000  Uiso   1.00
H1382  H     0.10915   0.75273   0.76414   0.00000  Uiso   1.00
H1383  H     0.11799   0.70667   0.72487   0.00000  Uiso   1.00
H1384  H     0.07838   0.70466   0.76720   0.00000  Uiso   1.00
H1385  H     0.22418   0.91394   0.90253   0.00000  Uiso   1.00
H1386  H     0.25495   0.96201   0.89946   0.00000  Uiso   1.00
N1387  N     0.16667   0.95069   0.83333   0.00000  Uiso   1.00
N1388  N     0.16667   0.71598   0.83333   0.00000  Uiso   1.00
O1389  O     0.10655   0.87291   0.83333   0.00000  Uiso   1.00
O1390  O     0.26899   0.92207   0.77228   0.00000  Uiso   1.00
O1391  O     0.26902   0.74453   0.77238   0.00000  Uiso   1.00
O1392  O     0.06431   0.92214   0.89429   0.00000  Uiso   1.00
O1393  O     0.22679   0.79375   0.83334   0.00000  Uiso   1.00
O1394  O     0.22679   0.87291   0.83334   0.00000  Uiso   1.00
O1395  O     0.10655   0.79375   0.83333   0.00000  Uiso   1.00
O1396  O     0.16667   0.87292   0.76280   0.00000  Uiso   1.00
O1397  O     0.16667   0.79375   0.90387   0.00000  Uiso   1.00
O1398  O     0.16667   0.87292   0.90387   0.00000  Uiso   1.00
O1399  O     0.16667   0.79375   0.76280   0.00000  Uiso   1.00
O1400  O     0.06435   0.74459   0.89438   0.00000  Uiso   1.00
C1401  C     0.42116   0.83333   0.83771   0.00000  Uiso   1.00
C1402  C     0.35447   0.87572   0.84059   0.00000  Uiso   1.00
C1403  C     0.62366   0.83333   0.82404   0.00000  Uiso   1.00
C1404  C     0.37634   0.83334   0.84263   0.00000  Uiso   1.00
C1405  C     0.47357   0.69141   0.80047   0.00000  Uiso   1.00
C1406  C     0.52643   0.97525   0.86619   0.00000  Uiso   1.00
C1407  C     0.52643   0.69141   0.86619   0.00000  Uiso   1.00
C1408  C     0.47357   0.97526   0.80047   0.00000  Uiso   1.00
C1409  C     0.37474   0.74659   0.85641   0.00000  Uiso   1.00
C1410  C     0.62526   0.92008   0.81025   0.00000  Uiso   1.00
C1411  C     0.62528   0.74656   0.81035   0.00000  Uiso   1.00
C1412  C     0.57884   0.83333   0.82896   0.00000  Uiso   1.00
C1413  C     0.37472   0.92010   0.85631   0.00000  Uiso   1.00
C1414  C     0.44369   0.71542   0.76264   0.00000  Uiso   1.00
C1415  C     0.55631   0.95125   0.90403   0.00000  Uiso   1.00
C1416  C     0.55629   0.71541   0.90404   0.00000  Uiso   1.00
C1417  C     0.44371   0.95125   0.76262   0.00000  Uiso   1.00
C1418  C     0.49979   0.83333   0.74031   0.00000  Uiso   1.00
C1419  C     0.50021   0.83333   0.92636   0.00000  Uiso   1.00
C1420  C     0.49992   0.83333   0.68853   0.00000  Uiso   1.00
C1421  C     0.50008   0.83333   0.97813   0.00000  Uiso   1.00
C1422  C     0.35448   0.79096   0.84064   0.00000  Uiso   1.00
C1423  C     0.64552   0.87571   0.82603   0.00000  Uiso   1.00
C1424  C     0.64553   0.79095   0.82608   0.00000  Uiso   1.00
Cu1425 Cu    0.50000   0.88022   0.83333   0.00000  Uiso   1.00
Cu1426 Cu    0.50000   0.78645   0.83333   0.00000  Uiso   1.00
H1427  H     0.36845   0.71519   0.83540   0.00000  Uiso   1.00
H1428  H     0.54867   0.96000   0.94180   0.00000  Uiso   1.00
H1429  H     0.55752   0.75272   0.90252   0.00000  Uiso   1.00
H1430  H     0.54862   0.70669   0.94181   0.00000  Uiso   1.00
H1431  H     0.58827   0.70462   0.89953   0.00000  Uiso   1.00
H1432  H     0.44248   0.91395   0.76415   0.00000  Uiso   1.00
H1433  H     0.41173   0.96204   0.76714   0.00000  Uiso   1.00
H1434  H     0.45138   0.95998   0.72486   0.00000  Uiso   1.00
H1435  H     0.63154   0.95148   0.83127   0.00000  Uiso   1.00
H1436  H     0.63157   0.71519   0.83141   0.00000  Uiso   1.00
H1437  H     0.36843   0.95148   0.83525   0.00000  Uiso   1.00
H1438  H     0.44248   0.75273   0.76414   0.00000  Uiso   1.00
H1439  H     0.45133   0.70667   0.72487   0.00000  Uiso   1.00
H1440  H     0.41171   0.70466   0.76720   0.00000  Uiso   1.00
H1441  H     0.55752   0.91394   0.90253   0.00000  Uiso   1.00
H1442  H     0.58829   0.96201   0.89946   0.00000  Uiso   1.00
N1443  N     0.50000   0.95069   0.83333   0.00000  Uiso   1.00
N1444  N     0.50000   0.71598   0.83333   0.00000  Uiso   1.00
O1445  O     0.43988   0.87291   0.83333   0.00000  Uiso   1.00
O1446  O     0.60232   0.92207   0.77228   0.00000  Uiso   1.00
O1447  O     0.60235   0.74453   0.77238   0.00000  Uiso   1.00
O1448  O     0.39765   0.92214   0.89429   0.00000  Uiso   1.00
O1449  O     0.56012   0.79375   0.83334   0.00000  Uiso   1.00
O1450  O     0.56012   0.87291   0.83334   0.00000  Uiso   1.00
O1451  O     0.43988   0.79375   0.83333   0.00000  Uiso   1.00
O1452  O     0.50000   0.87292   0.76280   0.00000  Uiso   1.00
O1453  O     0.50000   0.79375   0.90387   0.00000  Uiso   1.00
O1454  O     0.50000   0.87292   0.90387   0.00000  Uiso   1.00
O1455  O     0.50000   0.79375   0.76280   0.00000  Uiso   1.00
O1456  O     0.39768   0.74459   0.89438   0.00000  Uiso   1.00
C1457  C     0.75449   0.83333   0.83771   0.00000  Uiso   1.00
C1458  C     0.68780   0.87572   0.84059   0.00000  Uiso   1.00
C1459  C     0.95700   0.83333   0.82404   0.00000  Uiso   1.00
C1460  C     0.70967   0.83334   0.84263   0.00000  Uiso   1.00
C1461  C     0.80690   0.69141   0.80047   0.00000  Uiso   1.00
C1462  C     0.85976   0.97525   0.86619   0.00000  Uiso   1.00
C1463  C     0.85976   0.69141   0.86619   0.00000  Uiso   1.00
C1464  C     0.80691   0.97526   0.80047   0.00000  Uiso   1.00
C1465  C     0.70807   0.74659   0.85641   0.00000  Uiso   1.00
C1466  C     0.95859   0.92008   0.81025   0.00000  Uiso   1.00
C1467  C     0.95862   0.74656   0.81035   0.00000  Uiso   1.00
C1468  C     0.91218   0.83333   0.82896   0.00000  Uiso   1.00
C1469  C     0.70805   0.92010   0.85631   0.00000  Uiso   1.00
C1470  C     0.77702   0.71542   0.76264   0.00000  Uiso   1.00
C1471  C     0.88964   0.95125   0.90403   0.00000  Uiso   1.00
C1472  C     0.88962   0.71541   0.90404   0.00000  Uiso   1.00
C1473  C     0.77704   0.95125   0.76262   0.00000  Uiso   1.00
C1474  C     0.83312   0.83333   0.74031   0.00000  Uiso   1.00
C1475  C     0.83355   0.83333   0.92636   0.00000  Uiso   1.00
C1476  C     0.83326   0.83333   0.68853   0.00000  Uiso   1.00
C1477  C     0.83341   0.83333   0.97813   0.00000  Uiso   1.00
C1478  C     0.68781   0.79096   0.84064   0.00000  Uiso   1.00
C1479  C     0.97885   0.87571   0.82603   0.00000  Uiso   1.00
C1480  C     0.97886   0.79095   0.82608   0.00000  Uiso   1.00
Cu1481 Cu    0.83333   0.88022   0.83333   0.00000  Uiso   1.00
Cu1482 Cu    0.83333   0.78645   0.83333   0.00000  Uiso   1.00
H1483  H     0.70179   0.71519   0.83540   0.00000  Uiso   1.00
H1484  H     0.88201   0.96000   0.94180   0.00000  Uiso   1.00
H1485  H     0.89085   0.75272   0.90252   0.00000  Uiso   1.00
H1486  H     0.88195   0.70669   0.94181   0.00000  Uiso   1.00
H1487  H     0.92161   0.70462   0.89953   0.00000  Uiso   1.00
H1488  H     0.77581   0.91395   0.76415   0.00000  Uiso   1.00
H1489  H     0.74506   0.96204   0.76714   0.00000  Uiso   1.00
H1490  H     0.78472   0.95998   0.72486   0.00000  Uiso   1.00
H1491  H     0.96488   0.95148   0.83127   0.00000  Uiso   1.00
H1492  H     0.96490   0.71519   0.83141   0.00000  Uiso   1.00
H1493  H     0.70176   0.95148   0.83525   0.00000  Uiso   1.00
H1494  H     0.77582   0.75273   0.76414   0.00000  Uiso   1.00
H1495  H     0.78466   0.70667   0.72487   0.00000  Uiso   1.00
H1496  H     0.74505   0.70466   0.76720   0.00000  Uiso   1.00
H1497  H     0.89085   0.91394   0.90253   0.00000  Uiso   1.00
H1498  H     0.92162   0.96201   0.89946   0.00000  Uiso   1.00
N1499  N     0.83333   0.95069   0.83333   0.00000  Uiso   1.00
N1500  N     0.83333   0.71598   0.83333   0.00000  Uiso   1.00
O1501  O     0.77321   0.87291   0.83333   0.00000  Uiso   1.00
O1502  O     0.93565   0.92207   0.77228   0.00000  Uiso   1.00
O1503  O     0.93569   0.74453   0.77238   0.00000  Uiso   1.00
O1504  O     0.73098   0.92214   0.89429   0.00000  Uiso   1.00
O1505  O     0.89345   0.79375   0.83334   0.00000  Uiso   1.00
O1506  O     0.89345   0.87291   0.83334   0.00000  Uiso   1.00
O1507  O     0.77321   0.79375   0.83333   0.00000  Uiso   1.00
O1508  O     0.83333   0.87292   0.76280   0.00000  Uiso   1.00
O1509  O     0.83333   0.79375   0.90387   0.00000  Uiso   1.00
O1510  O     0.83333   0.87292   0.90387   0.00000  Uiso   1.00
O1511  O     0.83333   0.79375   0.76280   0.00000  Uiso   1.00
O1512  O     0.73101   0.74459   0.89438   0.00000  Uiso   1.00
loop_
_geom_bond_atom_site_label_1
_geom_bond_atom_site_label_2
_geom_bond_distance
_geom_bond_site_symmetry_2
_ccdc_geom_bond_type
C1     C4      1.482   .     S
C1     O51     1.310   .     A
C1     O45     1.310   .     A
C2     C4      1.419   .     A
C2     C13     1.491   .     S
C2     C135    1.401   1_455 S
C3     C24     1.419   .     A
C3     C23     1.419   .     A
C3     C12     1.482   .     S
C4     C22     1.419   .     A
C5     C14     1.521   .     S
C5     N44     1.382   .     A
C5     C344    1.433   1_545 S
C6     N43     1.382   .     A
C6     C15     1.521   .     S
C6     C175    1.433   .     S
C7     C16     1.521   .     S
C7     N44     1.382   .     A
C7     C342    1.433   1_545 S
C8     C17     1.521   .     S
C8     N43     1.382   .     A
C8     C173    1.433   .     S
C9     O56     1.221   .     D
C9     H27     1.084   .     S
C9     C22     1.491   .     S
C10    O46     1.221   .     D
C10    C23     1.491   .     S
C10    H35     1.084   .     S
C11    O47     1.221   .     D
C11    C24     1.491   .     S
C11    H36     1.084   .     S
C12    O49     1.310   .     A
C12    O50     1.310   .     A
C13    O48     1.221   .     D
C13    H37     1.084   .     S
C14    H39     1.110   .     S
C14    H38     1.082   .     S
C14    H40     1.108   .     S
C15    H28     1.110   .     S
C15    H41     1.082   .     S
C15    H42     1.108   .     S
C16    H31     1.108   .     S
C16    H30     1.110   .     S
C16    H29     1.082   .     S
C17    H33     1.108   .     S
C17    H34     1.110   .     S
C17    H32     1.082   .     S
C18    O55     1.300   .     A
C18    C20     1.411   .     S
C18    O52     1.300   .     A
C19    O53     1.300   .     A
C19    O54     1.300   .     A
C19    C21     1.411   .     S
C20    C1029   1.191   1_554 S
C21    C524    1.191   .     S
C22    C136    1.401   1_455 S
C23    C58     1.401   .     S
C24    C78     1.401   .     S
Cu25   O52     1.933   .     S
Cu25   N43     2.041   .     S
Cu25   O45     1.974   .     S
Cu25   O54     1.933   .     S
Cu25   Cu26    2.716   .     S
Cu25   O50     1.974   .     S
Cu26   O55     1.933   .     S
Cu26   N44     2.041   .     S
Cu26   O51     1.974   .     S
Cu26   O53     1.933   .     S
Cu26   O49     1.974   .     S
C57    C60     1.482   .     S
C57    O107    1.310   .     A
C57    O101    1.310   .     A
C58    C60     1.419   .     A
C58    C69     1.491   .     S
C59    C80     1.419   .     A
C59    C79     1.419   .     A
C59    C68     1.482   .     S
C60    C78     1.419   .     A
C61    C70     1.521   .     S
C61    N100    1.382   .     A
C61    C400    1.433   1_545 S
C62    N99     1.382   .     A
C62    C71     1.521   .     S
C62    C231    1.433   .     S
C63    C72     1.521   .     S
C63    N100    1.382   .     A
C63    C398    1.433   1_545 S
C64    C73     1.521   .     S
C64    N99     1.382   .     A
C64    C229    1.433   .     S
C65    O112    1.221   .     D
C65    H83     1.084   .     S
C65    C78     1.491   .     S
C66    O102    1.221   .     D
C66    C79     1.491   .     S
C66    H91     1.084   .     S
C67    O103    1.221   .     D
C67    C80     1.491   .     S
C67    H92     1.084   .     S
C68    O105    1.310   .     A
C68    O106    1.310   .     A
C69    O104    1.221   .     D
C69    H93     1.084   .     S
C70    H95     1.110   .     S
C70    H94     1.082   .     S
C70    H96     1.108   .     S
C71    H84     1.110   .     S
C71    H97     1.082   .     S
C71    H98     1.108   .     S
C72    H87     1.108   .     S
C72    H86     1.110   .     S
C72    H85     1.082   .     S
C73    H89     1.108   .     S
C73    H90     1.110   .     S
C73    H88     1.082   .     S
C74    O111    1.300   .     A
C74    C76     1.411   .     S
C74    O108    1.300   .     A
C75    O109    1.300   .     A
C75    O110    1.300   .     A
C75    C77     1.411   .     S
C76    C1085   1.191   1_554 S
C77    C580    1.191   .     S
C79    C114    1.401   .     S
C80    C134    1.401   .     S
Cu81   O108    1.933   .     S
Cu81   N99     2.041   .     S
Cu81   O101    1.974   .     S
Cu81   O110    1.933   .     S
Cu81   Cu82    2.716   .     S
Cu81   O106    1.974   .     S
Cu82   O111    1.933   .     S
Cu82   N100    2.041   .     S
Cu82   O107    1.974   .     S
Cu82   O109    1.933   .     S
Cu82   O105    1.974   .     S
C113   C116    1.482   .     S
C113   O163    1.310   .     A
C113   O157    1.310   .     A
C114   C116    1.419   .     A
C114   C125    1.491   .     S
C115   C136    1.419   .     A
C115   C135    1.419   .     A
C115   C124    1.482   .     S
C116   C134    1.419   .     A
C117   C126    1.521   .     S
C117   N156    1.382   .     A
C117   C456    1.433   1_545 S
C118   N155    1.382   .     A
C118   C127    1.521   .     S
C118   C287    1.433   .     S
C119   C128    1.521   .     S
C119   N156    1.382   .     A
C119   C454    1.433   1_545 S
C120   C129    1.521   .     S
C120   N155    1.382   .     A
C120   C285    1.433   .     S
C121   O168    1.221   .     D
C121   H139    1.084   .     S
C121   C134    1.491   .     S
C122   O158    1.221   .     D
C122   C135    1.491   .     S
C122   H147    1.084   .     S
C123   O159    1.221   .     D
C123   C136    1.491   .     S
C123   H148    1.084   .     S
C124   O161    1.310   .     A
C124   O162    1.310   .     A
C125   O160    1.221   .     D
C125   H149    1.084   .     S
C126   H151    1.110   .     S
C126   H150    1.082   .     S
C126   H152    1.108   .     S
C127   H140    1.110   .     S
C127   H153    1.082   .     S
C127   H154    1.108   .     S
C128   H143    1.108   .     S
C128   H142    1.110   .     S
C128   H141    1.082   .     S
C129   H145    1.108   .     S
C129   H146    1.110   .     S
C129   H144    1.082   .     S
C130   O167    1.300   .     A
C130   C132    1.411   .     S
C130   O164    1.300   .     A
C131   O165    1.300   .     A
C131   O166    1.300   .     A
C131   C133    1.411   .     S
C132   C1141   1.191   1_554 S
C133   C636    1.191   .     S
C135   C2      1.401   1_655 S
C136   C22     1.401   1_655 S
Cu137  O164    1.933   .     S
Cu137  N155    2.041   .     S
Cu137  O157    1.974   .     S
Cu137  O166    1.933   .     S
Cu137  Cu138   2.716   .     S
Cu137  O162    1.974   .     S
Cu138  O167    1.933   .     S
Cu138  N156    2.041   .     S
Cu138  O163    1.974   .     S
Cu138  O165    1.933   .     S
Cu138  O161    1.974   .     S
C169   C172    1.482   .     S
C169   O219    1.310   .     A
C169   O213    1.310   .     A
C170   C172    1.419   .     A
C170   C181    1.491   .     S
C170   C303    1.401   1_455 S
C171   C192    1.419   .     A
C171   C191    1.419   .     A
C171   C180    1.482   .     S
C172   C190    1.419   .     A
C173   C182    1.521   .     S
C173   N212    1.382   .     A
C174   N211    1.382   .     A
C174   C183    1.521   .     S
C174   C343    1.433   .     S
C175   C184    1.521   .     S
C175   N212    1.382   .     A
C176   C185    1.521   .     S
C176   N211    1.382   .     A
C176   C341    1.433   .     S
C177   O224    1.221   .     D
C177   H195    1.084   .     S
C177   C190    1.491   .     S
C178   O214    1.221   .     D
C178   C191    1.491   .     S
C178   H203    1.084   .     S
C179   O215    1.221   .     D
C179   C192    1.491   .     S
C179   H204    1.084   .     S
C180   O217    1.310   .     A
C180   O218    1.310   .     A
C181   O216    1.221   .     D
C181   H205    1.084   .     S
C182   H207    1.110   .     S
C182   H206    1.082   .     S
C182   H208    1.108   .     S
C183   H196    1.110   .     S
C183   H209    1.082   .     S
C183   H210    1.108   .     S
C184   H199    1.108   .     S
C184   H198    1.110   .     S
C184   H197    1.082   .     S
C185   H201    1.108   .     S
C185   H202    1.110   .     S
C185   H200    1.082   .     S
C186   O223    1.300   .     A
C186   C188    1.411   .     S
C186   O220    1.300   .     A
C187   O221    1.300   .     A
C187   O222    1.300   .     A
C187   C189    1.411   .     S
C188   C1197   1.191   1_554 S
C189   C692    1.191   .     S
C190   C304    1.401   1_455 S
C191   C226    1.401   .     S
C192   C246    1.401   .     S
Cu193  O220    1.933   .     S
Cu193  N211    2.041   .     S
Cu193  O213    1.974   .     S
Cu193  O222    1.933   .     S
Cu193  Cu194   2.716   .     S
Cu193  O218    1.974   .     S
Cu194  O223    1.933   .     S
Cu194  N212    2.041   .     S
Cu194  O219    1.974   .     S
Cu194  O221    1.933   .     S
Cu194  O217    1.974   .     S
C225   C228    1.482   .     S
C225   O275    1.310   .     A
C225   O269    1.310   .     A
C226   C228    1.419   .     A
C226   C237    1.491   .     S
C227   C248    1.419   .     A
C227   C247    1.419   .     A
C227   C236    1.482   .     S
C228   C246    1.419   .     A
C229   C238    1.521   .     S
C229   N268    1.382   .     A
C230   N267    1.382   .     A
C230   C239    1.521   .     S
C230   C399    1.433   .     S
C231   C240    1.521   .     S
C231   N268    1.382   .     A
C232   C241    1.521   .     S
C232   N267    1.382   .     A
C232   C397    1.433   .     S
C233   O280    1.221   .     D
C233   H251    1.084   .     S
C233   C246    1.491   .     S
C234   O270    1.221   .     D
C234   C247    1.491   .     S
C234   H259    1.084   .     S
C235   O271    1.221   .     D
C235   C248    1.491   .     S
C235   H260    1.084   .     S
C236   O273    1.310   .     A
C236   O274    1.310   .     A
C237   O272    1.221   .     D
C237   H261    1.084   .     S
C238   H263    1.110   .     S
C238   H262    1.082   .     S
C238   H264    1.108   .     S
C239   H252    1.110   .     S
C239   H265    1.082   .     S
C239   H266    1.108   .     S
C240   H255    1.108   .     S
C240   H254    1.110   .     S
C240   H253    1.082   .     S
C241   H257    1.108   .     S
C241   H258    1.110   .     S
C241   H256    1.082   .     S
C242   O279    1.300   .     A
C242   C244    1.411   .     S
C242   O276    1.300   .     A
C243   O277    1.300   .     A
C243   O278    1.300   .     A
C243   C245    1.411   .     S
C244   C1253   1.191   1_554 S
C245   C748    1.191   .     S
C247   C282    1.401   .     S
C248   C302    1.401   .     S
Cu249  O276    1.933   .     S
Cu249  N267    2.041   .     S
Cu249  O269    1.974   .     S
Cu249  O278    1.933   .     S
Cu249  Cu250   2.716   .     S
Cu249  O274    1.974   .     S
Cu250  O279    1.933   .     S
Cu250  N268    2.041   .     S
Cu250  O275    1.974   .     S
Cu250  O277    1.933   .     S
Cu250  O273    1.974   .     S
C281   C284    1.482   .     S
C281   O331    1.310   .     A
C281   O325    1.310   .     A
C282   C284    1.419   .     A
C282   C293    1.491   .     S
C283   C304    1.419   .     A
C283   C303    1.419   .     A
C283   C292    1.482   .     S
C284   C302    1.419   .     A
C285   C294    1.521   .     S
C285   N324    1.382   .     A
C286   N323    1.382   .     A
C286   C295    1.521   .     S
C286   C455    1.433   .     S
C287   C296    1.521   .     S
C287   N324    1.382   .     A
C288   C297    1.521   .     S
C288   N323    1.382   .     A
C288   C453    1.433   .     S
C289   O336    1.221   .     D
C289   H307    1.084   .     S
C289   C302    1.491   .     S
C290   O326    1.221   .     D
C290   C303    1.491   .     S
C290   H315    1.084   .     S
C291   O327    1.221   .     D
C291   C304    1.491   .     S
C291   H316    1.084   .     S
C292   O329    1.310   .     A
C292   O330    1.310   .     A
C293   O328    1.221   .     D
C293   H317    1.084   .     S
C294   H319    1.110   .     S
C294   H318    1.082   .     S
C294   H320    1.108   .     S
C295   H308    1.110   .     S
C295   H321    1.082   .     S
C295   H322    1.108   .     S
C296   H311    1.108   .     S
C296   H310    1.110   .     S
C296   H309    1.082   .     S
C297   H313    1.108   .     S
C297   H314    1.110   .     S
C297   H312    1.082   .     S
C298   O335    1.300   .     A
C298   C300    1.411   .     S
C298   O332    1.300   .     A
C299   O333    1.300   .     A
C299   O334    1.300   .     A
C299   C301    1.411   .     S
C300   C1309   1.191   1_554 S
C301   C804    1.191   .     S
C303   C170    1.401   1_655 S
C304   C190    1.401   1_655 S
Cu305  O332    1.933   .     S
Cu305  N323    2.041   .     S
Cu305  O325    1.974   .     S
Cu305  O334    1.933   .     S
Cu305  Cu306   2.716   .     S
Cu305  O330    1.974   .     S
Cu306  O335    1.933   .     S
Cu306  N324    2.041   .     S
Cu306  O331    1.974   .     S
Cu306  O333    1.933   .     S
Cu306  O329    1.974   .     S
C337   C340    1.482   .     S
C337   O387    1.310   .     A
C337   O381    1.310   .     A
C338   C340    1.419   .     A
C338   C349    1.491   .     S
C338   C471    1.401   1_455 S
C339   C360    1.419   .     A
C339   C359    1.419   .     A
C339   C348    1.482   .     S
C340   C358    1.419   .     A
C341   C350    1.521   .     S
C341   N380    1.382   .     A
C342   N379    1.382   .     A
C342   C351    1.521   .     S
C342   C7      1.433   1_565 S
C343   C352    1.521   .     S
C343   N380    1.382   .     A
C344   C353    1.521   .     S
C344   N379    1.382   .     A
C344   C5      1.433   1_565 S
C345   O392    1.221   .     D
C345   H363    1.084   .     S
C345   C358    1.491   .     S
C346   O382    1.221   .     D
C346   C359    1.491   .     S
C346   H371    1.084   .     S
C347   O383    1.221   .     D
C347   C360    1.491   .     S
C347   H372    1.084   .     S
C348   O385    1.310   .     A
C348   O386    1.310   .     A
C349   O384    1.221   .     D
C349   H373    1.084   .     S
C350   H375    1.110   .     S
C350   H374    1.082   .     S
C350   H376    1.108   .     S
C351   H364    1.110   .     S
C351   H377    1.082   .     S
C351   H378    1.108   .     S
C352   H367    1.108   .     S
C352   H366    1.110   .     S
C352   H365    1.082   .     S
C353   H369    1.108   .     S
C353   H370    1.110   .     S
C353   H368    1.082   .     S
C354   O391    1.300   .     A
C354   C356    1.411   .     S
C354   O388    1.300   .     A
C355   O389    1.300   .     A
C355   O390    1.300   .     A
C355   C357    1.411   .     S
C356   C1365   1.191   1_554 S
C357   C860    1.191   .     S
C358   C472    1.401   1_455 S
C359   C394    1.401   .     S
C360   C414    1.401   .     S
Cu361  O388    1.933   .     S
Cu361  N379    2.041   .     S
Cu361  O381    1.974   .     S
Cu361  O390    1.933   .     S
Cu361  Cu362   2.716   .     S
Cu361  O386    1.974   .     S
Cu362  O391    1.933   .     S
Cu362  N380    2.041   .     S
Cu362  O387    1.974   .     S
Cu362  O389    1.933   .     S
Cu362  O385    1.974   .     S
C393   C396    1.482   .     S
C393   O443    1.310   .     A
C393   O437    1.310   .     A
C394   C396    1.419   .     A
C394   C405    1.491   .     S
C395   C416    1.419   .     A
C395   C415    1.419   .     A
C395   C404    1.482   .     S
C396   C414    1.419   .     A
C397   C406    1.521   .     S
C397   N436    1.382   .     A
C398   N435    1.382   .     A
C398   C407    1.521   .     S
C398   C63     1.433   1_565 S
C399   C408    1.521   .     S
C399   N436    1.382   .     A
C400   C409    1.521   .     S
C400   N435    1.382   .     A
C400   C61     1.433   1_565 S
C401   O448    1.221   .     D
C401   H419    1.084   .     S
C401   C414    1.491   .     S
C402   O438    1.221   .     D
C402   C415    1.491   .     S
C402   H427    1.084   .     S
C403   O439    1.221   .     D
C403   C416    1.491   .     S
C403   H428    1.084   .     S
C404   O441    1.310   .     A
C404   O442    1.310   .     A
C405   O440    1.221   .     D
C405   H429    1.084   .     S
C406   H431    1.110   .     S
C406   H430    1.082   .     S
C406   H432    1.108   .     S
C407   H420    1.110   .     S
C407   H433    1.082   .     S
C407   H434    1.108   .     S
C408   H423    1.108   .     S
C408   H422    1.110   .     S
C408   H421    1.082   .     S
C409   H425    1.108   .     S
C409   H426    1.110   .     S
C409   H424    1.082   .     S
C410   O447    1.300   .     A
C410   C412    1.411   .     S
C410   O444    1.300   .     A
C411   O445    1.300   .     A
C411   O446    1.300   .     A
C411   C413    1.411   .     S
C412   C1421   1.191   1_554 S
C413   C916    1.191   .     S
C415   C450    1.401   .     S
C416   C470    1.401   .     S
Cu417  O444    1.933   .     S
Cu417  N435    2.041   .     S
Cu417  O437    1.974   .     S
Cu417  O446    1.933   .     S
Cu417  Cu418   2.716   .     S
Cu417  O442    1.974   .     S
Cu418  O447    1.933   .     S
Cu418  N436    2.041   .     S
Cu418  O443    1.974   .     S
Cu418  O445    1.933   .     S
Cu418  O441    1.974   .     S
C449   C452    1.482   .     S
C449   O499    1.310   .     A
C449   O493    1.310   .     A
C450   C452    1.419   .     A
C450   C461    1.491   .     S
C451   C472    1.419   .     A
C451   C471    1.419   .     A
C451   C460    1.482   .     S
C452   C470    1.419   .     A
C453   C462    1.521   .     S
C453   N492    1.382   .     A
C454   N491    1.382   .     A
C454   C463    1.521   .     S
C454   C119    1.433   1_565 S
C455   C464    1.521   .     S
C455   N492    1.382   .     A
C456   C465    1.521   .     S
C456   N491    1.382   .     A
C456   C117    1.433   1_565 S
C457   O504    1.221   .     D
C457   H475    1.084   .     S
C457   C470    1.491   .     S
C458   O494    1.221   .     D
C458   C471    1.491   .     S
C458   H483    1.084   .     S
C459   O495    1.221   .     D
C459   C472    1.491   .     S
C459   H484    1.084   .     S
C460   O497    1.310   .     A
C460   O498    1.310   .     A
C461   O496    1.221   .     D
C461   H485    1.084   .     S
C462   H487    1.110   .     S
C462   H486    1.082   .     S
C462   H488    1.108   .     S
C463   H476    1.110   .     S
C463   H489    1.082   .     S
C463   H490    1.108   .     S
C464   H479    1.108   .     S
C464   H478    1.110   .     S
C464   H477    1.082   .     S
C465   H481    1.108   .     S
C465   H482    1.110   .     S
C465   H480    1.082   .     S
C466   O503    1.300   .     A
C466   C468    1.411   .     S
C466   O500    1.300   .     A
C467   O501    1.300   .     A
C467   O502    1.300   .     A
C467   C469    1.411   .     S
C468   C1477   1.191   1_554 S
C469   C972    1.191   .     S
C471   C338    1.401   1_655 S
C472   C358    1.401   1_655 S
Cu473  O500    1.933   .     S
Cu473  N491    2.041   .     S
Cu473  O493    1.974   .     S
Cu473  O502    1.933   .     S
Cu473  Cu474   2.716   .     S
Cu473  O498    1.974   .     S
Cu474  O503    1.933   .     S
Cu474  N492    2.041   .     S
Cu474  O499    1.974   .     S
Cu474  O501    1.933   .     S
Cu474  O497    1.974   .     S
C505   C508    1.482   .     S
C505   O555    1.310   .     A
C505   O549    1.310   .     A
C506   C508    1.419   .     A
C506   C517    1.491   .     S
C506   C639    1.401   1_455 S
C507   C528    1.419   .     A
C507   C527    1.419   .     A
C507   C516    1.482   .     S
C508   C526    1.419   .     A
C509   C518    1.521   .     S
C509   N548    1.382   .     A
C509   C848    1.433   1_545 S
C510   N547    1.382   .     A
C510   C519    1.521   .     S
C510   C679    1.433   .     S
C511   C520    1.521   .     S
C511   N548    1.382   .     A
C511   C846    1.433   1_545 S
C512   C521    1.521   .     S
C512   N547    1.382   .     A
C512   C677    1.433   .     S
C513   O560    1.221   .     D
C513   H531    1.084   .     S
C513   C526    1.491   .     S
C514   O550    1.221   .     D
C514   C527    1.491   .     S
C514   H539    1.084   .     S
C515   O551    1.221   .     D
C515   C528    1.491   .     S
C515   H540    1.084   .     S
C516   O553    1.310   .     A
C516   O554    1.310   .     A
C517   O552    1.221   .     D
C517   H541    1.084   .     S
C518   H543    1.110   .     S
C518   H542    1.082   .     S
C518   H544    1.108   .     S
C519   H532    1.110   .     S
C519   H545    1.082   .     S
C519   H546    1.108   .     S
C520   H535    1.108   .     S
C520   H534    1.110   .     S
C520   H533    1.082   .     S
C521   H537    1.108   .     S
C521   H538    1.110   .     S
C521   H536    1.082   .     S
C522   O559    1.300   .     A
C522   C524    1.411   .     S
C522   O556    1.300   .     A
C523   O557    1.300   .     A
C523   O558    1.300   .     A
C523   C525    1.411   .     S
C525   C1028   1.191   .     S
C526   C640    1.401   1_455 S
C527   C562    1.401   .     S
C528   C582    1.401   .     S
Cu529  O556    1.933   .     S
Cu529  N547    2.041   .     S
Cu529  O549    1.974   .     S
Cu529  O558    1.933   .     S
Cu529  Cu530   2.716   .     S
Cu529  O554    1.974   .     S
Cu530  O559    1.933   .     S
Cu530  N548    2.041   .     S
Cu530  O555    1.974   .     S
Cu530  O557    1.933   .     S
Cu530  O553    1.974   .     S
C561   C564    1.482   .     S
C561   O611    1.310   .     A
C561   O605    1.310   .     A
C562   C564    1.419   .     A
C562   C573    1.491   .     S
C563   C584    1.419   .     A
C563   C583    1.419   .     A
C563   C572    1.482   .     S
C564   C582    1.419   .     A
C565   C574    1.521   .     S
C565   N604    1.382   .     A
C565   C904    1.433   1_545 S
C566   N603    1.382   .     A
C566   C575    1.521   .     S
C566   C735    1.433   .     S
C567   C576    1.521   .     S
C567   N604    1.382   .     A
C567   C902    1.433   1_545 S
C568   C577    1.521   .     S
C568   N603    1.382   .     A
C568   C733    1.433   .     S
C569   O616    1.221   .     D
C569   H587    1.084   .     S
C569   C582    1.491   .     S
C570   O606    1.221   .     D
C570   C583    1.491   .     S
C570   H595    1.084   .     S
C571   O607    1.221   .     D
C571   C584    1.491   .     S
C571   H596    1.084   .     S
C572   O609    1.310   .     A
C572   O610    1.310   .     A
C573   O608    1.221   .     D
C573   H597    1.084   .     S
C574   H599    1.110   .     S
C574   H598    1.082   .     S
C574   H600    1.108   .     S
C575   H588    1.110   .     S
C575   H601    1.082   .     S
C575   H602    1.108   .     S
C576   H591    1.108   .     S
C576   H590    1.110   .     S
C576   H589    1.082   .     S
C577   H593    1.108   .     S
C577   H594    1.110   .     S
C577   H592    1.082   .     S
C578   O615    1.300   .     A
C578   C580    1.411   .     S
C578   O612    1.300   .     A
C579   O613    1.300   .     A
C579   O614    1.300   .     A
C579   C581    1.411   .     S
C581   C1084   1.191   .     S
C583   C618    1.401   .     S
C584   C638    1.401   .     S
Cu585  O612    1.933   .     S
Cu585  N603    2.041   .     S
Cu585  O605    1.974   .     S
Cu585  O614    1.933   .     S
Cu585  Cu586   2.716   .     S
Cu585  O610    1.974   .     S
Cu586  O615    1.933   .     S
Cu586  N604    2.041   .     S
Cu586  O611    1.974   .     S
Cu586  O613    1.933   .     S
Cu586  O609    1.974   .     S
C617   C620    1.482   .     S
C617   O667    1.310   .     A
C617   O661    1.310   .     A
C618   C620    1.419   .     A
C618   C629    1.491   .     S
C619   C640    1.419   .     A
C619   C639    1.419   .     A
C619   C628    1.482   .     S
C620   C638    1.419   .     A
C621   C630    1.521   .     S
C621   N660    1.382   .     A
C621   C960    1.433   1_545 S
C622   N659    1.382   .     A
C622   C631    1.521   .     S
C622   C791    1.433   .     S
C623   C632    1.521   .     S
C623   N660    1.382   .     A
C623   C958    1.433   1_545 S
C624   C633    1.521   .     S
C624   N659    1.382   .     A
C624   C789    1.433   .     S
C625   O672    1.221   .     D
C625   H643    1.084   .     S
C625   C638    1.491   .     S
C626   O662    1.221   .     D
C626   C639    1.491   .     S
C626   H651    1.084   .     S
C627   O663    1.221   .     D
C627   C640    1.491   .     S
C627   H652    1.084   .     S
C628   O665    1.310   .     A
C628   O666    1.310   .     A
C629   O664    1.221   .     D
C629   H653    1.084   .     S
C630   H655    1.110   .     S
C630   H654    1.082   .     S
C630   H656    1.108   .     S
C631   H644    1.110   .     S
C631   H657    1.082   .     S
C631   H658    1.108   .     S
C632   H647    1.108   .     S
C632   H646    1.110   .     S
C632   H645    1.082   .     S
C633   H649    1.108   .     S
C633   H650    1.110   .     S
C633   H648    1.082   .     S
C634   O671    1.300   .     A
C634   C636    1.411   .     S
C634   O668    1.300   .     A
C635   O669    1.300   .     A
C635   O670    1.300   .     A
C635   C637    1.411   .     S
C637   C1140   1.191   .     S
C639   C506    1.401   1_655 S
C640   C526    1.401   1_655 S
Cu641  O668    1.933   .     S
Cu641  N659    2.041   .     S
Cu641  O661    1.974   .     S
Cu641  O670    1.933   .     S
Cu641  Cu642   2.716   .     S
Cu641  O666    1.974   .     S
Cu642  O671    1.933   .     S
Cu642  N660    2.041   .     S
Cu642  O667    1.974   .     S
Cu642  O669    1.933   .     S
Cu642  O665    1.974   .     S
C673   C676    1.482   .     S
C673   O723    1.310   .     A
C673   O717    1.310   .     A
C674   C676    1.419   .     A
C674   C685    1.491   .     S
C674   C807    1.401   1_455 S
C675   C696    1.419   .     A
C675   C695    1.419   .     A
C675   C684    1.482   .     S
C676   C694    1.419   .     A
C677   C686    1.521   .     S
C677   N716    1.382   .     A
C678   N715    1.382   .     A
C678   C687    1.521   .     S
C678   C847    1.433   .     S
C679   C688    1.521   .     S
C679   N716    1.382   .     A
C680   C689    1.521   .     S
C680   N715    1.382   .     A
C680   C845    1.433   .     S
C681   O728    1.221   .     D
C681   H699    1.084   .     S
C681   C694    1.491   .     S
C682   O718    1.221   .     D
C682   C695    1.491   .     S
C682   H707    1.084   .     S
C683   O719    1.221   .     D
C683   C696    1.491   .     S
C683   H708    1.084   .     S
C684   O721    1.310   .     A
C684   O722    1.310   .     A
C685   O720    1.221   .     D
C685   H709    1.084   .     S
C686   H711    1.110   .     S
C686   H710    1.082   .     S
C686   H712    1.108   .     S
C687   H700    1.110   .     S
C687   H713    1.082   .     S
C687   H714    1.108   .     S
C688   H703    1.108   .     S
C688   H702    1.110   .     S
C688   H701    1.082   .     S
C689   H705    1.108   .     S
C689   H706    1.110   .     S
C689   H704    1.082   .     S
C690   O727    1.300   .     A
C690   C692    1.411   .     S
C690   O724    1.300   .     A
C691   O725    1.300   .     A
C691   O726    1.300   .     A
C691   C693    1.411   .     S
C693   C1196   1.191   .     S
C694   C808    1.401   1_455 S
C695   C730    1.401   .     S
C696   C750    1.401   .     S
Cu697  O724    1.933   .     S
Cu697  N715    2.041   .     S
Cu697  O717    1.974   .     S
Cu697  O726    1.933   .     S
Cu697  Cu698   2.716   .     S
Cu697  O722    1.974   .     S
Cu698  O727    1.933   .     S
Cu698  N716    2.041   .     S
Cu698  O723    1.974   .     S
Cu698  O725    1.933   .     S
Cu698  O721    1.974   .     S
C729   C732    1.482   .     S
C729   O779    1.310   .     A
C729   O773    1.310   .     A
C730   C732    1.419   .     A
C730   C741    1.491   .     S
C731   C752    1.419   .     A
C731   C751    1.419   .     A
C731   C740    1.482   .     S
C732   C750    1.419   .     A
C733   C742    1.521   .     S
C733   N772    1.382   .     A
C734   N771    1.382   .     A
C734   C743    1.521   .     S
C734   C903    1.433   .     S
C735   C744    1.521   .     S
C735   N772    1.382   .     A
C736   C745    1.521   .     S
C736   N771    1.382   .     A
C736   C901    1.433   .     S
C737   O784    1.221   .     D
C737   H755    1.084   .     S
C737   C750    1.491   .     S
C738   O774    1.221   .     D
C738   C751    1.491   .     S
C738   H763    1.084   .     S
C739   O775    1.221   .     D
C739   C752    1.491   .     S
C739   H764    1.084   .     S
C740   O777    1.310   .     A
C740   O778    1.310   .     A
C741   O776    1.221   .     D
C741   H765    1.084   .     S
C742   H767    1.110   .     S
C742   H766    1.082   .     S
C742   H768    1.108   .     S
C743   H756    1.110   .     S
C743   H769    1.082   .     S
C743   H770    1.108   .     S
C744   H759    1.108   .     S
C744   H758    1.110   .     S
C744   H757    1.082   .     S
C745   H761    1.108   .     S
C745   H762    1.110   .     S
C745   H760    1.082   .     S
C746   O783    1.300   .     A
C746   C748    1.411   .     S
C746   O780    1.300   .     A
C747   O781    1.300   .     A
C747   O782    1.300   .     A
C747   C749    1.411   .     S
C749   C1252   1.191   .     S
C751   C786    1.401   .     S
C752   C806    1.401   .     S
Cu753  O780    1.933   .     S
Cu753  N771    2.041   .     S
Cu753  O773    1.974   .     S
Cu753  O782    1.933   .     S
Cu753  Cu754   2.716   .     S
Cu753  O778    1.974   .     S
Cu754  O783    1.933   .     S
Cu754  N772    2.041   .     S
Cu754  O779    1.974   .     S
Cu754  O781    1.933   .     S
Cu754  O777    1.974   .     S
C785   C788    1.482   .     S
C785   O835    1.310   .     A
C785   O829    1.310   .     A
C786   C788    1.419   .     A
C786   C797    1.491   .     S
C787   C808    1.419   .     A
C787   C807    1.419   .     A
C787   C796    1.482   .     S
C788   C806    1.419   .     A
C789   C798    1.521   .     S
C789   N828    1.382   .     A
C790   N827    1.382   .     A
C790   C799    1.521   .     S
C790   C959    1.433   .     S
C791   C800    1.521   .     S
C791   N828    1.382   .     A
C792   C801    1.521   .     S
C792   N827    1.382   .     A
C792   C957    1.433   .     S
C793   O840    1.221   .     D
C793   H811    1.084   .     S
C793   C806    1.491   .     S
C794   O830    1.221   .     D
C794   C807    1.491   .     S
C794   H819    1.084   .     S
C795   O831    1.221   .     D
C795   C808    1.491   .     S
C795   H820    1.084   .     S
C796   O833    1.310   .     A
C796   O834    1.310   .     A
C797   O832    1.221   .     D
C797   H821    1.084   .     S
C798   H823    1.110   .     S
C798   H822    1.082   .     S
C798   H824    1.108   .     S
C799   H812    1.110   .     S
C799   H825    1.082   .     S
C799   H826    1.108   .     S
C800   H815    1.108   .     S
C800   H814    1.110   .     S
C800   H813    1.082   .     S
C801   H817    1.108   .     S
C801   H818    1.110   .     S
C801   H816    1.082   .     S
C802   O839    1.300   .     A
C802   C804    1.411   .     S
C802   O836    1.300   .     A
C803   O837    1.300   .     A
C803   O838    1.300   .     A
C803   C805    1.411   .     S
C805   C1308   1.191   .     S
C807   C674    1.401   1_655 S
C808   C694    1.401   1_655 S
Cu809  O836    1.933   .     S
Cu809  N827    2.041   .     S
Cu809  O829    1.974   .     S
Cu809  O838    1.933   .     S
Cu809  Cu810   2.716   .     S
Cu809  O834    1.974   .     S
Cu810  O839    1.933   .     S
Cu810  N828    2.041   .     S
Cu810  O835    1.974   .     S
Cu810  O837    1.933   .     S
Cu810  O833    1.974   .     S
C841   C844    1.482   .     S
C841   O891    1.310   .     A
C841   O885    1.310   .     A
C842   C844    1.419   .     A
C842   C853    1.491   .     S
C842   C975    1.401   1_455 S
C843   C864    1.419   .     A
C843   C863    1.419   .     A
C843   C852    1.482   .     S
C844   C862    1.419   .     A
C845   C854    1.521   .     S
C845   N884    1.382   .     A
C846   N883    1.382   .     A
C846   C855    1.521   .     S
C846   C511    1.433   1_565 S
C847   C856    1.521   .     S
C847   N884    1.382   .     A
C848   C857    1.521   .     S
C848   N883    1.382   .     A
C848   C509    1.433   1_565 S
C849   O896    1.221   .     D
C849   H867    1.084   .     S
C849   C862    1.491   .     S
C850   O886    1.221   .     D
C850   C863    1.491   .     S
C850   H875    1.084   .     S
C851   O887    1.221   .     D
C851   C864    1.491   .     S
C851   H876    1.084   .     S
C852   O889    1.310   .     A
C852   O890    1.310   .     A
C853   O888    1.221   .     D
C853   H877    1.084   .     S
C854   H879    1.110   .     S
C854   H878    1.082   .     S
C854   H880    1.108   .     S
C855   H868    1.110   .     S
C855   H881    1.082   .     S
C855   H882    1.108   .     S
C856   H871    1.108   .     S
C856   H870    1.110   .     S
C856   H869    1.082   .     S
C857   H873    1.108   .     S
C857   H874    1.110   .     S
C857   H872    1.082   .     S
C858   O895    1.300   .     A
C858   C860    1.411   .     S
C858   O892    1.300   .     A
C859   O893    1.300   .     A
C859   O894    1.300   .     A
C859   C861    1.411   .     S
C861   C1364   1.191   .     S
C862   C976    1.401   1_455 S
C863   C898    1.401   .     S
C864   C918    1.401   .     S
Cu865  O892    1.933   .     S
Cu865  N883    2.041   .     S
Cu865  O885    1.974   .     S
Cu865  O894    1.933   .     S
Cu865  Cu866   2.716   .     S
Cu865  O890    1.974   .     S
Cu866  O895    1.933   .     S
Cu866  N884    2.041   .     S
Cu866  O891    1.974   .     S
Cu866  O893    1.933   .     S
Cu866  O889    1.974   .     S
C897   C900    1.482   .     S
C897   O947    1.310   .     A
C897   O941    1.310   .     A
C898   C900    1.419   .     A
C898   C909    1.491   .     S
C899   C920    1.419   .     A
C899   C919    1.419   .     A
C899   C908    1.482   .     S
C900   C918    1.419   .     A
C901   C910    1.521   .     S
C901   N940    1.382   .     A
C902   N939    1.382   .     A
C902   C911    1.521   .     S
C902   C567    1.433   1_565 S
C903   C912    1.521   .     S
C903   N940    1.382   .     A
C904   C913    1.521   .     S
C904   N939    1.382   .     A
C904   C565    1.433   1_565 S
C905   O952    1.221   .     D
C905   H923    1.084   .     S
C905   C918    1.491   .     S
C906   O942    1.221   .     D
C906   C919    1.491   .     S
C906   H931    1.084   .     S
C907   O943    1.221   .     D
C907   C920    1.491   .     S
C907   H932    1.084   .     S
C908   O945    1.310   .     A
C908   O946    1.310   .     A
C909   O944    1.221   .     D
C909   H933    1.084   .     S
C910   H935    1.110   .     S
C910   H934    1.082   .     S
C910   H936    1.108   .     S
C911   H924    1.110   .     S
C911   H937    1.082   .     S
C911   H938    1.108   .     S
C912   H927    1.108   .     S
C912   H926    1.110   .     S
C912   H925    1.082   .     S
C913   H929    1.108   .     S
C913   H930    1.110   .     S
C913   H928    1.082   .     S
C914   O951    1.300   .     A
C914   C916    1.411   .     S
C914   O948    1.300   .     A
C915   O949    1.300   .     A
C915   O950    1.300   .     A
C915   C917    1.411   .     S
C917   C1420   1.191   .     S
C919   C954    1.401   .     S
C920   C974    1.401   .     S
Cu921  O948    1.933   .     S
Cu921  N939    2.041   .     S
Cu921  O941    1.974   .     S
Cu921  O950    1.933   .     S
Cu921  Cu922   2.716   .     S
Cu921  O946    1.974   .     S
Cu922  O951    1.933   .     S
Cu922  N940    2.041   .     S
Cu922  O947    1.974   .     S
Cu922  O949    1.933   .     S
Cu922  O945    1.974   .     S
C953   C956    1.482   .     S
C953   O1003   1.310   .     A
C953   O997    1.310   .     A
C954   C956    1.419   .     A
C954   C965    1.491   .     S
C955   C976    1.419   .     A
C955   C975    1.419   .     A
C955   C964    1.482   .     S
C956   C974    1.419   .     A
C957   C966    1.521   .     S
C957   N996    1.382   .     A
C958   N995    1.382   .     A
C958   C967    1.521   .     S
C958   C623    1.433   1_565 S
C959   C968    1.521   .     S
C959   N996    1.382   .     A
C960   C969    1.521   .     S
C960   N995    1.382   .     A
C960   C621    1.433   1_565 S
C961   O1008   1.221   .     D
C961   H979    1.084   .     S
C961   C974    1.491   .     S
C962   O998    1.221   .     D
C962   C975    1.491   .     S
C962   H987    1.084   .     S
C963   O999    1.221   .     D
C963   C976    1.491   .     S
C963   H988    1.084   .     S
C964   O1001   1.310   .     A
C964   O1002   1.310   .     A
C965   O1000   1.221   .     D
C965   H989    1.084   .     S
C966   H991    1.110   .     S
C966   H990    1.082   .     S
C966   H992    1.108   .     S
C967   H980    1.110   .     S
C967   H993    1.082   .     S
C967   H994    1.108   .     S
C968   H983    1.108   .     S
C968   H982    1.110   .     S
C968   H981    1.082   .     S
C969   H985    1.108   .     S
C969   H986    1.110   .     S
C969   H984    1.082   .     S
C970   O1007   1.300   .     A
C970   C972    1.411   .     S
C970   O1004   1.300   .     A
C971   O1005   1.300   .     A
C971   O1006   1.300   .     A
C971   C973    1.411   .     S
C973   C1476   1.191   .     S
C975   C842    1.401   1_655 S
C976   C862    1.401   1_655 S
Cu977  O1004   1.933   .     S
Cu977  N995    2.041   .     S
Cu977  O997    1.974   .     S
Cu977  O1006   1.933   .     S
Cu977  Cu978   2.716   .     S
Cu977  O1002   1.974   .     S
Cu978  O1007   1.933   .     S
Cu978  N996    2.041   .     S
Cu978  O1003   1.974   .     S
Cu978  O1005   1.933   .     S
Cu978  O1001   1.974   .     S
C1009  C1012   1.482   .     S
C1009  O1059   1.310   .     A
C1009  O1053   1.310   .     A
C1010  C1012   1.419   .     A
C1010  C1021   1.491   .     S
C1010  C1143   1.401   1_455 S
C1011  C1032   1.419   .     A
C1011  C1031   1.419   .     A
C1011  C1020   1.482   .     S
C1012  C1030   1.419   .     A
C1013  C1022   1.521   .     S
C1013  N1052   1.382   .     A
C1013  C1352   1.433   1_545 S
C1014  N1051   1.382   .     A
C1014  C1023   1.521   .     S
C1014  C1183   1.433   .     S
C1015  C1024   1.521   .     S
C1015  N1052   1.382   .     A
C1015  C1350   1.433   1_545 S
C1016  C1025   1.521   .     S
C1016  N1051   1.382   .     A
C1016  C1181   1.433   .     S
C1017  O1064   1.221   .     D
C1017  H1035   1.084   .     S
C1017  C1030   1.491   .     S
C1018  O1054   1.221   .     D
C1018  C1031   1.491   .     S
C1018  H1043   1.084   .     S
C1019  O1055   1.221   .     D
C1019  C1032   1.491   .     S
C1019  H1044   1.084   .     S
C1020  O1057   1.310   .     A
C1020  O1058   1.310   .     A
C1021  O1056   1.221   .     D
C1021  H1045   1.084   .     S
C1022  H1047   1.110   .     S
C1022  H1046   1.082   .     S
C1022  H1048   1.108   .     S
C1023  H1036   1.110   .     S
C1023  H1049   1.082   .     S
C1023  H1050   1.108   .     S
C1024  H1039   1.108   .     S
C1024  H1038   1.110   .     S
C1024  H1037   1.082   .     S
C1025  H1041   1.108   .     S
C1025  H1042   1.110   .     S
C1025  H1040   1.082   .     S
C1026  O1063   1.300   .     A
C1026  C1028   1.411   .     S
C1026  O1060   1.300   .     A
C1027  O1061   1.300   .     A
C1027  O1062   1.300   .     A
C1027  C1029   1.411   .     S
C1029  C20     1.191   1_556 S
C1030  C1144   1.401   1_455 S
C1031  C1066   1.401   .     S
C1032  C1086   1.401   .     S
Cu1033 O1060   1.933   .     S
Cu1033 N1051   2.041   .     S
Cu1033 O1053   1.974   .     S
Cu1033 O1062   1.933   .     S
Cu1033 Cu1034  2.716   .     S
Cu1033 O1058   1.974   .     S
Cu1034 O1063   1.933   .     S
Cu1034 N1052   2.041   .     S
Cu1034 O1059   1.974   .     S
Cu1034 O1061   1.933   .     S
Cu1034 O1057   1.974   .     S
C1065  C1068   1.482   .     S
C1065  O1115   1.310   .     A
C1065  O1109   1.310   .     A
C1066  C1068   1.419   .     A
C1066  C1077   1.491   .     S
C1067  C1088   1.419   .     A
C1067  C1087   1.419   .     A
C1067  C1076   1.482   .     S
C1068  C1086   1.419   .     A
C1069  C1078   1.521   .     S
C1069  N1108   1.382   .     A
C1069  C1408   1.433   1_545 S
C1070  N1107   1.382   .     A
C1070  C1079   1.521   .     S
C1070  C1239   1.433   .     S
C1071  C1080   1.521   .     S
C1071  N1108   1.382   .     A
C1071  C1406   1.433   1_545 S
C1072  C1081   1.521   .     S
C1072  N1107   1.382   .     A
C1072  C1237   1.433   .     S
C1073  O1120   1.221   .     D
C1073  H1091   1.084   .     S
C1073  C1086   1.491   .     S
C1074  O1110   1.221   .     D
C1074  C1087   1.491   .     S
C1074  H1099   1.084   .     S
C1075  O1111   1.221   .     D
C1075  C1088   1.491   .     S
C1075  H1100   1.084   .     S
C1076  O1113   1.310   .     A
C1076  O1114   1.310   .     A
C1077  O1112   1.221   .     D
C1077  H1101   1.084   .     S
C1078  H1103   1.110   .     S
C1078  H1102   1.082   .     S
C1078  H1104   1.108   .     S
C1079  H1092   1.110   .     S
C1079  H1105   1.082   .     S
C1079  H1106   1.108   .     S
C1080  H1095   1.108   .     S
C1080  H1094   1.110   .     S
C1080  H1093   1.082   .     S
C1081  H1097   1.108   .     S
C1081  H1098   1.110   .     S
C1081  H1096   1.082   .     S
C1082  O1119   1.300   .     A
C1082  C1084   1.411   .     S
C1082  O1116   1.300   .     A
C1083  O1117   1.300   .     A
C1083  O1118   1.300   .     A
C1083  C1085   1.411   .     S
C1085  C76     1.191   1_556 S
C1087  C1122   1.401   .     S
C1088  C1142   1.401   .     S
Cu1089 O1116   1.933   .     S
Cu1089 N1107   2.041   .     S
Cu1089 O1109   1.974   .     S
Cu1089 O1118   1.933   .     S
Cu1089 Cu1090  2.716   .     S
Cu1089 O1114   1.974   .     S
Cu1090 O1119   1.933   .     S
Cu1090 N1108   2.041   .     S
Cu1090 O1115   1.974   .     S
Cu1090 O1117   1.933   .     S
Cu1090 O1113   1.974   .     S
C1121  C1124   1.482   .     S
C1121  O1171   1.310   .     A
C1121  O1165   1.310   .     A
C1122  C1124   1.419   .     A
C1122  C1133   1.491   .     S
C1123  C1144   1.419   .     A
C1123  C1143   1.419   .     A
C1123  C1132   1.482   .     S
C1124  C1142   1.419   .     A
C1125  C1134   1.521   .     S
C1125  N1164   1.382   .     A
C1125  C1464   1.433   1_545 S
C1126  N1163   1.382   .     A
C1126  C1135   1.521   .     S
C1126  C1295   1.433   .     S
C1127  C1136   1.521   .     S
C1127  N1164   1.382   .     A
C1127  C1462   1.433   1_545 S
C1128  C1137   1.521   .     S
C1128  N1163   1.382   .     A
C1128  C1293   1.433   .     S
C1129  O1176   1.221   .     D
C1129  H1147   1.084   .     S
C1129  C1142   1.491   .     S
C1130  O1166   1.221   .     D
C1130  C1143   1.491   .     S
C1130  H1155   1.084   .     S
C1131  O1167   1.221   .     D
C1131  C1144   1.491   .     S
C1131  H1156   1.084   .     S
C1132  O1169   1.310   .     A
C1132  O1170   1.310   .     A
C1133  O1168   1.221   .     D
C1133  H1157   1.084   .     S
C1134  H1159   1.110   .     S
C1134  H1158   1.082   .     S
C1134  H1160   1.108   .     S
C1135  H1148   1.110   .     S
C1135  H1161   1.082   .     S
C1135  H1162   1.108   .     S
C1136  H1151   1.108   .     S
C1136  H1150   1.110   .     S
C1136  H1149   1.082   .     S
C1137  H1153   1.108   .     S
C1137  H1154   1.110   .     S
C1137  H1152   1.082   .     S
C1138  O1175   1.300   .     A
C1138  C1140   1.411   .     S
C1138  O1172   1.300   .     A
C1139  O1173   1.300   .     A
C1139  O1174   1.300   .     A
C1139  C1141   1.411   .     S
C1141  C132    1.191   1_556 S
C1143  C1010   1.401   1_655 S
C1144  C1030   1.401   1_655 S
Cu1145 O1172   1.933   .     S
Cu1145 N1163   2.041   .     S
Cu1145 O1165   1.974   .     S
Cu1145 O1174   1.933   .     S
Cu1145 Cu1146  2.716   .     S
Cu1145 O1170   1.974   .     S
Cu1146 O1175   1.933   .     S
Cu1146 N1164   2.041   .     S
Cu1146 O1171   1.974   .     S
Cu1146 O1173   1.933   .     S
Cu1146 O1169   1.974   .     S
C1177  C1180   1.482   .     S
C1177  O1227   1.310   .     A
C1177  O1221   1.310   .     A
C1178  C1180   1.419   .     A
C1178  C1189   1.491   .     S
C1178  C1311   1.401   1_455 S
C1179  C1200   1.419   .     A
C1179  C1199   1.419   .     A
C1179  C1188   1.482   .     S
C1180  C1198   1.419   .     A
C1181  C1190   1.521   .     S
C1181  N1220   1.382   .     A
C1182  N1219   1.382   .     A
C1182  C1191   1.521   .     S
C1182  C1351   1.433   .     S
C1183  C1192   1.521   .     S
C1183  N1220   1.382   .     A
C1184  C1193   1.521   .     S
C1184  N1219   1.382   .     A
C1184  C1349   1.433   .     S
C1185  O1232   1.221   .     D
C1185  H1203   1.084   .     S
C1185  C1198   1.491   .     S
C1186  O1222   1.221   .     D
C1186  C1199   1.491   .     S
C1186  H1211   1.084   .     S
C1187  O1223   1.221   .     D
C1187  C1200   1.491   .     S
C1187  H1212   1.084   .     S
C1188  O1225   1.310   .     A
C1188  O1226   1.310   .     A
C1189  O1224   1.221   .     D
C1189  H1213   1.084   .     S
C1190  H1215   1.110   .     S
C1190  H1214   1.082   .     S
C1190  H1216   1.108   .     S
C1191  H1204   1.110   .     S
C1191  H1217   1.082   .     S
C1191  H1218   1.108   .     S
C1192  H1207   1.108   .     S
C1192  H1206   1.110   .     S
C1192  H1205   1.082   .     S
C1193  H1209   1.108   .     S
C1193  H1210   1.110   .     S
C1193  H1208   1.082   .     S
C1194  O1231   1.300   .     A
C1194  C1196   1.411   .     S
C1194  O1228   1.300   .     A
C1195  O1229   1.300   .     A
C1195  O1230   1.300   .     A
C1195  C1197   1.411   .     S
C1197  C188    1.191   1_556 S
C1198  C1312   1.401   1_455 S
C1199  C1234   1.401   .     S
C1200  C1254   1.401   .     S
Cu1201 O1228   1.933   .     S
Cu1201 N1219   2.041   .     S
Cu1201 O1221   1.974   .     S
Cu1201 O1230   1.933   .     S
Cu1201 Cu1202  2.716   .     S
Cu1201 O1226   1.974   .     S
Cu1202 O1231   1.933   .     S
Cu1202 N1220   2.041   .     S
Cu1202 O1227   1.974   .     S
Cu1202 O1229   1.933   .     S
Cu1202 O1225   1.974   .     S
C1233  C1236   1.482   .     S
C1233  O1283   1.310   .     A
C1233  O1277   1.310   .     A
C1234  C1236   1.419   .     A
C1234  C1245   1.491   .     S
C1235  C1256   1.419   .     A
C1235  C1255   1.419   .     A
C1235  C1244   1.482   .     S
C1236  C1254   1.419   .     A
C1237  C1246   1.521   .     S
C1237  N1276   1.382   .     A
C1238  N1275   1.382   .     A
C1238  C1247   1.521   .     S
C1238  C1407   1.433   .     S
C1239  C1248   1.521   .     S
C1239  N1276   1.382   .     A
C1240  C1249   1.521   .     S
C1240  N1275   1.382   .     A
C1240  C1405   1.433   .     S
C1241  O1288   1.221   .     D
C1241  H1259   1.084   .     S
C1241  C1254   1.491   .     S
C1242  O1278   1.221   .     D
C1242  C1255   1.491   .     S
C1242  H1267   1.084   .     S
C1243  O1279   1.221   .     D
C1243  C1256   1.491   .     S
C1243  H1268   1.084   .     S
C1244  O1281   1.310   .     A
C1244  O1282   1.310   .     A
C1245  O1280   1.221   .     D
C1245  H1269   1.084   .     S
C1246  H1271   1.110   .     S
C1246  H1270   1.082   .     S
C1246  H1272   1.108   .     S
C1247  H1260   1.110   .     S
C1247  H1273   1.082   .     S
C1247  H1274   1.108   .     S
C1248  H1263   1.108   .     S
C1248  H1262   1.110   .     S
C1248  H1261   1.082   .     S
C1249  H1265   1.108   .     S
C1249  H1266   1.110   .     S
C1249  H1264   1.082   .     S
C1250  O1287   1.300   .     A
C1250  C1252   1.411   .     S
C1250  O1284   1.300   .     A
C1251  O1285   1.300   .     A
C1251  O1286   1.300   .     A
C1251  C1253   1.411   .     S
C1253  C244    1.191   1_556 S
C1255  C1290   1.401   .     S
C1256  C1310   1.401   .     S
Cu1257 O1284   1.933   .     S
Cu1257 N1275   2.041   .     S
Cu1257 O1277   1.974   .     S
Cu1257 O1286   1.933   .     S
Cu1257 Cu1258  2.716   .     S
Cu1257 O1282   1.974   .     S
Cu1258 O1287   1.933   .     S
Cu1258 N1276   2.041   .     S
Cu1258 O1283   1.974   .     S
Cu1258 O1285   1.933   .     S
Cu1258 O1281   1.974   .     S
C1289  C1292   1.482   .     S
C1289  O1339   1.310   .     A
C1289  O1333   1.310   .     A
C1290  C1292   1.419   .     A
C1290  C1301   1.491   .     S
C1291  C1312   1.419   .     A
C1291  C1311   1.419   .     A
C1291  C1300   1.482   .     S
C1292  C1310   1.419   .     A
C1293  C1302   1.521   .     S
C1293  N1332   1.382   .     A
C1294  N1331   1.382   .     A
C1294  C1303   1.521   .     S
C1294  C1463   1.433   .     S
C1295  C1304   1.521   .     S
C1295  N1332   1.382   .     A
C1296  C1305   1.521   .     S
C1296  N1331   1.382   .     A
C1296  C1461   1.433   .     S
C1297  O1344   1.221   .     D
C1297  H1315   1.084   .     S
C1297  C1310   1.491   .     S
C1298  O1334   1.221   .     D
C1298  C1311   1.491   .     S
C1298  H1323   1.084   .     S
C1299  O1335   1.221   .     D
C1299  C1312   1.491   .     S
C1299  H1324   1.084   .     S
C1300  O1337   1.310   .     A
C1300  O1338   1.310   .     A
C1301  O1336   1.221   .     D
C1301  H1325   1.084   .     S
C1302  H1327   1.110   .     S
C1302  H1326   1.082   .     S
C1302  H1328   1.108   .     S
C1303  H1316   1.110   .     S
C1303  H1329   1.082   .     S
C1303  H1330   1.108   .     S
C1304  H1319   1.108   .     S
C1304  H1318   1.110   .     S
C1304  H1317   1.082   .     S
C1305  H1321   1.108   .     S
C1305  H1322   1.110   .     S
C1305  H1320   1.082   .     S
C1306  O1343   1.300   .     A
C1306  C1308   1.411   .     S
C1306  O1340   1.300   .     A
C1307  O1341   1.300   .     A
C1307  O1342   1.300   .     A
C1307  C1309   1.411   .     S
C1309  C300    1.191   1_556 S
C1311  C1178   1.401   1_655 S
C1312  C1198   1.401   1_655 S
Cu1313 O1340   1.933   .     S
Cu1313 N1331   2.041   .     S
Cu1313 O1333   1.974   .     S
Cu1313 O1342   1.933   .     S
Cu1313 Cu1314  2.716   .     S
Cu1313 O1338   1.974   .     S
Cu1314 O1343   1.933   .     S
Cu1314 N1332   2.041   .     S
Cu1314 O1339   1.974   .     S
Cu1314 O1341   1.933   .     S
Cu1314 O1337   1.974   .     S
C1345  C1348   1.482   .     S
C1345  O1395   1.310   .     A
C1345  O1389   1.310   .     A
C1346  C1348   1.419   .     A
C1346  C1357   1.491   .     S
C1346  C1479   1.401   1_455 S
C1347  C1368   1.419   .     A
C1347  C1367   1.419   .     A
C1347  C1356   1.482   .     S
C1348  C1366   1.419   .     A
C1349  C1358   1.521   .     S
C1349  N1388   1.382   .     A
C1350  N1387   1.382   .     A
C1350  C1359   1.521   .     S
C1350  C1015   1.433   1_565 S
C1351  C1360   1.521   .     S
C1351  N1388   1.382   .     A
C1352  C1361   1.521   .     S
C1352  N1387   1.382   .     A
C1352  C1013   1.433   1_565 S
C1353  O1400   1.221   .     D
C1353  H1371   1.084   .     S
C1353  C1366   1.491   .     S
C1354  O1390   1.221   .     D
C1354  C1367   1.491   .     S
C1354  H1379   1.084   .     S
C1355  O1391   1.221   .     D
C1355  C1368   1.491   .     S
C1355  H1380   1.084   .     S
C1356  O1393   1.310   .     A
C1356  O1394   1.310   .     A
C1357  O1392   1.221   .     D
C1357  H1381   1.084   .     S
C1358  H1383   1.110   .     S
C1358  H1382   1.082   .     S
C1358  H1384   1.108   .     S
C1359  H1372   1.110   .     S
C1359  H1385   1.082   .     S
C1359  H1386   1.108   .     S
C1360  H1375   1.108   .     S
C1360  H1374   1.110   .     S
C1360  H1373   1.082   .     S
C1361  H1377   1.108   .     S
C1361  H1378   1.110   .     S
C1361  H1376   1.082   .     S
C1362  O1399   1.300   .     A
C1362  C1364   1.411   .     S
C1362  O1396   1.300   .     A
C1363  O1397   1.300   .     A
C1363  O1398   1.300   .     A
C1363  C1365   1.411   .     S
C1365  C356    1.191   1_556 S
C1366  C1480   1.401   1_455 S
C1367  C1402   1.401   .     S
C1368  C1422   1.401   .     S
Cu1369 O1396   1.933   .     S
Cu1369 N1387   2.041   .     S
Cu1369 O1389   1.974   .     S
Cu1369 O1398   1.933   .     S
Cu1369 Cu1370  2.716   .     S
Cu1369 O1394   1.974   .     S
Cu1370 O1399   1.933   .     S
Cu1370 N1388   2.041   .     S
Cu1370 O1395   1.974   .     S
Cu1370 O1397   1.933   .     S
Cu1370 O1393   1.974   .     S
C1401  C1404   1.482   .     S
C1401  O1451   1.310   .     A
C1401  O1445   1.310   .     A
C1402  C1404   1.419   .     A
C1402  C1413   1.491   .     S
C1403  C1424   1.419   .     A
C1403  C1423   1.419   .     A
C1403  C1412   1.482   .     S
C1404  C1422   1.419   .     A
C1405  C1414   1.521   .     S
C1405  N1444   1.382   .     A
C1406  N1443   1.382   .     A
C1406  C1415   1.521   .     S
C1406  C1071   1.433   1_565 S
C1407  C1416   1.521   .     S
C1407  N1444   1.382   .     A
C1408  C1417   1.521   .     S
C1408  N1443   1.382   .     A
C1408  C1069   1.433   1_565 S
C1409  O1456   1.221   .     D
C1409  H1427   1.084   .     S
C1409  C1422   1.491   .     S
C1410  O1446   1.221   .     D
C1410  C1423   1.491   .     S
C1410  H1435   1.084   .     S
C1411  O1447   1.221   .     D
C1411  C1424   1.491   .     S
C1411  H1436   1.084   .     S
C1412  O1449   1.310   .     A
C1412  O1450   1.310   .     A
C1413  O1448   1.221   .     D
C1413  H1437   1.084   .     S
C1414  H1439   1.110   .     S
C1414  H1438   1.082   .     S
C1414  H1440   1.108   .     S
C1415  H1428   1.110   .     S
C1415  H1441   1.082   .     S
C1415  H1442   1.108   .     S
C1416  H1431   1.108   .     S
C1416  H1430   1.110   .     S
C1416  H1429   1.082   .     S
C1417  H1433   1.108   .     S
C1417  H1434   1.110   .     S
C1417  H1432   1.082   .     S
C1418  O1455   1.300   .     A
C1418  C1420   1.411   .     S
C1418  O1452   1.300   .     A
C1419  O1453   1.300   .     A
C1419  O1454   1.300   .     A
C1419  C1421   1.411   .     S
C1421  C412    1.191   1_556 S
C1423  C1458   1.401   .     S
C1424  C1478   1.401   .     S
Cu1425 O1452   1.933   .     S
Cu1425 N1443   2.041   .     S
Cu1425 O1445   1.974   .     S
Cu1425 O1454   1.933   .     S
Cu1425 Cu1426  2.716   .     S
Cu1425 O1450   1.974   .     S
Cu1426 O1455   1.933   .     S
Cu1426 N1444   2.041   .     S
Cu1426 O1451   1.974   .     S
Cu1426 O1453   1.933   .     S
Cu1426 O1449   1.974   .     S
C1457  C1460   1.482   .     S
C1457  O1507   1.310   .     A
C1457  O1501   1.310   .     A
C1458  C1460   1.419   .     A
C1458  C1469   1.491   .     S
C1459  C1480   1.419   .     A
C1459  C1479   1.419   .     A
C1459  C1468   1.482   .     S
C1460  C1478   1.419   .     A
C1461  C1470   1.521   .     S
C1461  N1500   1.382   .     A
C1462  N1499   1.382   .     A
C1462  C1471   1.521   .     S
C1462  C1127   1.433   1_565 S
C1463  C1472   1.521   .     S
C1463  N1500   1.382   .     A
C1464  C1473   1.521   .     S
C1464  N1499   1.382   .     A
C1464  C1125   1.433   1_565 S
C1465  O1512   1.221   .     D
C1465  H1483   1.084   .     S
C1465  C1478   1.491   .     S
C1466  O1502   1.221   .     D
C1466  C1479   1.491   .     S
C1466  H1491   1.084   .     S
C1467  O1503   1.221   .     D
C1467  C1480   1.491   .     S
C1467  H1492   1.084   .     S
C1468  O1505   1.310   .     A
C1468  O1506   1.310   .     A
C1469  O1504   1.221   .     D
C1469  H1493   1.084   .     S
C1470  H1495   1.110   .     S
C1470  H1494   1.082   .     S
C1470  H1496   1.108   .     S
C1471  H1484   1.110   .     S
C1471  H1497   1.082   .     S
C1471  H1498   1.108   .     S
C1472  H1487   1.108   .     S
C1472  H1486   1.110   .     S
C1472  H1485   1.082   .     S
C1473  H1489   1.108   .     S
C1473  H1490   1.110   .     S
C1473  H1488   1.082   .     S
C1474  O1511   1.300   .     A
C1474  C1476   1.411   .     S
C1474  O1508   1.300   .     A
C1475  O1509   1.300   .     A
C1475  O1510   1.300   .     A
C1475  C1477   1.411   .     S
C1477  C468    1.191   1_556 S
C1479  C1346   1.401   1_655 S
C1480  C1366   1.401   1_655 S
Cu1481 O1508   1.933   .     S
Cu1481 N1499   2.041   .     S
Cu1481 O1501   1.974   .     S
Cu1481 O1510   1.933   .     S
Cu1481 Cu1482  2.716   .     S
Cu1481 O1506   1.974   .     S
Cu1482 O1511   1.933   .     S
Cu1482 N1500   2.041   .     S
Cu1482 O1507   1.974   .     S
Cu1482 O1509   1.933   .     S
Cu1482 O1505   1.974   .     S
