data_str_m3_o1_o16_pcu_sym.76
_audit_creation_date              2020-01-03
_audit_creation_method            'Materials Studio'
_symmetry_space_group_name_H-M    'P1'
_symmetry_Int_Tables_number       1
_symmetry_cell_setting            triclinic
loop_
_symmetry_equiv_pos_as_xyz
  x,y,z
_cell_length_a                    29.6380
_cell_length_b                    32.0414
_cell_length_c                    26.2165
_cell_angle_alpha                 90.8621
_cell_angle_beta                  69.9662
_cell_angle_gamma                 90.2559
loop_
_atom_site_label
_atom_site_type_symbol
_atom_site_fract_x
_atom_site_fract_y
_atom_site_fract_z
_atom_site_U_iso_or_equiv
_atom_site_adp_type
_atom_site_occupancy
C1     C     0.16667   0.24661   0.25021   0.00000  Uiso   1.00
C2     C     0.12252   0.15862   0.41080   0.00000  Uiso   1.00
C3     C     0.21053   0.31120   0.22516   0.00000  Uiso   1.00
C4     C     0.14001   0.16400   0.35200   0.00000  Uiso   1.00
C5     C     0.21097   0.02065   0.22192   0.00000  Uiso   1.00
C6     C     0.16753   0.04241   0.24627   0.00000  Uiso   1.00
C7     C     0.12401   0.02154   0.26968   0.00000  Uiso   1.00
C8     C     0.12368   0.31216   0.27058   0.00000  Uiso   1.00
C9     C     0.16701   0.29066   0.24900   0.00000  Uiso   1.00
C10    C     0.31740   0.13742   0.22115   0.00000  Uiso   1.00
C11    C     0.03188   0.13685   0.22101   0.00000  Uiso   1.00
C12    C     0.14294   0.15474   0.49240   0.00000  Uiso   1.00
C13    C     0.01542   0.19619   0.27878   0.00000  Uiso   1.00
C14    C     0.30086   0.19611   0.27886   0.00000  Uiso   1.00
C15    C     0.16704   0.08667   0.24857   0.00000  Uiso   1.00
C16    C     0.19334   0.16713   0.14783   0.00000  Uiso   1.00
C17    C     0.25988   0.12724   0.00796   0.00000  Uiso   1.00
C18    C     0.20958   0.16279   0.08910   0.00000  Uiso   1.00
C19    C     0.07574   0.17137   0.44171   0.00000  Uiso   1.00
C20    C     0.06142   0.17268   0.49803   0.00000  Uiso   1.00
C21    C     0.09484   0.16515   0.02340   0.00000  Uiso   1.00
C22    C     0.26017   0.04995   0.14331   0.00000  Uiso   1.00
C23    C     0.15398   0.14486   0.43707   0.00000  Uiso   1.00
C24    C     0.28584   0.01411   0.10518   0.00000  Uiso   1.00
C25    C     0.29969   0.02648   0.04579   0.00000  Uiso   1.00
C26    C     0.06325   0.10154   0.19017   0.00000  Uiso   1.00
C27    C     0.15637   0.24237   0.06809   0.00000  Uiso   1.00
C28    C     0.15500   0.27104   0.11579   0.00000  Uiso   1.00
C29    C     0.16237   0.31663   0.09896   0.00000  Uiso   1.00
C30    C     0.18032   0.15285   0.01439   0.00000  Uiso   1.00
C31    C     0.22373   0.13160   0.48520   0.00000  Uiso   1.00
C32    C     0.23029   0.11486   0.43384   0.00000  Uiso   1.00
C33    C     0.19609   0.12179   0.40968   0.00000  Uiso   1.00
C34    C     0.17696   0.17297   0.06340   0.00000  Uiso   1.00
C35    C     0.25218   0.14169   0.06057   0.00000  Uiso   1.00
H36    H     0.27850   0.13510   0.07951   0.00000  Uiso   1.00
H37    H     0.08198   0.16616   0.06723   0.00000  Uiso   1.00
H38    H     0.02490   0.18117   0.02199   0.00000  Uiso   1.00
H39    H     0.20252   0.10813   0.36983   0.00000  Uiso   1.00
H40    H     0.24395   0.29411   0.20796   0.00000  Uiso   1.00
H41    H     0.28317   0.07807   0.13229   0.00000  Uiso   1.00
H42    H     0.22581   0.05794   0.13706   0.00000  Uiso   1.00
H43    H     0.31886   0.00550   0.11363   0.00000  Uiso   1.00
H44    H     0.26198   0.31973   0.11226   0.00000  Uiso   1.00
H45    H     0.26733   0.03572   0.03647   0.00000  Uiso   1.00
H46    H     0.31701   0.33292   0.01920   0.00000  Uiso   1.00
H47    H     0.09051   0.03819   0.28841   0.00000  Uiso   1.00
H48    H     0.32544   0.05295   0.03699   0.00000  Uiso   1.00
H49    H     0.09837   0.11256   0.16295   0.00000  Uiso   1.00
H50    H     0.06732   0.07818   0.21892   0.00000  Uiso   1.00
H51    H     0.04669   0.08479   0.16359   0.00000  Uiso   1.00
H52    H     0.13069   0.25419   0.04919   0.00000  Uiso   1.00
H53    H     0.19301   0.24374   0.03650   0.00000  Uiso   1.00
H54    H     0.11977   0.26791   0.14897   0.00000  Uiso   1.00
H55    H     0.18372   0.26152   0.13153   0.00000  Uiso   1.00
H56    H     0.19717   0.32054   0.06550   0.00000  Uiso   1.00
H57    H     0.16244   0.00299   0.13414   0.00000  Uiso   1.00
H58    H     0.08993   0.29603   0.28923   0.00000  Uiso   1.00
H59    H     0.13282   0.32732   0.08529   0.00000  Uiso   1.00
H60    H     0.30515   0.11406   0.19881   0.00000  Uiso   1.00
H61    H     0.02659   0.21980   0.30189   0.00000  Uiso   1.00
H62    H     0.27591   0.21968   0.30208   0.00000  Uiso   1.00
H63    H     0.26251   0.09747   0.41165   0.00000  Uiso   1.00
H64    H     0.29305   0.11104   0.48605   0.00000  Uiso   1.00
H65    H     0.05051   0.18079   0.42239   0.00000  Uiso   1.00
N66    N     0.04760   0.16668   0.25002   0.00000  Uiso   1.00
N67    N     0.28573   0.16665   0.25001   0.00000  Uiso   1.00
O68    O     0.12846   0.22775   0.25001   0.00000  Uiso   1.00
O69    O     0.14120   0.20192   0.08778   0.00000  Uiso   1.00
O70    O     0.20490   0.22774   0.25001   0.00000  Uiso   1.00
O71    O     0.10947   0.16666   0.32681   0.00000  Uiso   1.00
O72    O     0.18591   0.16665   0.32681   0.00000  Uiso   1.00
O73    O     0.12843   0.10559   0.25000   0.00000  Uiso   1.00
O74    O     0.20488   0.10558   0.25000   0.00000  Uiso   1.00
O75    O     0.14742   0.16668   0.17319   0.00000  Uiso   1.00
O76    O     0.22387   0.16667   0.17319   0.00000  Uiso   1.00
O77    O     0.25432   0.04078   0.19786   0.00000  Uiso   1.00
Zn78   Zn    0.11562   0.16667   0.25000   0.00000  Uiso   1.00
Zn79   Zn    0.21771   0.16666   0.25000   0.00000  Uiso   1.00
C80    C     0.50001   0.24661   0.25021   0.00000  Uiso   1.00
C81    C     0.45585   0.15862   0.41080   0.00000  Uiso   1.00
C82    C     0.54387   0.31120   0.22516   0.00000  Uiso   1.00
C83    C     0.47334   0.16400   0.35200   0.00000  Uiso   1.00
C84    C     0.54431   0.02065   0.22192   0.00000  Uiso   1.00
C85    C     0.50087   0.04241   0.24627   0.00000  Uiso   1.00
C86    C     0.45734   0.02154   0.26968   0.00000  Uiso   1.00
C87    C     0.45702   0.31216   0.27058   0.00000  Uiso   1.00
C88    C     0.50034   0.29066   0.24900   0.00000  Uiso   1.00
C89    C     0.65073   0.13742   0.22115   0.00000  Uiso   1.00
C90    C     0.36521   0.13685   0.22101   0.00000  Uiso   1.00
C91    C     0.47628   0.15474   0.49240   0.00000  Uiso   1.00
C92    C     0.34875   0.19619   0.27878   0.00000  Uiso   1.00
C93    C     0.63419   0.19611   0.27886   0.00000  Uiso   1.00
C94    C     0.50037   0.08667   0.24857   0.00000  Uiso   1.00
C95    C     0.52667   0.16713   0.14783   0.00000  Uiso   1.00
C96    C     0.59322   0.12724   0.00796   0.00000  Uiso   1.00
C97    C     0.54291   0.16279   0.08910   0.00000  Uiso   1.00
C98    C     0.40908   0.17137   0.44171   0.00000  Uiso   1.00
C99    C     0.39476   0.17268   0.49803   0.00000  Uiso   1.00
C100   C     0.42817   0.16515   0.02340   0.00000  Uiso   1.00
C101   C     0.59350   0.04995   0.14331   0.00000  Uiso   1.00
C102   C     0.48731   0.14486   0.43707   0.00000  Uiso   1.00
C103   C     0.61918   0.01411   0.10518   0.00000  Uiso   1.00
C104   C     0.63303   0.02648   0.04579   0.00000  Uiso   1.00
C105   C     0.39658   0.10154   0.19017   0.00000  Uiso   1.00
C106   C     0.48971   0.24237   0.06809   0.00000  Uiso   1.00
C107   C     0.48833   0.27104   0.11579   0.00000  Uiso   1.00
C108   C     0.49570   0.31663   0.09896   0.00000  Uiso   1.00
C109   C     0.51366   0.15285   0.01439   0.00000  Uiso   1.00
C110   C     0.55706   0.13160   0.48520   0.00000  Uiso   1.00
C111   C     0.56363   0.11486   0.43384   0.00000  Uiso   1.00
C112   C     0.52942   0.12179   0.40968   0.00000  Uiso   1.00
C113   C     0.51029   0.17297   0.06340   0.00000  Uiso   1.00
C114   C     0.58551   0.14169   0.06057   0.00000  Uiso   1.00
H115   H     0.61184   0.13510   0.07951   0.00000  Uiso   1.00
H116   H     0.41532   0.16616   0.06723   0.00000  Uiso   1.00
H117   H     0.35823   0.18117   0.02199   0.00000  Uiso   1.00
H118   H     0.53586   0.10813   0.36983   0.00000  Uiso   1.00
H119   H     0.57728   0.29411   0.20796   0.00000  Uiso   1.00
H120   H     0.61650   0.07807   0.13229   0.00000  Uiso   1.00
H121   H     0.55914   0.05794   0.13706   0.00000  Uiso   1.00
H122   H     0.65220   0.00550   0.11363   0.00000  Uiso   1.00
H123   H     0.59532   0.31973   0.11226   0.00000  Uiso   1.00
H124   H     0.60066   0.03572   0.03647   0.00000  Uiso   1.00
H125   H     0.65034   0.33292   0.01920   0.00000  Uiso   1.00
H126   H     0.42384   0.03819   0.28841   0.00000  Uiso   1.00
H127   H     0.65877   0.05295   0.03699   0.00000  Uiso   1.00
H128   H     0.43170   0.11256   0.16295   0.00000  Uiso   1.00
H129   H     0.40065   0.07818   0.21892   0.00000  Uiso   1.00
H130   H     0.38002   0.08479   0.16359   0.00000  Uiso   1.00
H131   H     0.46402   0.25419   0.04919   0.00000  Uiso   1.00
H132   H     0.52634   0.24374   0.03650   0.00000  Uiso   1.00
H133   H     0.45310   0.26791   0.14897   0.00000  Uiso   1.00
H134   H     0.51705   0.26152   0.13153   0.00000  Uiso   1.00
H135   H     0.53051   0.32054   0.06550   0.00000  Uiso   1.00
H136   H     0.49578   0.00299   0.13414   0.00000  Uiso   1.00
H137   H     0.42326   0.29603   0.28923   0.00000  Uiso   1.00
H138   H     0.46615   0.32732   0.08529   0.00000  Uiso   1.00
H139   H     0.63849   0.11406   0.19881   0.00000  Uiso   1.00
H140   H     0.35992   0.21980   0.30189   0.00000  Uiso   1.00
H141   H     0.60925   0.21968   0.30208   0.00000  Uiso   1.00
H142   H     0.59585   0.09747   0.41165   0.00000  Uiso   1.00
H143   H     0.62639   0.11104   0.48605   0.00000  Uiso   1.00
H144   H     0.38384   0.18079   0.42239   0.00000  Uiso   1.00
N145   N     0.38093   0.16668   0.25002   0.00000  Uiso   1.00
N146   N     0.61906   0.16665   0.25001   0.00000  Uiso   1.00
O147   O     0.46179   0.22775   0.25001   0.00000  Uiso   1.00
O148   O     0.47453   0.20192   0.08778   0.00000  Uiso   1.00
O149   O     0.53823   0.22774   0.25001   0.00000  Uiso   1.00
O150   O     0.44280   0.16666   0.32681   0.00000  Uiso   1.00
O151   O     0.51924   0.16665   0.32681   0.00000  Uiso   1.00
O152   O     0.46177   0.10559   0.25000   0.00000  Uiso   1.00
O153   O     0.53821   0.10558   0.25000   0.00000  Uiso   1.00
O154   O     0.48076   0.16668   0.17319   0.00000  Uiso   1.00
O155   O     0.55720   0.16667   0.17319   0.00000  Uiso   1.00
O156   O     0.58766   0.04078   0.19786   0.00000  Uiso   1.00
Zn157  Zn    0.44896   0.16667   0.25000   0.00000  Uiso   1.00
Zn158  Zn    0.55104   0.16666   0.25000   0.00000  Uiso   1.00
C159   C     0.83334   0.24661   0.25021   0.00000  Uiso   1.00
C160   C     0.78918   0.15862   0.41080   0.00000  Uiso   1.00
C161   C     0.87720   0.31120   0.22516   0.00000  Uiso   1.00
C162   C     0.80668   0.16400   0.35200   0.00000  Uiso   1.00
C163   C     0.87764   0.02065   0.22192   0.00000  Uiso   1.00
C164   C     0.83420   0.04241   0.24627   0.00000  Uiso   1.00
C165   C     0.79068   0.02154   0.26968   0.00000  Uiso   1.00
C166   C     0.79035   0.31216   0.27058   0.00000  Uiso   1.00
C167   C     0.83368   0.29066   0.24900   0.00000  Uiso   1.00
C168   C     0.98406   0.13742   0.22115   0.00000  Uiso   1.00
C169   C     0.69854   0.13685   0.22101   0.00000  Uiso   1.00
C170   C     0.80961   0.15474   0.49240   0.00000  Uiso   1.00
C171   C     0.68209   0.19619   0.27878   0.00000  Uiso   1.00
C172   C     0.96753   0.19611   0.27886   0.00000  Uiso   1.00
C173   C     0.83370   0.08667   0.24857   0.00000  Uiso   1.00
C174   C     0.86000   0.16713   0.14783   0.00000  Uiso   1.00
C175   C     0.92655   0.12724   0.00796   0.00000  Uiso   1.00
C176   C     0.87625   0.16279   0.08910   0.00000  Uiso   1.00
C177   C     0.74241   0.17137   0.44171   0.00000  Uiso   1.00
C178   C     0.72809   0.17268   0.49803   0.00000  Uiso   1.00
C179   C     0.76150   0.16515   0.02340   0.00000  Uiso   1.00
C180   C     0.92684   0.04995   0.14331   0.00000  Uiso   1.00
C181   C     0.82064   0.14486   0.43707   0.00000  Uiso   1.00
C182   C     0.95251   0.01411   0.10518   0.00000  Uiso   1.00
C183   C     0.96636   0.02648   0.04579   0.00000  Uiso   1.00
C184   C     0.72992   0.10154   0.19017   0.00000  Uiso   1.00
C185   C     0.82304   0.24237   0.06809   0.00000  Uiso   1.00
C186   C     0.82167   0.27104   0.11579   0.00000  Uiso   1.00
C187   C     0.82903   0.31663   0.09896   0.00000  Uiso   1.00
C188   C     0.84699   0.15285   0.01439   0.00000  Uiso   1.00
C189   C     0.89040   0.13160   0.48520   0.00000  Uiso   1.00
C190   C     0.89696   0.11486   0.43384   0.00000  Uiso   1.00
C191   C     0.86276   0.12179   0.40968   0.00000  Uiso   1.00
C192   C     0.84362   0.17297   0.06340   0.00000  Uiso   1.00
C193   C     0.91885   0.14169   0.06057   0.00000  Uiso   1.00
H194   H     0.94517   0.13510   0.07951   0.00000  Uiso   1.00
H195   H     0.74865   0.16616   0.06723   0.00000  Uiso   1.00
H196   H     0.69156   0.18117   0.02199   0.00000  Uiso   1.00
H197   H     0.86919   0.10813   0.36983   0.00000  Uiso   1.00
H198   H     0.91061   0.29411   0.20796   0.00000  Uiso   1.00
H199   H     0.94984   0.07807   0.13229   0.00000  Uiso   1.00
H200   H     0.89248   0.05794   0.13706   0.00000  Uiso   1.00
H201   H     0.98553   0.00550   0.11363   0.00000  Uiso   1.00
H202   H     0.92865   0.31973   0.11226   0.00000  Uiso   1.00
H203   H     0.93399   0.03572   0.03647   0.00000  Uiso   1.00
H204   H     0.98368   0.33292   0.01920   0.00000  Uiso   1.00
H205   H     0.75718   0.03819   0.28841   0.00000  Uiso   1.00
H206   H     0.99211   0.05295   0.03699   0.00000  Uiso   1.00
H207   H     0.76503   0.11256   0.16295   0.00000  Uiso   1.00
H208   H     0.73398   0.07818   0.21892   0.00000  Uiso   1.00
H209   H     0.71336   0.08479   0.16359   0.00000  Uiso   1.00
H210   H     0.79736   0.25419   0.04919   0.00000  Uiso   1.00
H211   H     0.85968   0.24374   0.03650   0.00000  Uiso   1.00
H212   H     0.78643   0.26791   0.14897   0.00000  Uiso   1.00
H213   H     0.85039   0.26152   0.13153   0.00000  Uiso   1.00
H214   H     0.86384   0.32054   0.06550   0.00000  Uiso   1.00
H215   H     0.82911   0.00299   0.13414   0.00000  Uiso   1.00
H216   H     0.75659   0.29603   0.28923   0.00000  Uiso   1.00
H217   H     0.79949   0.32732   0.08529   0.00000  Uiso   1.00
H218   H     0.97182   0.11406   0.19881   0.00000  Uiso   1.00
H219   H     0.69325   0.21980   0.30189   0.00000  Uiso   1.00
H220   H     0.94258   0.21968   0.30208   0.00000  Uiso   1.00
H221   H     0.92918   0.09747   0.41165   0.00000  Uiso   1.00
H222   H     0.95972   0.11104   0.48605   0.00000  Uiso   1.00
H223   H     0.71718   0.18079   0.42239   0.00000  Uiso   1.00
N224   N     0.71426   0.16668   0.25002   0.00000  Uiso   1.00
N225   N     0.95239   0.16665   0.25001   0.00000  Uiso   1.00
O226   O     0.79512   0.22775   0.25001   0.00000  Uiso   1.00
O227   O     0.80787   0.20192   0.08778   0.00000  Uiso   1.00
O228   O     0.87157   0.22774   0.25001   0.00000  Uiso   1.00
O229   O     0.77613   0.16666   0.32681   0.00000  Uiso   1.00
O230   O     0.85258   0.16665   0.32681   0.00000  Uiso   1.00
O231   O     0.79510   0.10559   0.25000   0.00000  Uiso   1.00
O232   O     0.87154   0.10558   0.25000   0.00000  Uiso   1.00
O233   O     0.81409   0.16668   0.17319   0.00000  Uiso   1.00
O234   O     0.89053   0.16667   0.17319   0.00000  Uiso   1.00
O235   O     0.92099   0.04078   0.19786   0.00000  Uiso   1.00
Zn236  Zn    0.78229   0.16667   0.25000   0.00000  Uiso   1.00
Zn237  Zn    0.88438   0.16666   0.25000   0.00000  Uiso   1.00
C238   C     0.16667   0.57994   0.25021   0.00000  Uiso   1.00
C239   C     0.12252   0.49195   0.41080   0.00000  Uiso   1.00
C240   C     0.21053   0.64454   0.22516   0.00000  Uiso   1.00
C241   C     0.14001   0.49734   0.35200   0.00000  Uiso   1.00
C242   C     0.21097   0.35398   0.22192   0.00000  Uiso   1.00
C243   C     0.16753   0.37575   0.24627   0.00000  Uiso   1.00
C244   C     0.12401   0.35487   0.26968   0.00000  Uiso   1.00
C245   C     0.12368   0.64550   0.27058   0.00000  Uiso   1.00
C246   C     0.16701   0.62400   0.24900   0.00000  Uiso   1.00
C247   C     0.31740   0.47075   0.22115   0.00000  Uiso   1.00
C248   C     0.03188   0.47018   0.22101   0.00000  Uiso   1.00
C249   C     0.14294   0.48808   0.49240   0.00000  Uiso   1.00
C250   C     0.01542   0.52953   0.27878   0.00000  Uiso   1.00
C251   C     0.30086   0.52944   0.27886   0.00000  Uiso   1.00
C252   C     0.16704   0.42000   0.24857   0.00000  Uiso   1.00
C253   C     0.19334   0.50046   0.14783   0.00000  Uiso   1.00
C254   C     0.25988   0.46057   0.00796   0.00000  Uiso   1.00
C255   C     0.20958   0.49612   0.08910   0.00000  Uiso   1.00
C256   C     0.07574   0.50470   0.44171   0.00000  Uiso   1.00
C257   C     0.06142   0.50601   0.49803   0.00000  Uiso   1.00
C258   C     0.09484   0.49848   0.02340   0.00000  Uiso   1.00
C259   C     0.26017   0.38328   0.14331   0.00000  Uiso   1.00
C260   C     0.15398   0.47819   0.43707   0.00000  Uiso   1.00
C261   C     0.28584   0.34745   0.10518   0.00000  Uiso   1.00
C262   C     0.29969   0.35981   0.04579   0.00000  Uiso   1.00
C263   C     0.06325   0.43488   0.19017   0.00000  Uiso   1.00
C264   C     0.15637   0.57571   0.06809   0.00000  Uiso   1.00
C265   C     0.15500   0.60437   0.11579   0.00000  Uiso   1.00
C266   C     0.16237   0.64997   0.09896   0.00000  Uiso   1.00
C267   C     0.18032   0.48618   0.01439   0.00000  Uiso   1.00
C268   C     0.22373   0.46494   0.48520   0.00000  Uiso   1.00
C269   C     0.23029   0.44820   0.43384   0.00000  Uiso   1.00
C270   C     0.19609   0.45513   0.40968   0.00000  Uiso   1.00
C271   C     0.17696   0.50631   0.06340   0.00000  Uiso   1.00
C272   C     0.25218   0.47502   0.06057   0.00000  Uiso   1.00
H273   H     0.27850   0.46844   0.07951   0.00000  Uiso   1.00
H274   H     0.08198   0.49949   0.06723   0.00000  Uiso   1.00
H275   H     0.02490   0.51451   0.02199   0.00000  Uiso   1.00
H276   H     0.20252   0.44146   0.36983   0.00000  Uiso   1.00
H277   H     0.24395   0.62745   0.20796   0.00000  Uiso   1.00
H278   H     0.28317   0.41140   0.13229   0.00000  Uiso   1.00
H279   H     0.22581   0.39128   0.13706   0.00000  Uiso   1.00
H280   H     0.31886   0.33883   0.11363   0.00000  Uiso   1.00
H281   H     0.26198   0.65306   0.11226   0.00000  Uiso   1.00
H282   H     0.26733   0.36905   0.03647   0.00000  Uiso   1.00
H283   H     0.31701   0.66625   0.01920   0.00000  Uiso   1.00
H284   H     0.09051   0.37152   0.28841   0.00000  Uiso   1.00
H285   H     0.32544   0.38628   0.03699   0.00000  Uiso   1.00
H286   H     0.09837   0.44589   0.16295   0.00000  Uiso   1.00
H287   H     0.06732   0.41151   0.21892   0.00000  Uiso   1.00
H288   H     0.04669   0.41812   0.16359   0.00000  Uiso   1.00
H289   H     0.13069   0.58753   0.04919   0.00000  Uiso   1.00
H290   H     0.19301   0.57708   0.03650   0.00000  Uiso   1.00
H291   H     0.11977   0.60124   0.14897   0.00000  Uiso   1.00
H292   H     0.18372   0.59486   0.13153   0.00000  Uiso   1.00
H293   H     0.19717   0.65387   0.06550   0.00000  Uiso   1.00
H294   H     0.16244   0.33632   0.13414   0.00000  Uiso   1.00
H295   H     0.08993   0.62937   0.28923   0.00000  Uiso   1.00
H296   H     0.13282   0.66066   0.08529   0.00000  Uiso   1.00
H297   H     0.30515   0.44740   0.19881   0.00000  Uiso   1.00
H298   H     0.02659   0.55313   0.30189   0.00000  Uiso   1.00
H299   H     0.27591   0.55301   0.30208   0.00000  Uiso   1.00
H300   H     0.26251   0.43081   0.41165   0.00000  Uiso   1.00
H301   H     0.29305   0.44437   0.48605   0.00000  Uiso   1.00
H302   H     0.05051   0.51413   0.42239   0.00000  Uiso   1.00
N303   N     0.04760   0.50001   0.25002   0.00000  Uiso   1.00
N304   N     0.28573   0.49998   0.25001   0.00000  Uiso   1.00
O305   O     0.12846   0.56108   0.25001   0.00000  Uiso   1.00
O306   O     0.14120   0.53526   0.08778   0.00000  Uiso   1.00
O307   O     0.20490   0.56107   0.25001   0.00000  Uiso   1.00
O308   O     0.10947   0.50000   0.32681   0.00000  Uiso   1.00
O309   O     0.18591   0.49999   0.32681   0.00000  Uiso   1.00
O310   O     0.12843   0.43893   0.25000   0.00000  Uiso   1.00
O311   O     0.20488   0.43892   0.25000   0.00000  Uiso   1.00
O312   O     0.14742   0.50001   0.17319   0.00000  Uiso   1.00
O313   O     0.22387   0.50000   0.17319   0.00000  Uiso   1.00
O314   O     0.25432   0.37411   0.19786   0.00000  Uiso   1.00
Zn315  Zn    0.11562   0.50001   0.25000   0.00000  Uiso   1.00
Zn316  Zn    0.21771   0.49999   0.25000   0.00000  Uiso   1.00
C317   C     0.50001   0.57994   0.25021   0.00000  Uiso   1.00
C318   C     0.45585   0.49195   0.41080   0.00000  Uiso   1.00
C319   C     0.54387   0.64454   0.22516   0.00000  Uiso   1.00
C320   C     0.47334   0.49734   0.35200   0.00000  Uiso   1.00
C321   C     0.54431   0.35398   0.22192   0.00000  Uiso   1.00
C322   C     0.50087   0.37575   0.24627   0.00000  Uiso   1.00
C323   C     0.45734   0.35487   0.26968   0.00000  Uiso   1.00
C324   C     0.45702   0.64550   0.27058   0.00000  Uiso   1.00
C325   C     0.50034   0.62400   0.24900   0.00000  Uiso   1.00
C326   C     0.65073   0.47075   0.22115   0.00000  Uiso   1.00
C327   C     0.36521   0.47018   0.22101   0.00000  Uiso   1.00
C328   C     0.47628   0.48808   0.49240   0.00000  Uiso   1.00
C329   C     0.34875   0.52953   0.27878   0.00000  Uiso   1.00
C330   C     0.63419   0.52944   0.27886   0.00000  Uiso   1.00
C331   C     0.50037   0.42000   0.24857   0.00000  Uiso   1.00
C332   C     0.52667   0.50046   0.14783   0.00000  Uiso   1.00
C333   C     0.59322   0.46057   0.00796   0.00000  Uiso   1.00
C334   C     0.54291   0.49612   0.08910   0.00000  Uiso   1.00
C335   C     0.40908   0.50470   0.44171   0.00000  Uiso   1.00
C336   C     0.39476   0.50601   0.49803   0.00000  Uiso   1.00
C337   C     0.42817   0.49848   0.02340   0.00000  Uiso   1.00
C338   C     0.59350   0.38328   0.14331   0.00000  Uiso   1.00
C339   C     0.48731   0.47819   0.43707   0.00000  Uiso   1.00
C340   C     0.61918   0.34745   0.10518   0.00000  Uiso   1.00
C341   C     0.63303   0.35981   0.04579   0.00000  Uiso   1.00
C342   C     0.39658   0.43488   0.19017   0.00000  Uiso   1.00
C343   C     0.48971   0.57571   0.06809   0.00000  Uiso   1.00
C344   C     0.48833   0.60437   0.11579   0.00000  Uiso   1.00
C345   C     0.49570   0.64997   0.09896   0.00000  Uiso   1.00
C346   C     0.51366   0.48618   0.01439   0.00000  Uiso   1.00
C347   C     0.55706   0.46494   0.48520   0.00000  Uiso   1.00
C348   C     0.56363   0.44820   0.43384   0.00000  Uiso   1.00
C349   C     0.52942   0.45513   0.40968   0.00000  Uiso   1.00
C350   C     0.51029   0.50631   0.06340   0.00000  Uiso   1.00
C351   C     0.58551   0.47502   0.06057   0.00000  Uiso   1.00
H352   H     0.61184   0.46844   0.07951   0.00000  Uiso   1.00
H353   H     0.41532   0.49949   0.06723   0.00000  Uiso   1.00
H354   H     0.35823   0.51451   0.02199   0.00000  Uiso   1.00
H355   H     0.53586   0.44146   0.36983   0.00000  Uiso   1.00
H356   H     0.57728   0.62745   0.20796   0.00000  Uiso   1.00
H357   H     0.61650   0.41140   0.13229   0.00000  Uiso   1.00
H358   H     0.55914   0.39128   0.13706   0.00000  Uiso   1.00
H359   H     0.65220   0.33883   0.11363   0.00000  Uiso   1.00
H360   H     0.59532   0.65306   0.11226   0.00000  Uiso   1.00
H361   H     0.60066   0.36905   0.03647   0.00000  Uiso   1.00
H362   H     0.65034   0.66625   0.01920   0.00000  Uiso   1.00
H363   H     0.42384   0.37152   0.28841   0.00000  Uiso   1.00
H364   H     0.65877   0.38628   0.03699   0.00000  Uiso   1.00
H365   H     0.43170   0.44589   0.16295   0.00000  Uiso   1.00
H366   H     0.40065   0.41151   0.21892   0.00000  Uiso   1.00
H367   H     0.38002   0.41812   0.16359   0.00000  Uiso   1.00
H368   H     0.46402   0.58753   0.04919   0.00000  Uiso   1.00
H369   H     0.52634   0.57708   0.03650   0.00000  Uiso   1.00
H370   H     0.45310   0.60124   0.14897   0.00000  Uiso   1.00
H371   H     0.51705   0.59486   0.13153   0.00000  Uiso   1.00
H372   H     0.53051   0.65387   0.06550   0.00000  Uiso   1.00
H373   H     0.49578   0.33632   0.13414   0.00000  Uiso   1.00
H374   H     0.42326   0.62937   0.28923   0.00000  Uiso   1.00
H375   H     0.46615   0.66066   0.08529   0.00000  Uiso   1.00
H376   H     0.63849   0.44740   0.19881   0.00000  Uiso   1.00
H377   H     0.35992   0.55313   0.30189   0.00000  Uiso   1.00
H378   H     0.60925   0.55301   0.30208   0.00000  Uiso   1.00
H379   H     0.59585   0.43081   0.41165   0.00000  Uiso   1.00
H380   H     0.62639   0.44437   0.48605   0.00000  Uiso   1.00
H381   H     0.38384   0.51413   0.42239   0.00000  Uiso   1.00
N382   N     0.38093   0.50001   0.25002   0.00000  Uiso   1.00
N383   N     0.61906   0.49998   0.25001   0.00000  Uiso   1.00
O384   O     0.46179   0.56108   0.25001   0.00000  Uiso   1.00
O385   O     0.47453   0.53526   0.08778   0.00000  Uiso   1.00
O386   O     0.53823   0.56107   0.25001   0.00000  Uiso   1.00
O387   O     0.44280   0.50000   0.32681   0.00000  Uiso   1.00
O388   O     0.51924   0.49999   0.32681   0.00000  Uiso   1.00
O389   O     0.46177   0.43893   0.25000   0.00000  Uiso   1.00
O390   O     0.53821   0.43892   0.25000   0.00000  Uiso   1.00
O391   O     0.48076   0.50001   0.17319   0.00000  Uiso   1.00
O392   O     0.55720   0.50000   0.17319   0.00000  Uiso   1.00
O393   O     0.58766   0.37411   0.19786   0.00000  Uiso   1.00
Zn394  Zn    0.44896   0.50001   0.25000   0.00000  Uiso   1.00
Zn395  Zn    0.55104   0.49999   0.25000   0.00000  Uiso   1.00
C396   C     0.83334   0.57994   0.25021   0.00000  Uiso   1.00
C397   C     0.78918   0.49195   0.41080   0.00000  Uiso   1.00
C398   C     0.87720   0.64454   0.22516   0.00000  Uiso   1.00
C399   C     0.80668   0.49734   0.35200   0.00000  Uiso   1.00
C400   C     0.87764   0.35398   0.22192   0.00000  Uiso   1.00
C401   C     0.83420   0.37575   0.24627   0.00000  Uiso   1.00
C402   C     0.79068   0.35487   0.26968   0.00000  Uiso   1.00
C403   C     0.79035   0.64550   0.27058   0.00000  Uiso   1.00
C404   C     0.83368   0.62400   0.24900   0.00000  Uiso   1.00
C405   C     0.98406   0.47075   0.22115   0.00000  Uiso   1.00
C406   C     0.69854   0.47018   0.22101   0.00000  Uiso   1.00
C407   C     0.80961   0.48808   0.49240   0.00000  Uiso   1.00
C408   C     0.68209   0.52953   0.27878   0.00000  Uiso   1.00
C409   C     0.96753   0.52944   0.27886   0.00000  Uiso   1.00
C410   C     0.83370   0.42000   0.24857   0.00000  Uiso   1.00
C411   C     0.86000   0.50046   0.14783   0.00000  Uiso   1.00
C412   C     0.92655   0.46057   0.00796   0.00000  Uiso   1.00
C413   C     0.87625   0.49612   0.08910   0.00000  Uiso   1.00
C414   C     0.74241   0.50470   0.44171   0.00000  Uiso   1.00
C415   C     0.72809   0.50601   0.49803   0.00000  Uiso   1.00
C416   C     0.76150   0.49848   0.02340   0.00000  Uiso   1.00
C417   C     0.92684   0.38328   0.14331   0.00000  Uiso   1.00
C418   C     0.82064   0.47819   0.43707   0.00000  Uiso   1.00
C419   C     0.95251   0.34745   0.10518   0.00000  Uiso   1.00
C420   C     0.96636   0.35981   0.04579   0.00000  Uiso   1.00
C421   C     0.72992   0.43488   0.19017   0.00000  Uiso   1.00
C422   C     0.82304   0.57571   0.06809   0.00000  Uiso   1.00
C423   C     0.82167   0.60437   0.11579   0.00000  Uiso   1.00
C424   C     0.82903   0.64997   0.09896   0.00000  Uiso   1.00
C425   C     0.84699   0.48618   0.01439   0.00000  Uiso   1.00
C426   C     0.89040   0.46494   0.48520   0.00000  Uiso   1.00
C427   C     0.89696   0.44820   0.43384   0.00000  Uiso   1.00
C428   C     0.86276   0.45513   0.40968   0.00000  Uiso   1.00
C429   C     0.84362   0.50631   0.06340   0.00000  Uiso   1.00
C430   C     0.91885   0.47502   0.06057   0.00000  Uiso   1.00
H431   H     0.94517   0.46844   0.07951   0.00000  Uiso   1.00
H432   H     0.74865   0.49949   0.06723   0.00000  Uiso   1.00
H433   H     0.69156   0.51451   0.02199   0.00000  Uiso   1.00
H434   H     0.86919   0.44146   0.36983   0.00000  Uiso   1.00
H435   H     0.91061   0.62745   0.20796   0.00000  Uiso   1.00
H436   H     0.94984   0.41140   0.13229   0.00000  Uiso   1.00
H437   H     0.89248   0.39128   0.13706   0.00000  Uiso   1.00
H438   H     0.98553   0.33883   0.11363   0.00000  Uiso   1.00
H439   H     0.92865   0.65306   0.11226   0.00000  Uiso   1.00
H440   H     0.93399   0.36905   0.03647   0.00000  Uiso   1.00
H441   H     0.98368   0.66625   0.01920   0.00000  Uiso   1.00
H442   H     0.75718   0.37152   0.28841   0.00000  Uiso   1.00
H443   H     0.99211   0.38628   0.03699   0.00000  Uiso   1.00
H444   H     0.76503   0.44589   0.16295   0.00000  Uiso   1.00
H445   H     0.73398   0.41151   0.21892   0.00000  Uiso   1.00
H446   H     0.71336   0.41812   0.16359   0.00000  Uiso   1.00
H447   H     0.79736   0.58753   0.04919   0.00000  Uiso   1.00
H448   H     0.85968   0.57708   0.03650   0.00000  Uiso   1.00
H449   H     0.78643   0.60124   0.14897   0.00000  Uiso   1.00
H450   H     0.85039   0.59486   0.13153   0.00000  Uiso   1.00
H451   H     0.86384   0.65387   0.06550   0.00000  Uiso   1.00
H452   H     0.82911   0.33632   0.13414   0.00000  Uiso   1.00
H453   H     0.75659   0.62937   0.28923   0.00000  Uiso   1.00
H454   H     0.79949   0.66066   0.08529   0.00000  Uiso   1.00
H455   H     0.97182   0.44740   0.19881   0.00000  Uiso   1.00
H456   H     0.69325   0.55313   0.30189   0.00000  Uiso   1.00
H457   H     0.94258   0.55301   0.30208   0.00000  Uiso   1.00
H458   H     0.92918   0.43081   0.41165   0.00000  Uiso   1.00
H459   H     0.95972   0.44437   0.48605   0.00000  Uiso   1.00
H460   H     0.71718   0.51413   0.42239   0.00000  Uiso   1.00
N461   N     0.71426   0.50001   0.25002   0.00000  Uiso   1.00
N462   N     0.95239   0.49998   0.25001   0.00000  Uiso   1.00
O463   O     0.79512   0.56108   0.25001   0.00000  Uiso   1.00
O464   O     0.80787   0.53526   0.08778   0.00000  Uiso   1.00
O465   O     0.87157   0.56107   0.25001   0.00000  Uiso   1.00
O466   O     0.77613   0.50000   0.32681   0.00000  Uiso   1.00
O467   O     0.85258   0.49999   0.32681   0.00000  Uiso   1.00
O468   O     0.79510   0.43893   0.25000   0.00000  Uiso   1.00
O469   O     0.87154   0.43892   0.25000   0.00000  Uiso   1.00
O470   O     0.81409   0.50001   0.17319   0.00000  Uiso   1.00
O471   O     0.89053   0.50000   0.17319   0.00000  Uiso   1.00
O472   O     0.92099   0.37411   0.19786   0.00000  Uiso   1.00
Zn473  Zn    0.78229   0.50001   0.25000   0.00000  Uiso   1.00
Zn474  Zn    0.88438   0.49999   0.25000   0.00000  Uiso   1.00
C475   C     0.16667   0.91328   0.25021   0.00000  Uiso   1.00
C476   C     0.12252   0.82529   0.41080   0.00000  Uiso   1.00
C477   C     0.21053   0.97787   0.22516   0.00000  Uiso   1.00
C478   C     0.14001   0.83067   0.35200   0.00000  Uiso   1.00
C479   C     0.21097   0.68731   0.22192   0.00000  Uiso   1.00
C480   C     0.16753   0.70908   0.24627   0.00000  Uiso   1.00
C481   C     0.12401   0.68820   0.26968   0.00000  Uiso   1.00
C482   C     0.12368   0.97883   0.27058   0.00000  Uiso   1.00
C483   C     0.16701   0.95733   0.24900   0.00000  Uiso   1.00
C484   C     0.31740   0.80408   0.22115   0.00000  Uiso   1.00
C485   C     0.03188   0.80351   0.22101   0.00000  Uiso   1.00
C486   C     0.14294   0.82141   0.49240   0.00000  Uiso   1.00
C487   C     0.01542   0.86286   0.27878   0.00000  Uiso   1.00
C488   C     0.30086   0.86278   0.27886   0.00000  Uiso   1.00
C489   C     0.16704   0.75334   0.24857   0.00000  Uiso   1.00
C490   C     0.19334   0.83380   0.14783   0.00000  Uiso   1.00
C491   C     0.25988   0.79390   0.00796   0.00000  Uiso   1.00
C492   C     0.20958   0.82945   0.08910   0.00000  Uiso   1.00
C493   C     0.07574   0.83804   0.44171   0.00000  Uiso   1.00
C494   C     0.06142   0.83934   0.49803   0.00000  Uiso   1.00
C495   C     0.09484   0.83181   0.02340   0.00000  Uiso   1.00
C496   C     0.26017   0.71662   0.14331   0.00000  Uiso   1.00
C497   C     0.15398   0.81152   0.43707   0.00000  Uiso   1.00
C498   C     0.28584   0.68078   0.10518   0.00000  Uiso   1.00
C499   C     0.29969   0.69314   0.04579   0.00000  Uiso   1.00
C500   C     0.06325   0.76821   0.19017   0.00000  Uiso   1.00
C501   C     0.15637   0.90904   0.06809   0.00000  Uiso   1.00
C502   C     0.15500   0.93771   0.11579   0.00000  Uiso   1.00
C503   C     0.16237   0.98330   0.09896   0.00000  Uiso   1.00
C504   C     0.18032   0.81951   0.01439   0.00000  Uiso   1.00
C505   C     0.22373   0.79827   0.48520   0.00000  Uiso   1.00
C506   C     0.23029   0.78153   0.43384   0.00000  Uiso   1.00
C507   C     0.19609   0.78846   0.40968   0.00000  Uiso   1.00
C508   C     0.17696   0.83964   0.06340   0.00000  Uiso   1.00
C509   C     0.25218   0.80835   0.06057   0.00000  Uiso   1.00
H510   H     0.27850   0.80177   0.07951   0.00000  Uiso   1.00
H511   H     0.08198   0.83283   0.06723   0.00000  Uiso   1.00
H512   H     0.02490   0.84784   0.02199   0.00000  Uiso   1.00
H513   H     0.20252   0.77479   0.36983   0.00000  Uiso   1.00
H514   H     0.24395   0.96078   0.20796   0.00000  Uiso   1.00
H515   H     0.28317   0.74474   0.13229   0.00000  Uiso   1.00
H516   H     0.22581   0.72461   0.13706   0.00000  Uiso   1.00
H517   H     0.31886   0.67217   0.11363   0.00000  Uiso   1.00
H518   H     0.26198   0.98639   0.11226   0.00000  Uiso   1.00
H519   H     0.26733   0.70238   0.03647   0.00000  Uiso   1.00
H520   H     0.31701   0.99958   0.01920   0.00000  Uiso   1.00
H521   H     0.09051   0.70485   0.28841   0.00000  Uiso   1.00
H522   H     0.32544   0.71961   0.03699   0.00000  Uiso   1.00
H523   H     0.09837   0.77922   0.16295   0.00000  Uiso   1.00
H524   H     0.06732   0.74484   0.21892   0.00000  Uiso   1.00
H525   H     0.04669   0.75145   0.16359   0.00000  Uiso   1.00
H526   H     0.13069   0.92086   0.04919   0.00000  Uiso   1.00
H527   H     0.19301   0.91041   0.03650   0.00000  Uiso   1.00
H528   H     0.11977   0.93457   0.14897   0.00000  Uiso   1.00
H529   H     0.18372   0.92819   0.13153   0.00000  Uiso   1.00
H530   H     0.19717   0.98721   0.06550   0.00000  Uiso   1.00
H531   H     0.16244   0.66965   0.13414   0.00000  Uiso   1.00
H532   H     0.08993   0.96270   0.28923   0.00000  Uiso   1.00
H533   H     0.13282   0.99399   0.08529   0.00000  Uiso   1.00
H534   H     0.30515   0.78073   0.19881   0.00000  Uiso   1.00
H535   H     0.02659   0.88646   0.30189   0.00000  Uiso   1.00
H536   H     0.27591   0.88634   0.30208   0.00000  Uiso   1.00
H537   H     0.26251   0.76414   0.41165   0.00000  Uiso   1.00
H538   H     0.29305   0.77771   0.48605   0.00000  Uiso   1.00
H539   H     0.05051   0.84746   0.42239   0.00000  Uiso   1.00
N540   N     0.04760   0.83334   0.25002   0.00000  Uiso   1.00
N541   N     0.28573   0.83331   0.25001   0.00000  Uiso   1.00
O542   O     0.12846   0.89442   0.25001   0.00000  Uiso   1.00
O543   O     0.14120   0.86859   0.08778   0.00000  Uiso   1.00
O544   O     0.20490   0.89441   0.25001   0.00000  Uiso   1.00
O545   O     0.10947   0.83333   0.32681   0.00000  Uiso   1.00
O546   O     0.18591   0.83332   0.32681   0.00000  Uiso   1.00
O547   O     0.12843   0.77226   0.25000   0.00000  Uiso   1.00
O548   O     0.20488   0.77225   0.25000   0.00000  Uiso   1.00
O549   O     0.14742   0.83335   0.17319   0.00000  Uiso   1.00
O550   O     0.22387   0.83334   0.17319   0.00000  Uiso   1.00
O551   O     0.25432   0.70745   0.19786   0.00000  Uiso   1.00
Zn552  Zn    0.11562   0.83334   0.25000   0.00000  Uiso   1.00
Zn553  Zn    0.21771   0.83333   0.25000   0.00000  Uiso   1.00
C554   C     0.50001   0.91328   0.25021   0.00000  Uiso   1.00
C555   C     0.45585   0.82529   0.41080   0.00000  Uiso   1.00
C556   C     0.54387   0.97787   0.22516   0.00000  Uiso   1.00
C557   C     0.47334   0.83067   0.35200   0.00000  Uiso   1.00
C558   C     0.54431   0.68731   0.22192   0.00000  Uiso   1.00
C559   C     0.50087   0.70908   0.24627   0.00000  Uiso   1.00
C560   C     0.45734   0.68820   0.26968   0.00000  Uiso   1.00
C561   C     0.45702   0.97883   0.27058   0.00000  Uiso   1.00
C562   C     0.50034   0.95733   0.24900   0.00000  Uiso   1.00
C563   C     0.65073   0.80408   0.22115   0.00000  Uiso   1.00
C564   C     0.36521   0.80351   0.22101   0.00000  Uiso   1.00
C565   C     0.47628   0.82141   0.49240   0.00000  Uiso   1.00
C566   C     0.34875   0.86286   0.27878   0.00000  Uiso   1.00
C567   C     0.63419   0.86278   0.27886   0.00000  Uiso   1.00
C568   C     0.50037   0.75334   0.24857   0.00000  Uiso   1.00
C569   C     0.52667   0.83380   0.14783   0.00000  Uiso   1.00
C570   C     0.59322   0.79390   0.00796   0.00000  Uiso   1.00
C571   C     0.54291   0.82945   0.08910   0.00000  Uiso   1.00
C572   C     0.40908   0.83804   0.44171   0.00000  Uiso   1.00
C573   C     0.39476   0.83934   0.49803   0.00000  Uiso   1.00
C574   C     0.42817   0.83181   0.02340   0.00000  Uiso   1.00
C575   C     0.59350   0.71662   0.14331   0.00000  Uiso   1.00
C576   C     0.48731   0.81152   0.43707   0.00000  Uiso   1.00
C577   C     0.61918   0.68078   0.10518   0.00000  Uiso   1.00
C578   C     0.63303   0.69314   0.04579   0.00000  Uiso   1.00
C579   C     0.39658   0.76821   0.19017   0.00000  Uiso   1.00
C580   C     0.48971   0.90904   0.06809   0.00000  Uiso   1.00
C581   C     0.48833   0.93771   0.11579   0.00000  Uiso   1.00
C582   C     0.49570   0.98330   0.09896   0.00000  Uiso   1.00
C583   C     0.51366   0.81951   0.01439   0.00000  Uiso   1.00
C584   C     0.55706   0.79827   0.48520   0.00000  Uiso   1.00
C585   C     0.56363   0.78153   0.43384   0.00000  Uiso   1.00
C586   C     0.52942   0.78846   0.40968   0.00000  Uiso   1.00
C587   C     0.51029   0.83964   0.06340   0.00000  Uiso   1.00
C588   C     0.58551   0.80835   0.06057   0.00000  Uiso   1.00
H589   H     0.61184   0.80177   0.07951   0.00000  Uiso   1.00
H590   H     0.41532   0.83283   0.06723   0.00000  Uiso   1.00
H591   H     0.35823   0.84784   0.02199   0.00000  Uiso   1.00
H592   H     0.53586   0.77479   0.36983   0.00000  Uiso   1.00
H593   H     0.57728   0.96078   0.20796   0.00000  Uiso   1.00
H594   H     0.61650   0.74474   0.13229   0.00000  Uiso   1.00
H595   H     0.55914   0.72461   0.13706   0.00000  Uiso   1.00
H596   H     0.65220   0.67217   0.11363   0.00000  Uiso   1.00
H597   H     0.59532   0.98639   0.11226   0.00000  Uiso   1.00
H598   H     0.60066   0.70238   0.03647   0.00000  Uiso   1.00
H599   H     0.65034   0.99958   0.01920   0.00000  Uiso   1.00
H600   H     0.42384   0.70485   0.28841   0.00000  Uiso   1.00
H601   H     0.65877   0.71961   0.03699   0.00000  Uiso   1.00
H602   H     0.43170   0.77922   0.16295   0.00000  Uiso   1.00
H603   H     0.40065   0.74484   0.21892   0.00000  Uiso   1.00
H604   H     0.38002   0.75145   0.16359   0.00000  Uiso   1.00
H605   H     0.46402   0.92086   0.04919   0.00000  Uiso   1.00
H606   H     0.52634   0.91041   0.03650   0.00000  Uiso   1.00
H607   H     0.45310   0.93457   0.14897   0.00000  Uiso   1.00
H608   H     0.51705   0.92819   0.13153   0.00000  Uiso   1.00
H609   H     0.53051   0.98721   0.06550   0.00000  Uiso   1.00
H610   H     0.49578   0.66965   0.13414   0.00000  Uiso   1.00
H611   H     0.42326   0.96270   0.28923   0.00000  Uiso   1.00
H612   H     0.46615   0.99399   0.08529   0.00000  Uiso   1.00
H613   H     0.63849   0.78073   0.19881   0.00000  Uiso   1.00
H614   H     0.35992   0.88646   0.30189   0.00000  Uiso   1.00
H615   H     0.60925   0.88634   0.30208   0.00000  Uiso   1.00
H616   H     0.59585   0.76414   0.41165   0.00000  Uiso   1.00
H617   H     0.62639   0.77771   0.48605   0.00000  Uiso   1.00
H618   H     0.38384   0.84746   0.42239   0.00000  Uiso   1.00
N619   N     0.38093   0.83334   0.25002   0.00000  Uiso   1.00
N620   N     0.61906   0.83331   0.25001   0.00000  Uiso   1.00
O621   O     0.46179   0.89442   0.25001   0.00000  Uiso   1.00
O622   O     0.47453   0.86859   0.08778   0.00000  Uiso   1.00
O623   O     0.53823   0.89441   0.25001   0.00000  Uiso   1.00
O624   O     0.44280   0.83333   0.32681   0.00000  Uiso   1.00
O625   O     0.51924   0.83332   0.32681   0.00000  Uiso   1.00
O626   O     0.46177   0.77226   0.25000   0.00000  Uiso   1.00
O627   O     0.53821   0.77225   0.25000   0.00000  Uiso   1.00
O628   O     0.48076   0.83335   0.17319   0.00000  Uiso   1.00
O629   O     0.55720   0.83334   0.17319   0.00000  Uiso   1.00
O630   O     0.58766   0.70745   0.19786   0.00000  Uiso   1.00
Zn631  Zn    0.44896   0.83334   0.25000   0.00000  Uiso   1.00
Zn632  Zn    0.55104   0.83333   0.25000   0.00000  Uiso   1.00
C633   C     0.83334   0.91328   0.25021   0.00000  Uiso   1.00
C634   C     0.78918   0.82529   0.41080   0.00000  Uiso   1.00
C635   C     0.87720   0.97787   0.22516   0.00000  Uiso   1.00
C636   C     0.80668   0.83067   0.35200   0.00000  Uiso   1.00
C637   C     0.87764   0.68731   0.22192   0.00000  Uiso   1.00
C638   C     0.83420   0.70908   0.24627   0.00000  Uiso   1.00
C639   C     0.79068   0.68820   0.26968   0.00000  Uiso   1.00
C640   C     0.79035   0.97883   0.27058   0.00000  Uiso   1.00
C641   C     0.83368   0.95733   0.24900   0.00000  Uiso   1.00
C642   C     0.98406   0.80408   0.22115   0.00000  Uiso   1.00
C643   C     0.69854   0.80351   0.22101   0.00000  Uiso   1.00
C644   C     0.80961   0.82141   0.49240   0.00000  Uiso   1.00
C645   C     0.68209   0.86286   0.27878   0.00000  Uiso   1.00
C646   C     0.96753   0.86278   0.27886   0.00000  Uiso   1.00
C647   C     0.83370   0.75334   0.24857   0.00000  Uiso   1.00
C648   C     0.86000   0.83380   0.14783   0.00000  Uiso   1.00
C649   C     0.92655   0.79390   0.00796   0.00000  Uiso   1.00
C650   C     0.87625   0.82945   0.08910   0.00000  Uiso   1.00
C651   C     0.74241   0.83804   0.44171   0.00000  Uiso   1.00
C652   C     0.72809   0.83934   0.49803   0.00000  Uiso   1.00
C653   C     0.76150   0.83181   0.02340   0.00000  Uiso   1.00
C654   C     0.92684   0.71662   0.14331   0.00000  Uiso   1.00
C655   C     0.82064   0.81152   0.43707   0.00000  Uiso   1.00
C656   C     0.95251   0.68078   0.10518   0.00000  Uiso   1.00
C657   C     0.96636   0.69314   0.04579   0.00000  Uiso   1.00
C658   C     0.72992   0.76821   0.19017   0.00000  Uiso   1.00
C659   C     0.82304   0.90904   0.06809   0.00000  Uiso   1.00
C660   C     0.82167   0.93771   0.11579   0.00000  Uiso   1.00
C661   C     0.82903   0.98330   0.09896   0.00000  Uiso   1.00
C662   C     0.84699   0.81951   0.01439   0.00000  Uiso   1.00
C663   C     0.89040   0.79827   0.48520   0.00000  Uiso   1.00
C664   C     0.89696   0.78153   0.43384   0.00000  Uiso   1.00
C665   C     0.86276   0.78846   0.40968   0.00000  Uiso   1.00
C666   C     0.84362   0.83964   0.06340   0.00000  Uiso   1.00
C667   C     0.91885   0.80835   0.06057   0.00000  Uiso   1.00
H668   H     0.94517   0.80177   0.07951   0.00000  Uiso   1.00
H669   H     0.74865   0.83283   0.06723   0.00000  Uiso   1.00
H670   H     0.69156   0.84784   0.02199   0.00000  Uiso   1.00
H671   H     0.86919   0.77479   0.36983   0.00000  Uiso   1.00
H672   H     0.91061   0.96078   0.20796   0.00000  Uiso   1.00
H673   H     0.94984   0.74474   0.13229   0.00000  Uiso   1.00
H674   H     0.89248   0.72461   0.13706   0.00000  Uiso   1.00
H675   H     0.98553   0.67217   0.11363   0.00000  Uiso   1.00
H676   H     0.92865   0.98639   0.11226   0.00000  Uiso   1.00
H677   H     0.93399   0.70238   0.03647   0.00000  Uiso   1.00
H678   H     0.98368   0.99958   0.01920   0.00000  Uiso   1.00
H679   H     0.75718   0.70485   0.28841   0.00000  Uiso   1.00
H680   H     0.99211   0.71961   0.03699   0.00000  Uiso   1.00
H681   H     0.76503   0.77922   0.16295   0.00000  Uiso   1.00
H682   H     0.73398   0.74484   0.21892   0.00000  Uiso   1.00
H683   H     0.71336   0.75145   0.16359   0.00000  Uiso   1.00
H684   H     0.79736   0.92086   0.04919   0.00000  Uiso   1.00
H685   H     0.85968   0.91041   0.03650   0.00000  Uiso   1.00
H686   H     0.78643   0.93457   0.14897   0.00000  Uiso   1.00
H687   H     0.85039   0.92819   0.13153   0.00000  Uiso   1.00
H688   H     0.86384   0.98721   0.06550   0.00000  Uiso   1.00
H689   H     0.82911   0.66965   0.13414   0.00000  Uiso   1.00
H690   H     0.75659   0.96270   0.28923   0.00000  Uiso   1.00
H691   H     0.79949   0.99399   0.08529   0.00000  Uiso   1.00
H692   H     0.97182   0.78073   0.19881   0.00000  Uiso   1.00
H693   H     0.69325   0.88646   0.30189   0.00000  Uiso   1.00
H694   H     0.94258   0.88634   0.30208   0.00000  Uiso   1.00
H695   H     0.92918   0.76414   0.41165   0.00000  Uiso   1.00
H696   H     0.95972   0.77771   0.48605   0.00000  Uiso   1.00
H697   H     0.71718   0.84746   0.42239   0.00000  Uiso   1.00
N698   N     0.71426   0.83334   0.25002   0.00000  Uiso   1.00
N699   N     0.95239   0.83331   0.25001   0.00000  Uiso   1.00
O700   O     0.79512   0.89442   0.25001   0.00000  Uiso   1.00
O701   O     0.80787   0.86859   0.08778   0.00000  Uiso   1.00
O702   O     0.87157   0.89441   0.25001   0.00000  Uiso   1.00
O703   O     0.77613   0.83333   0.32681   0.00000  Uiso   1.00
O704   O     0.85258   0.83332   0.32681   0.00000  Uiso   1.00
O705   O     0.79510   0.77226   0.25000   0.00000  Uiso   1.00
O706   O     0.87154   0.77225   0.25000   0.00000  Uiso   1.00
O707   O     0.81409   0.83335   0.17319   0.00000  Uiso   1.00
O708   O     0.89053   0.83334   0.17319   0.00000  Uiso   1.00
O709   O     0.92099   0.70745   0.19786   0.00000  Uiso   1.00
Zn710  Zn    0.78229   0.83334   0.25000   0.00000  Uiso   1.00
Zn711  Zn    0.88438   0.83333   0.25000   0.00000  Uiso   1.00
C712   C     0.16667   0.24661   0.75021   0.00000  Uiso   1.00
C713   C     0.12252   0.15862   0.91080   0.00000  Uiso   1.00
C714   C     0.21053   0.31120   0.72516   0.00000  Uiso   1.00
C715   C     0.14001   0.16400   0.85200   0.00000  Uiso   1.00
C716   C     0.21097   0.02065   0.72192   0.00000  Uiso   1.00
C717   C     0.16753   0.04241   0.74627   0.00000  Uiso   1.00
C718   C     0.12401   0.02154   0.76968   0.00000  Uiso   1.00
C719   C     0.12368   0.31216   0.77058   0.00000  Uiso   1.00
C720   C     0.16701   0.29066   0.74900   0.00000  Uiso   1.00
C721   C     0.31740   0.13742   0.72115   0.00000  Uiso   1.00
C722   C     0.03188   0.13685   0.72101   0.00000  Uiso   1.00
C723   C     0.14294   0.15474   0.99240   0.00000  Uiso   1.00
C724   C     0.01542   0.19619   0.77878   0.00000  Uiso   1.00
C725   C     0.30086   0.19611   0.77886   0.00000  Uiso   1.00
C726   C     0.16704   0.08667   0.74857   0.00000  Uiso   1.00
C727   C     0.19334   0.16713   0.64783   0.00000  Uiso   1.00
C728   C     0.25988   0.12724   0.50796   0.00000  Uiso   1.00
C729   C     0.20958   0.16279   0.58910   0.00000  Uiso   1.00
C730   C     0.07574   0.17137   0.94171   0.00000  Uiso   1.00
C731   C     0.06142   0.17268   0.99803   0.00000  Uiso   1.00
C732   C     0.09484   0.16515   0.52340   0.00000  Uiso   1.00
C733   C     0.26017   0.04995   0.64331   0.00000  Uiso   1.00
C734   C     0.15398   0.14486   0.93707   0.00000  Uiso   1.00
C735   C     0.28584   0.01411   0.60518   0.00000  Uiso   1.00
C736   C     0.29969   0.02648   0.54579   0.00000  Uiso   1.00
C737   C     0.06325   0.10154   0.69017   0.00000  Uiso   1.00
C738   C     0.15637   0.24237   0.56809   0.00000  Uiso   1.00
C739   C     0.15500   0.27104   0.61579   0.00000  Uiso   1.00
C740   C     0.16237   0.31663   0.59896   0.00000  Uiso   1.00
C741   C     0.18032   0.15285   0.51439   0.00000  Uiso   1.00
C742   C     0.22373   0.13160   0.98520   0.00000  Uiso   1.00
C743   C     0.23029   0.11486   0.93384   0.00000  Uiso   1.00
C744   C     0.19609   0.12179   0.90968   0.00000  Uiso   1.00
C745   C     0.17696   0.17297   0.56340   0.00000  Uiso   1.00
C746   C     0.25218   0.14169   0.56057   0.00000  Uiso   1.00
H747   H     0.27850   0.13510   0.57951   0.00000  Uiso   1.00
H748   H     0.08198   0.16616   0.56723   0.00000  Uiso   1.00
H749   H     0.02490   0.18117   0.52199   0.00000  Uiso   1.00
H750   H     0.20252   0.10813   0.86983   0.00000  Uiso   1.00
H751   H     0.24395   0.29411   0.70796   0.00000  Uiso   1.00
H752   H     0.28317   0.07807   0.63229   0.00000  Uiso   1.00
H753   H     0.22581   0.05794   0.63706   0.00000  Uiso   1.00
H754   H     0.31886   0.00550   0.61363   0.00000  Uiso   1.00
H755   H     0.26198   0.31973   0.61226   0.00000  Uiso   1.00
H756   H     0.26733   0.03572   0.53647   0.00000  Uiso   1.00
H757   H     0.31701   0.33292   0.51920   0.00000  Uiso   1.00
H758   H     0.09051   0.03819   0.78841   0.00000  Uiso   1.00
H759   H     0.32544   0.05295   0.53699   0.00000  Uiso   1.00
H760   H     0.09837   0.11256   0.66295   0.00000  Uiso   1.00
H761   H     0.06732   0.07818   0.71892   0.00000  Uiso   1.00
H762   H     0.04669   0.08479   0.66359   0.00000  Uiso   1.00
H763   H     0.13069   0.25419   0.54919   0.00000  Uiso   1.00
H764   H     0.19301   0.24374   0.53650   0.00000  Uiso   1.00
H765   H     0.11977   0.26791   0.64897   0.00000  Uiso   1.00
H766   H     0.18372   0.26152   0.63153   0.00000  Uiso   1.00
H767   H     0.19717   0.32054   0.56550   0.00000  Uiso   1.00
H768   H     0.16244   0.00299   0.63414   0.00000  Uiso   1.00
H769   H     0.08993   0.29603   0.78923   0.00000  Uiso   1.00
H770   H     0.13282   0.32732   0.58529   0.00000  Uiso   1.00
H771   H     0.30515   0.11406   0.69881   0.00000  Uiso   1.00
H772   H     0.02659   0.21980   0.80189   0.00000  Uiso   1.00
H773   H     0.27591   0.21968   0.80208   0.00000  Uiso   1.00
H774   H     0.26251   0.09747   0.91165   0.00000  Uiso   1.00
H775   H     0.29305   0.11104   0.98605   0.00000  Uiso   1.00
H776   H     0.05051   0.18079   0.92239   0.00000  Uiso   1.00
N777   N     0.04760   0.16668   0.75002   0.00000  Uiso   1.00
N778   N     0.28573   0.16665   0.75001   0.00000  Uiso   1.00
O779   O     0.12846   0.22775   0.75001   0.00000  Uiso   1.00
O780   O     0.14120   0.20192   0.58778   0.00000  Uiso   1.00
O781   O     0.20490   0.22774   0.75001   0.00000  Uiso   1.00
O782   O     0.10947   0.16666   0.82681   0.00000  Uiso   1.00
O783   O     0.18591   0.16665   0.82681   0.00000  Uiso   1.00
O784   O     0.12843   0.10559   0.75000   0.00000  Uiso   1.00
O785   O     0.20488   0.10558   0.75000   0.00000  Uiso   1.00
O786   O     0.14742   0.16668   0.67319   0.00000  Uiso   1.00
O787   O     0.22387   0.16667   0.67319   0.00000  Uiso   1.00
O788   O     0.25432   0.04078   0.69786   0.00000  Uiso   1.00
Zn789  Zn    0.11562   0.16667   0.75000   0.00000  Uiso   1.00
Zn790  Zn    0.21771   0.16666   0.75000   0.00000  Uiso   1.00
C791   C     0.50001   0.24661   0.75021   0.00000  Uiso   1.00
C792   C     0.45585   0.15862   0.91080   0.00000  Uiso   1.00
C793   C     0.54387   0.31120   0.72516   0.00000  Uiso   1.00
C794   C     0.47334   0.16400   0.85200   0.00000  Uiso   1.00
C795   C     0.54431   0.02065   0.72192   0.00000  Uiso   1.00
C796   C     0.50087   0.04241   0.74627   0.00000  Uiso   1.00
C797   C     0.45734   0.02154   0.76968   0.00000  Uiso   1.00
C798   C     0.45702   0.31216   0.77058   0.00000  Uiso   1.00
C799   C     0.50034   0.29066   0.74900   0.00000  Uiso   1.00
C800   C     0.65073   0.13742   0.72115   0.00000  Uiso   1.00
C801   C     0.36521   0.13685   0.72101   0.00000  Uiso   1.00
C802   C     0.47628   0.15474   0.99240   0.00000  Uiso   1.00
C803   C     0.34875   0.19619   0.77878   0.00000  Uiso   1.00
C804   C     0.63419   0.19611   0.77886   0.00000  Uiso   1.00
C805   C     0.50037   0.08667   0.74857   0.00000  Uiso   1.00
C806   C     0.52667   0.16713   0.64783   0.00000  Uiso   1.00
C807   C     0.59322   0.12724   0.50796   0.00000  Uiso   1.00
C808   C     0.54291   0.16279   0.58910   0.00000  Uiso   1.00
C809   C     0.40908   0.17137   0.94171   0.00000  Uiso   1.00
C810   C     0.39476   0.17268   0.99803   0.00000  Uiso   1.00
C811   C     0.42817   0.16515   0.52340   0.00000  Uiso   1.00
C812   C     0.59350   0.04995   0.64331   0.00000  Uiso   1.00
C813   C     0.48731   0.14486   0.93707   0.00000  Uiso   1.00
C814   C     0.61918   0.01411   0.60518   0.00000  Uiso   1.00
C815   C     0.63303   0.02648   0.54579   0.00000  Uiso   1.00
C816   C     0.39658   0.10154   0.69017   0.00000  Uiso   1.00
C817   C     0.48971   0.24237   0.56809   0.00000  Uiso   1.00
C818   C     0.48833   0.27104   0.61579   0.00000  Uiso   1.00
C819   C     0.49570   0.31663   0.59896   0.00000  Uiso   1.00
C820   C     0.51366   0.15285   0.51439   0.00000  Uiso   1.00
C821   C     0.55706   0.13160   0.98520   0.00000  Uiso   1.00
C822   C     0.56363   0.11486   0.93384   0.00000  Uiso   1.00
C823   C     0.52942   0.12179   0.90968   0.00000  Uiso   1.00
C824   C     0.51029   0.17297   0.56340   0.00000  Uiso   1.00
C825   C     0.58551   0.14169   0.56057   0.00000  Uiso   1.00
H826   H     0.61184   0.13510   0.57951   0.00000  Uiso   1.00
H827   H     0.41532   0.16616   0.56723   0.00000  Uiso   1.00
H828   H     0.35823   0.18117   0.52199   0.00000  Uiso   1.00
H829   H     0.53586   0.10813   0.86983   0.00000  Uiso   1.00
H830   H     0.57728   0.29411   0.70796   0.00000  Uiso   1.00
H831   H     0.61650   0.07807   0.63229   0.00000  Uiso   1.00
H832   H     0.55914   0.05794   0.63706   0.00000  Uiso   1.00
H833   H     0.65220   0.00550   0.61363   0.00000  Uiso   1.00
H834   H     0.59532   0.31973   0.61226   0.00000  Uiso   1.00
H835   H     0.60066   0.03572   0.53647   0.00000  Uiso   1.00
H836   H     0.65034   0.33292   0.51920   0.00000  Uiso   1.00
H837   H     0.42384   0.03819   0.78841   0.00000  Uiso   1.00
H838   H     0.65877   0.05295   0.53699   0.00000  Uiso   1.00
H839   H     0.43170   0.11256   0.66295   0.00000  Uiso   1.00
H840   H     0.40065   0.07818   0.71892   0.00000  Uiso   1.00
H841   H     0.38002   0.08479   0.66359   0.00000  Uiso   1.00
H842   H     0.46402   0.25419   0.54919   0.00000  Uiso   1.00
H843   H     0.52634   0.24374   0.53650   0.00000  Uiso   1.00
H844   H     0.45310   0.26791   0.64897   0.00000  Uiso   1.00
H845   H     0.51705   0.26152   0.63153   0.00000  Uiso   1.00
H846   H     0.53051   0.32054   0.56550   0.00000  Uiso   1.00
H847   H     0.49578   0.00299   0.63414   0.00000  Uiso   1.00
H848   H     0.42326   0.29603   0.78923   0.00000  Uiso   1.00
H849   H     0.46615   0.32732   0.58529   0.00000  Uiso   1.00
H850   H     0.63849   0.11406   0.69881   0.00000  Uiso   1.00
H851   H     0.35992   0.21980   0.80189   0.00000  Uiso   1.00
H852   H     0.60925   0.21968   0.80208   0.00000  Uiso   1.00
H853   H     0.59585   0.09747   0.91165   0.00000  Uiso   1.00
H854   H     0.62639   0.11104   0.98605   0.00000  Uiso   1.00
H855   H     0.38384   0.18079   0.92239   0.00000  Uiso   1.00
N856   N     0.38093   0.16668   0.75002   0.00000  Uiso   1.00
N857   N     0.61906   0.16665   0.75001   0.00000  Uiso   1.00
O858   O     0.46179   0.22775   0.75001   0.00000  Uiso   1.00
O859   O     0.47453   0.20192   0.58778   0.00000  Uiso   1.00
O860   O     0.53823   0.22774   0.75001   0.00000  Uiso   1.00
O861   O     0.44280   0.16666   0.82681   0.00000  Uiso   1.00
O862   O     0.51924   0.16665   0.82681   0.00000  Uiso   1.00
O863   O     0.46177   0.10559   0.75000   0.00000  Uiso   1.00
O864   O     0.53821   0.10558   0.75000   0.00000  Uiso   1.00
O865   O     0.48076   0.16668   0.67319   0.00000  Uiso   1.00
O866   O     0.55720   0.16667   0.67319   0.00000  Uiso   1.00
O867   O     0.58766   0.04078   0.69786   0.00000  Uiso   1.00
Zn868  Zn    0.44896   0.16667   0.75000   0.00000  Uiso   1.00
Zn869  Zn    0.55104   0.16666   0.75000   0.00000  Uiso   1.00
C870   C     0.83334   0.24661   0.75021   0.00000  Uiso   1.00
C871   C     0.78918   0.15862   0.91080   0.00000  Uiso   1.00
C872   C     0.87720   0.31120   0.72516   0.00000  Uiso   1.00
C873   C     0.80668   0.16400   0.85200   0.00000  Uiso   1.00
C874   C     0.87764   0.02065   0.72192   0.00000  Uiso   1.00
C875   C     0.83420   0.04241   0.74627   0.00000  Uiso   1.00
C876   C     0.79068   0.02154   0.76968   0.00000  Uiso   1.00
C877   C     0.79035   0.31216   0.77058   0.00000  Uiso   1.00
C878   C     0.83368   0.29066   0.74900   0.00000  Uiso   1.00
C879   C     0.98406   0.13742   0.72115   0.00000  Uiso   1.00
C880   C     0.69854   0.13685   0.72101   0.00000  Uiso   1.00
C881   C     0.80961   0.15474   0.99240   0.00000  Uiso   1.00
C882   C     0.68209   0.19619   0.77878   0.00000  Uiso   1.00
C883   C     0.96753   0.19611   0.77886   0.00000  Uiso   1.00
C884   C     0.83370   0.08667   0.74857   0.00000  Uiso   1.00
C885   C     0.86000   0.16713   0.64783   0.00000  Uiso   1.00
C886   C     0.92655   0.12724   0.50796   0.00000  Uiso   1.00
C887   C     0.87625   0.16279   0.58910   0.00000  Uiso   1.00
C888   C     0.74241   0.17137   0.94171   0.00000  Uiso   1.00
C889   C     0.72809   0.17268   0.99803   0.00000  Uiso   1.00
C890   C     0.76150   0.16515   0.52340   0.00000  Uiso   1.00
C891   C     0.92684   0.04995   0.64331   0.00000  Uiso   1.00
C892   C     0.82064   0.14486   0.93707   0.00000  Uiso   1.00
C893   C     0.95251   0.01411   0.60518   0.00000  Uiso   1.00
C894   C     0.96636   0.02648   0.54579   0.00000  Uiso   1.00
C895   C     0.72992   0.10154   0.69017   0.00000  Uiso   1.00
C896   C     0.82304   0.24237   0.56809   0.00000  Uiso   1.00
C897   C     0.82167   0.27104   0.61579   0.00000  Uiso   1.00
C898   C     0.82903   0.31663   0.59896   0.00000  Uiso   1.00
C899   C     0.84699   0.15285   0.51439   0.00000  Uiso   1.00
C900   C     0.89040   0.13160   0.98520   0.00000  Uiso   1.00
C901   C     0.89696   0.11486   0.93384   0.00000  Uiso   1.00
C902   C     0.86276   0.12179   0.90968   0.00000  Uiso   1.00
C903   C     0.84362   0.17297   0.56340   0.00000  Uiso   1.00
C904   C     0.91885   0.14169   0.56057   0.00000  Uiso   1.00
H905   H     0.94517   0.13510   0.57951   0.00000  Uiso   1.00
H906   H     0.74865   0.16616   0.56723   0.00000  Uiso   1.00
H907   H     0.69156   0.18117   0.52199   0.00000  Uiso   1.00
H908   H     0.86919   0.10813   0.86983   0.00000  Uiso   1.00
H909   H     0.91061   0.29411   0.70796   0.00000  Uiso   1.00
H910   H     0.94984   0.07807   0.63229   0.00000  Uiso   1.00
H911   H     0.89248   0.05794   0.63706   0.00000  Uiso   1.00
H912   H     0.98553   0.00550   0.61363   0.00000  Uiso   1.00
H913   H     0.92865   0.31973   0.61226   0.00000  Uiso   1.00
H914   H     0.93399   0.03572   0.53647   0.00000  Uiso   1.00
H915   H     0.98368   0.33292   0.51920   0.00000  Uiso   1.00
H916   H     0.75718   0.03819   0.78841   0.00000  Uiso   1.00
H917   H     0.99211   0.05295   0.53699   0.00000  Uiso   1.00
H918   H     0.76503   0.11256   0.66295   0.00000  Uiso   1.00
H919   H     0.73398   0.07818   0.71892   0.00000  Uiso   1.00
H920   H     0.71336   0.08479   0.66359   0.00000  Uiso   1.00
H921   H     0.79736   0.25419   0.54919   0.00000  Uiso   1.00
H922   H     0.85968   0.24374   0.53650   0.00000  Uiso   1.00
H923   H     0.78643   0.26791   0.64897   0.00000  Uiso   1.00
H924   H     0.85039   0.26152   0.63153   0.00000  Uiso   1.00
H925   H     0.86384   0.32054   0.56550   0.00000  Uiso   1.00
H926   H     0.82911   0.00299   0.63414   0.00000  Uiso   1.00
H927   H     0.75659   0.29603   0.78923   0.00000  Uiso   1.00
H928   H     0.79949   0.32732   0.58529   0.00000  Uiso   1.00
H929   H     0.97182   0.11406   0.69881   0.00000  Uiso   1.00
H930   H     0.69325   0.21980   0.80189   0.00000  Uiso   1.00
H931   H     0.94258   0.21968   0.80208   0.00000  Uiso   1.00
H932   H     0.92918   0.09747   0.91165   0.00000  Uiso   1.00
H933   H     0.95972   0.11104   0.98605   0.00000  Uiso   1.00
H934   H     0.71718   0.18079   0.92239   0.00000  Uiso   1.00
N935   N     0.71426   0.16668   0.75002   0.00000  Uiso   1.00
N936   N     0.95239   0.16665   0.75001   0.00000  Uiso   1.00
O937   O     0.79512   0.22775   0.75001   0.00000  Uiso   1.00
O938   O     0.80787   0.20192   0.58778   0.00000  Uiso   1.00
O939   O     0.87157   0.22774   0.75001   0.00000  Uiso   1.00
O940   O     0.77613   0.16666   0.82681   0.00000  Uiso   1.00
O941   O     0.85258   0.16665   0.82681   0.00000  Uiso   1.00
O942   O     0.79510   0.10559   0.75000   0.00000  Uiso   1.00
O943   O     0.87154   0.10558   0.75000   0.00000  Uiso   1.00
O944   O     0.81409   0.16668   0.67319   0.00000  Uiso   1.00
O945   O     0.89053   0.16667   0.67319   0.00000  Uiso   1.00
O946   O     0.92099   0.04078   0.69786   0.00000  Uiso   1.00
Zn947  Zn    0.78229   0.16667   0.75000   0.00000  Uiso   1.00
Zn948  Zn    0.88438   0.16666   0.75000   0.00000  Uiso   1.00
C949   C     0.16667   0.57994   0.75021   0.00000  Uiso   1.00
C950   C     0.12252   0.49195   0.91080   0.00000  Uiso   1.00
C951   C     0.21053   0.64454   0.72516   0.00000  Uiso   1.00
C952   C     0.14001   0.49734   0.85200   0.00000  Uiso   1.00
C953   C     0.21097   0.35398   0.72192   0.00000  Uiso   1.00
C954   C     0.16753   0.37575   0.74627   0.00000  Uiso   1.00
C955   C     0.12401   0.35487   0.76968   0.00000  Uiso   1.00
C956   C     0.12368   0.64550   0.77058   0.00000  Uiso   1.00
C957   C     0.16701   0.62400   0.74900   0.00000  Uiso   1.00
C958   C     0.31740   0.47075   0.72115   0.00000  Uiso   1.00
C959   C     0.03188   0.47018   0.72101   0.00000  Uiso   1.00
C960   C     0.14294   0.48808   0.99240   0.00000  Uiso   1.00
C961   C     0.01542   0.52953   0.77878   0.00000  Uiso   1.00
C962   C     0.30086   0.52944   0.77886   0.00000  Uiso   1.00
C963   C     0.16704   0.42000   0.74857   0.00000  Uiso   1.00
C964   C     0.19334   0.50046   0.64783   0.00000  Uiso   1.00
C965   C     0.25988   0.46057   0.50796   0.00000  Uiso   1.00
C966   C     0.20958   0.49612   0.58910   0.00000  Uiso   1.00
C967   C     0.07574   0.50470   0.94171   0.00000  Uiso   1.00
C968   C     0.06142   0.50601   0.99803   0.00000  Uiso   1.00
C969   C     0.09484   0.49848   0.52340   0.00000  Uiso   1.00
C970   C     0.26017   0.38328   0.64331   0.00000  Uiso   1.00
C971   C     0.15398   0.47819   0.93707   0.00000  Uiso   1.00
C972   C     0.28584   0.34745   0.60518   0.00000  Uiso   1.00
C973   C     0.29969   0.35981   0.54579   0.00000  Uiso   1.00
C974   C     0.06325   0.43488   0.69017   0.00000  Uiso   1.00
C975   C     0.15637   0.57571   0.56809   0.00000  Uiso   1.00
C976   C     0.15500   0.60437   0.61579   0.00000  Uiso   1.00
C977   C     0.16237   0.64997   0.59896   0.00000  Uiso   1.00
C978   C     0.18032   0.48618   0.51439   0.00000  Uiso   1.00
C979   C     0.22373   0.46494   0.98520   0.00000  Uiso   1.00
C980   C     0.23029   0.44820   0.93384   0.00000  Uiso   1.00
C981   C     0.19609   0.45513   0.90968   0.00000  Uiso   1.00
C982   C     0.17696   0.50631   0.56340   0.00000  Uiso   1.00
C983   C     0.25218   0.47502   0.56057   0.00000  Uiso   1.00
H984   H     0.27850   0.46844   0.57951   0.00000  Uiso   1.00
H985   H     0.08198   0.49949   0.56723   0.00000  Uiso   1.00
H986   H     0.02490   0.51451   0.52199   0.00000  Uiso   1.00
H987   H     0.20252   0.44146   0.86983   0.00000  Uiso   1.00
H988   H     0.24395   0.62745   0.70796   0.00000  Uiso   1.00
H989   H     0.28317   0.41140   0.63229   0.00000  Uiso   1.00
H990   H     0.22581   0.39128   0.63706   0.00000  Uiso   1.00
H991   H     0.31886   0.33883   0.61363   0.00000  Uiso   1.00
H992   H     0.26198   0.65306   0.61226   0.00000  Uiso   1.00
H993   H     0.26733   0.36905   0.53647   0.00000  Uiso   1.00
H994   H     0.31701   0.66625   0.51920   0.00000  Uiso   1.00
H995   H     0.09051   0.37152   0.78841   0.00000  Uiso   1.00
H996   H     0.32544   0.38628   0.53699   0.00000  Uiso   1.00
H997   H     0.09837   0.44589   0.66295   0.00000  Uiso   1.00
H998   H     0.06732   0.41151   0.71892   0.00000  Uiso   1.00
H999   H     0.04669   0.41812   0.66359   0.00000  Uiso   1.00
H1000  H     0.13069   0.58753   0.54919   0.00000  Uiso   1.00
H1001  H     0.19301   0.57708   0.53650   0.00000  Uiso   1.00
H1002  H     0.11977   0.60124   0.64897   0.00000  Uiso   1.00
H1003  H     0.18372   0.59486   0.63153   0.00000  Uiso   1.00
H1004  H     0.19717   0.65387   0.56550   0.00000  Uiso   1.00
H1005  H     0.16244   0.33632   0.63414   0.00000  Uiso   1.00
H1006  H     0.08993   0.62937   0.78923   0.00000  Uiso   1.00
H1007  H     0.13282   0.66066   0.58529   0.00000  Uiso   1.00
H1008  H     0.30515   0.44740   0.69881   0.00000  Uiso   1.00
H1009  H     0.02659   0.55313   0.80189   0.00000  Uiso   1.00
H1010  H     0.27591   0.55301   0.80208   0.00000  Uiso   1.00
H1011  H     0.26251   0.43081   0.91165   0.00000  Uiso   1.00
H1012  H     0.29305   0.44437   0.98605   0.00000  Uiso   1.00
H1013  H     0.05051   0.51413   0.92239   0.00000  Uiso   1.00
N1014  N     0.04760   0.50001   0.75002   0.00000  Uiso   1.00
N1015  N     0.28573   0.49998   0.75001   0.00000  Uiso   1.00
O1016  O     0.12846   0.56108   0.75001   0.00000  Uiso   1.00
O1017  O     0.14120   0.53526   0.58778   0.00000  Uiso   1.00
O1018  O     0.20490   0.56107   0.75001   0.00000  Uiso   1.00
O1019  O     0.10947   0.50000   0.82681   0.00000  Uiso   1.00
O1020  O     0.18591   0.49999   0.82681   0.00000  Uiso   1.00
O1021  O     0.12843   0.43893   0.75000   0.00000  Uiso   1.00
O1022  O     0.20488   0.43892   0.75000   0.00000  Uiso   1.00
O1023  O     0.14742   0.50001   0.67319   0.00000  Uiso   1.00
O1024  O     0.22387   0.50000   0.67319   0.00000  Uiso   1.00
O1025  O     0.25432   0.37411   0.69786   0.00000  Uiso   1.00
Zn1026 Zn    0.11562   0.50001   0.75000   0.00000  Uiso   1.00
Zn1027 Zn    0.21771   0.49999   0.75000   0.00000  Uiso   1.00
C1028  C     0.50001   0.57994   0.75021   0.00000  Uiso   1.00
C1029  C     0.45585   0.49195   0.91080   0.00000  Uiso   1.00
C1030  C     0.54387   0.64454   0.72516   0.00000  Uiso   1.00
C1031  C     0.47334   0.49734   0.85200   0.00000  Uiso   1.00
C1032  C     0.54431   0.35398   0.72192   0.00000  Uiso   1.00
C1033  C     0.50087   0.37575   0.74627   0.00000  Uiso   1.00
C1034  C     0.45734   0.35487   0.76968   0.00000  Uiso   1.00
C1035  C     0.45702   0.64550   0.77058   0.00000  Uiso   1.00
C1036  C     0.50034   0.62400   0.74900   0.00000  Uiso   1.00
C1037  C     0.65073   0.47075   0.72115   0.00000  Uiso   1.00
C1038  C     0.36521   0.47018   0.72101   0.00000  Uiso   1.00
C1039  C     0.47628   0.48808   0.99240   0.00000  Uiso   1.00
C1040  C     0.34875   0.52953   0.77878   0.00000  Uiso   1.00
C1041  C     0.63419   0.52944   0.77886   0.00000  Uiso   1.00
C1042  C     0.50037   0.42000   0.74857   0.00000  Uiso   1.00
C1043  C     0.52667   0.50046   0.64783   0.00000  Uiso   1.00
C1044  C     0.59322   0.46057   0.50796   0.00000  Uiso   1.00
C1045  C     0.54291   0.49612   0.58910   0.00000  Uiso   1.00
C1046  C     0.40908   0.50470   0.94171   0.00000  Uiso   1.00
C1047  C     0.39476   0.50601   0.99803   0.00000  Uiso   1.00
C1048  C     0.42817   0.49848   0.52340   0.00000  Uiso   1.00
C1049  C     0.59350   0.38328   0.64331   0.00000  Uiso   1.00
C1050  C     0.48731   0.47819   0.93707   0.00000  Uiso   1.00
C1051  C     0.61918   0.34745   0.60518   0.00000  Uiso   1.00
C1052  C     0.63303   0.35981   0.54579   0.00000  Uiso   1.00
C1053  C     0.39658   0.43488   0.69017   0.00000  Uiso   1.00
C1054  C     0.48971   0.57571   0.56809   0.00000  Uiso   1.00
C1055  C     0.48833   0.60437   0.61579   0.00000  Uiso   1.00
C1056  C     0.49570   0.64997   0.59896   0.00000  Uiso   1.00
C1057  C     0.51366   0.48618   0.51439   0.00000  Uiso   1.00
C1058  C     0.55706   0.46494   0.98520   0.00000  Uiso   1.00
C1059  C     0.56363   0.44820   0.93384   0.00000  Uiso   1.00
C1060  C     0.52942   0.45513   0.90968   0.00000  Uiso   1.00
C1061  C     0.51029   0.50631   0.56340   0.00000  Uiso   1.00
C1062  C     0.58551   0.47502   0.56057   0.00000  Uiso   1.00
H1063  H     0.61184   0.46844   0.57951   0.00000  Uiso   1.00
H1064  H     0.41532   0.49949   0.56723   0.00000  Uiso   1.00
H1065  H     0.35823   0.51451   0.52199   0.00000  Uiso   1.00
H1066  H     0.53586   0.44146   0.86983   0.00000  Uiso   1.00
H1067  H     0.57728   0.62745   0.70796   0.00000  Uiso   1.00
H1068  H     0.61650   0.41140   0.63229   0.00000  Uiso   1.00
H1069  H     0.55914   0.39128   0.63706   0.00000  Uiso   1.00
H1070  H     0.65220   0.33883   0.61363   0.00000  Uiso   1.00
H1071  H     0.59532   0.65306   0.61226   0.00000  Uiso   1.00
H1072  H     0.60066   0.36905   0.53647   0.00000  Uiso   1.00
H1073  H     0.65034   0.66625   0.51920   0.00000  Uiso   1.00
H1074  H     0.42384   0.37152   0.78841   0.00000  Uiso   1.00
H1075  H     0.65877   0.38628   0.53699   0.00000  Uiso   1.00
H1076  H     0.43170   0.44589   0.66295   0.00000  Uiso   1.00
H1077  H     0.40065   0.41151   0.71892   0.00000  Uiso   1.00
H1078  H     0.38002   0.41812   0.66359   0.00000  Uiso   1.00
H1079  H     0.46402   0.58753   0.54919   0.00000  Uiso   1.00
H1080  H     0.52634   0.57708   0.53650   0.00000  Uiso   1.00
H1081  H     0.45310   0.60124   0.64897   0.00000  Uiso   1.00
H1082  H     0.51705   0.59486   0.63153   0.00000  Uiso   1.00
H1083  H     0.53051   0.65387   0.56550   0.00000  Uiso   1.00
H1084  H     0.49578   0.33632   0.63414   0.00000  Uiso   1.00
H1085  H     0.42326   0.62937   0.78923   0.00000  Uiso   1.00
H1086  H     0.46615   0.66066   0.58529   0.00000  Uiso   1.00
H1087  H     0.63849   0.44740   0.69881   0.00000  Uiso   1.00
H1088  H     0.35992   0.55313   0.80189   0.00000  Uiso   1.00
H1089  H     0.60925   0.55301   0.80208   0.00000  Uiso   1.00
H1090  H     0.59585   0.43081   0.91165   0.00000  Uiso   1.00
H1091  H     0.62639   0.44437   0.98605   0.00000  Uiso   1.00
H1092  H     0.38384   0.51413   0.92239   0.00000  Uiso   1.00
N1093  N     0.38093   0.50001   0.75002   0.00000  Uiso   1.00
N1094  N     0.61906   0.49998   0.75001   0.00000  Uiso   1.00
O1095  O     0.46179   0.56108   0.75001   0.00000  Uiso   1.00
O1096  O     0.47453   0.53526   0.58778   0.00000  Uiso   1.00
O1097  O     0.53823   0.56107   0.75001   0.00000  Uiso   1.00
O1098  O     0.44280   0.50000   0.82681   0.00000  Uiso   1.00
O1099  O     0.51924   0.49999   0.82681   0.00000  Uiso   1.00
O1100  O     0.46177   0.43893   0.75000   0.00000  Uiso   1.00
O1101  O     0.53821   0.43892   0.75000   0.00000  Uiso   1.00
O1102  O     0.48076   0.50001   0.67319   0.00000  Uiso   1.00
O1103  O     0.55720   0.50000   0.67319   0.00000  Uiso   1.00
O1104  O     0.58766   0.37411   0.69786   0.00000  Uiso   1.00
Zn1105 Zn    0.44896   0.50001   0.75000   0.00000  Uiso   1.00
Zn1106 Zn    0.55104   0.49999   0.75000   0.00000  Uiso   1.00
C1107  C     0.83334   0.57994   0.75021   0.00000  Uiso   1.00
C1108  C     0.78918   0.49195   0.91080   0.00000  Uiso   1.00
C1109  C     0.87720   0.64454   0.72516   0.00000  Uiso   1.00
C1110  C     0.80668   0.49734   0.85200   0.00000  Uiso   1.00
C1111  C     0.87764   0.35398   0.72192   0.00000  Uiso   1.00
C1112  C     0.83420   0.37575   0.74627   0.00000  Uiso   1.00
C1113  C     0.79068   0.35487   0.76968   0.00000  Uiso   1.00
C1114  C     0.79035   0.64550   0.77058   0.00000  Uiso   1.00
C1115  C     0.83368   0.62400   0.74900   0.00000  Uiso   1.00
C1116  C     0.98406   0.47075   0.72115   0.00000  Uiso   1.00
C1117  C     0.69854   0.47018   0.72101   0.00000  Uiso   1.00
C1118  C     0.80961   0.48808   0.99240   0.00000  Uiso   1.00
C1119  C     0.68209   0.52953   0.77878   0.00000  Uiso   1.00
C1120  C     0.96753   0.52944   0.77886   0.00000  Uiso   1.00
C1121  C     0.83370   0.42000   0.74857   0.00000  Uiso   1.00
C1122  C     0.86000   0.50046   0.64783   0.00000  Uiso   1.00
C1123  C     0.92655   0.46057   0.50796   0.00000  Uiso   1.00
C1124  C     0.87625   0.49612   0.58910   0.00000  Uiso   1.00
C1125  C     0.74241   0.50470   0.94171   0.00000  Uiso   1.00
C1126  C     0.72809   0.50601   0.99803   0.00000  Uiso   1.00
C1127  C     0.76150   0.49848   0.52340   0.00000  Uiso   1.00
C1128  C     0.92684   0.38328   0.64331   0.00000  Uiso   1.00
C1129  C     0.82064   0.47819   0.93707   0.00000  Uiso   1.00
C1130  C     0.95251   0.34745   0.60518   0.00000  Uiso   1.00
C1131  C     0.96636   0.35981   0.54579   0.00000  Uiso   1.00
C1132  C     0.72992   0.43488   0.69017   0.00000  Uiso   1.00
C1133  C     0.82304   0.57571   0.56809   0.00000  Uiso   1.00
C1134  C     0.82167   0.60437   0.61579   0.00000  Uiso   1.00
C1135  C     0.82903   0.64997   0.59896   0.00000  Uiso   1.00
C1136  C     0.84699   0.48618   0.51439   0.00000  Uiso   1.00
C1137  C     0.89040   0.46494   0.98520   0.00000  Uiso   1.00
C1138  C     0.89696   0.44820   0.93384   0.00000  Uiso   1.00
C1139  C     0.86276   0.45513   0.90968   0.00000  Uiso   1.00
C1140  C     0.84362   0.50631   0.56340   0.00000  Uiso   1.00
C1141  C     0.91885   0.47502   0.56057   0.00000  Uiso   1.00
H1142  H     0.94517   0.46844   0.57951   0.00000  Uiso   1.00
H1143  H     0.74865   0.49949   0.56723   0.00000  Uiso   1.00
H1144  H     0.69156   0.51451   0.52199   0.00000  Uiso   1.00
H1145  H     0.86919   0.44146   0.86983   0.00000  Uiso   1.00
H1146  H     0.91061   0.62745   0.70796   0.00000  Uiso   1.00
H1147  H     0.94984   0.41140   0.63229   0.00000  Uiso   1.00
H1148  H     0.89248   0.39128   0.63706   0.00000  Uiso   1.00
H1149  H     0.98553   0.33883   0.61363   0.00000  Uiso   1.00
H1150  H     0.92865   0.65306   0.61226   0.00000  Uiso   1.00
H1151  H     0.93399   0.36905   0.53647   0.00000  Uiso   1.00
H1152  H     0.98368   0.66625   0.51920   0.00000  Uiso   1.00
H1153  H     0.75718   0.37152   0.78841   0.00000  Uiso   1.00
H1154  H     0.99211   0.38628   0.53699   0.00000  Uiso   1.00
H1155  H     0.76503   0.44589   0.66295   0.00000  Uiso   1.00
H1156  H     0.73398   0.41151   0.71892   0.00000  Uiso   1.00
H1157  H     0.71336   0.41812   0.66359   0.00000  Uiso   1.00
H1158  H     0.79736   0.58753   0.54919   0.00000  Uiso   1.00
H1159  H     0.85968   0.57708   0.53650   0.00000  Uiso   1.00
H1160  H     0.78643   0.60124   0.64897   0.00000  Uiso   1.00
H1161  H     0.85039   0.59486   0.63153   0.00000  Uiso   1.00
H1162  H     0.86384   0.65387   0.56550   0.00000  Uiso   1.00
H1163  H     0.82911   0.33632   0.63414   0.00000  Uiso   1.00
H1164  H     0.75659   0.62937   0.78923   0.00000  Uiso   1.00
H1165  H     0.79949   0.66066   0.58529   0.00000  Uiso   1.00
H1166  H     0.97182   0.44740   0.69881   0.00000  Uiso   1.00
H1167  H     0.69325   0.55313   0.80189   0.00000  Uiso   1.00
H1168  H     0.94258   0.55301   0.80208   0.00000  Uiso   1.00
H1169  H     0.92918   0.43081   0.91165   0.00000  Uiso   1.00
H1170  H     0.95972   0.44437   0.98605   0.00000  Uiso   1.00
H1171  H     0.71718   0.51413   0.92239   0.00000  Uiso   1.00
N1172  N     0.71426   0.50001   0.75002   0.00000  Uiso   1.00
N1173  N     0.95239   0.49998   0.75001   0.00000  Uiso   1.00
O1174  O     0.79512   0.56108   0.75001   0.00000  Uiso   1.00
O1175  O     0.80787   0.53526   0.58778   0.00000  Uiso   1.00
O1176  O     0.87157   0.56107   0.75001   0.00000  Uiso   1.00
O1177  O     0.77613   0.50000   0.82681   0.00000  Uiso   1.00
O1178  O     0.85258   0.49999   0.82681   0.00000  Uiso   1.00
O1179  O     0.79510   0.43893   0.75000   0.00000  Uiso   1.00
O1180  O     0.87154   0.43892   0.75000   0.00000  Uiso   1.00
O1181  O     0.81409   0.50001   0.67319   0.00000  Uiso   1.00
O1182  O     0.89053   0.50000   0.67319   0.00000  Uiso   1.00
O1183  O     0.92099   0.37411   0.69786   0.00000  Uiso   1.00
Zn1184 Zn    0.78229   0.50001   0.75000   0.00000  Uiso   1.00
Zn1185 Zn    0.88438   0.49999   0.75000   0.00000  Uiso   1.00
C1186  C     0.16667   0.91328   0.75021   0.00000  Uiso   1.00
C1187  C     0.12252   0.82529   0.91080   0.00000  Uiso   1.00
C1188  C     0.21053   0.97787   0.72516   0.00000  Uiso   1.00
C1189  C     0.14001   0.83067   0.85200   0.00000  Uiso   1.00
C1190  C     0.21097   0.68731   0.72192   0.00000  Uiso   1.00
C1191  C     0.16753   0.70908   0.74627   0.00000  Uiso   1.00
C1192  C     0.12401   0.68820   0.76968   0.00000  Uiso   1.00
C1193  C     0.12368   0.97883   0.77058   0.00000  Uiso   1.00
C1194  C     0.16701   0.95733   0.74900   0.00000  Uiso   1.00
C1195  C     0.31740   0.80408   0.72115   0.00000  Uiso   1.00
C1196  C     0.03188   0.80351   0.72101   0.00000  Uiso   1.00
C1197  C     0.14294   0.82141   0.99240   0.00000  Uiso   1.00
C1198  C     0.01542   0.86286   0.77878   0.00000  Uiso   1.00
C1199  C     0.30086   0.86278   0.77886   0.00000  Uiso   1.00
C1200  C     0.16704   0.75334   0.74857   0.00000  Uiso   1.00
C1201  C     0.19334   0.83380   0.64783   0.00000  Uiso   1.00
C1202  C     0.25988   0.79390   0.50796   0.00000  Uiso   1.00
C1203  C     0.20958   0.82945   0.58910   0.00000  Uiso   1.00
C1204  C     0.07574   0.83804   0.94171   0.00000  Uiso   1.00
C1205  C     0.06142   0.83934   0.99803   0.00000  Uiso   1.00
C1206  C     0.09484   0.83181   0.52340   0.00000  Uiso   1.00
C1207  C     0.26017   0.71662   0.64331   0.00000  Uiso   1.00
C1208  C     0.15398   0.81152   0.93707   0.00000  Uiso   1.00
C1209  C     0.28584   0.68078   0.60518   0.00000  Uiso   1.00
C1210  C     0.29969   0.69314   0.54579   0.00000  Uiso   1.00
C1211  C     0.06325   0.76821   0.69017   0.00000  Uiso   1.00
C1212  C     0.15637   0.90904   0.56809   0.00000  Uiso   1.00
C1213  C     0.15500   0.93771   0.61579   0.00000  Uiso   1.00
C1214  C     0.16237   0.98330   0.59896   0.00000  Uiso   1.00
C1215  C     0.18032   0.81951   0.51439   0.00000  Uiso   1.00
C1216  C     0.22373   0.79827   0.98520   0.00000  Uiso   1.00
C1217  C     0.23029   0.78153   0.93384   0.00000  Uiso   1.00
C1218  C     0.19609   0.78846   0.90968   0.00000  Uiso   1.00
C1219  C     0.17696   0.83964   0.56340   0.00000  Uiso   1.00
C1220  C     0.25218   0.80835   0.56057   0.00000  Uiso   1.00
H1221  H     0.27850   0.80177   0.57951   0.00000  Uiso   1.00
H1222  H     0.08198   0.83283   0.56723   0.00000  Uiso   1.00
H1223  H     0.02490   0.84784   0.52199   0.00000  Uiso   1.00
H1224  H     0.20252   0.77479   0.86983   0.00000  Uiso   1.00
H1225  H     0.24395   0.96078   0.70796   0.00000  Uiso   1.00
H1226  H     0.28317   0.74474   0.63229   0.00000  Uiso   1.00
H1227  H     0.22581   0.72461   0.63706   0.00000  Uiso   1.00
H1228  H     0.31886   0.67217   0.61363   0.00000  Uiso   1.00
H1229  H     0.26198   0.98639   0.61226   0.00000  Uiso   1.00
H1230  H     0.26733   0.70238   0.53647   0.00000  Uiso   1.00
H1231  H     0.31701   0.99958   0.51920   0.00000  Uiso   1.00
H1232  H     0.09051   0.70485   0.78841   0.00000  Uiso   1.00
H1233  H     0.32544   0.71961   0.53699   0.00000  Uiso   1.00
H1234  H     0.09837   0.77922   0.66295   0.00000  Uiso   1.00
H1235  H     0.06732   0.74484   0.71892   0.00000  Uiso   1.00
H1236  H     0.04669   0.75145   0.66359   0.00000  Uiso   1.00
H1237  H     0.13069   0.92086   0.54919   0.00000  Uiso   1.00
H1238  H     0.19301   0.91041   0.53650   0.00000  Uiso   1.00
H1239  H     0.11977   0.93457   0.64897   0.00000  Uiso   1.00
H1240  H     0.18372   0.92819   0.63153   0.00000  Uiso   1.00
H1241  H     0.19717   0.98721   0.56550   0.00000  Uiso   1.00
H1242  H     0.16244   0.66965   0.63414   0.00000  Uiso   1.00
H1243  H     0.08993   0.96270   0.78923   0.00000  Uiso   1.00
H1244  H     0.13282   0.99399   0.58529   0.00000  Uiso   1.00
H1245  H     0.30515   0.78073   0.69881   0.00000  Uiso   1.00
H1246  H     0.02659   0.88646   0.80189   0.00000  Uiso   1.00
H1247  H     0.27591   0.88634   0.80208   0.00000  Uiso   1.00
H1248  H     0.26251   0.76414   0.91165   0.00000  Uiso   1.00
H1249  H     0.29305   0.77771   0.98605   0.00000  Uiso   1.00
H1250  H     0.05051   0.84746   0.92239   0.00000  Uiso   1.00
N1251  N     0.04760   0.83334   0.75002   0.00000  Uiso   1.00
N1252  N     0.28573   0.83331   0.75001   0.00000  Uiso   1.00
O1253  O     0.12846   0.89442   0.75001   0.00000  Uiso   1.00
O1254  O     0.14120   0.86859   0.58778   0.00000  Uiso   1.00
O1255  O     0.20490   0.89441   0.75001   0.00000  Uiso   1.00
O1256  O     0.10947   0.83333   0.82681   0.00000  Uiso   1.00
O1257  O     0.18591   0.83332   0.82681   0.00000  Uiso   1.00
O1258  O     0.12843   0.77226   0.75000   0.00000  Uiso   1.00
O1259  O     0.20488   0.77225   0.75000   0.00000  Uiso   1.00
O1260  O     0.14742   0.83335   0.67319   0.00000  Uiso   1.00
O1261  O     0.22387   0.83334   0.67319   0.00000  Uiso   1.00
O1262  O     0.25432   0.70745   0.69786   0.00000  Uiso   1.00
Zn1263 Zn    0.11562   0.83334   0.75000   0.00000  Uiso   1.00
Zn1264 Zn    0.21771   0.83333   0.75000   0.00000  Uiso   1.00
C1265  C     0.50001   0.91328   0.75021   0.00000  Uiso   1.00
C1266  C     0.45585   0.82529   0.91080   0.00000  Uiso   1.00
C1267  C     0.54387   0.97787   0.72516   0.00000  Uiso   1.00
C1268  C     0.47334   0.83067   0.85200   0.00000  Uiso   1.00
C1269  C     0.54431   0.68731   0.72192   0.00000  Uiso   1.00
C1270  C     0.50087   0.70908   0.74627   0.00000  Uiso   1.00
C1271  C     0.45734   0.68820   0.76968   0.00000  Uiso   1.00
C1272  C     0.45702   0.97883   0.77058   0.00000  Uiso   1.00
C1273  C     0.50034   0.95733   0.74900   0.00000  Uiso   1.00
C1274  C     0.65073   0.80408   0.72115   0.00000  Uiso   1.00
C1275  C     0.36521   0.80351   0.72101   0.00000  Uiso   1.00
C1276  C     0.47628   0.82141   0.99240   0.00000  Uiso   1.00
C1277  C     0.34875   0.86286   0.77878   0.00000  Uiso   1.00
C1278  C     0.63419   0.86278   0.77886   0.00000  Uiso   1.00
C1279  C     0.50037   0.75334   0.74857   0.00000  Uiso   1.00
C1280  C     0.52667   0.83380   0.64783   0.00000  Uiso   1.00
C1281  C     0.59322   0.79390   0.50796   0.00000  Uiso   1.00
C1282  C     0.54291   0.82945   0.58910   0.00000  Uiso   1.00
C1283  C     0.40908   0.83804   0.94171   0.00000  Uiso   1.00
C1284  C     0.39476   0.83934   0.99803   0.00000  Uiso   1.00
C1285  C     0.42817   0.83181   0.52340   0.00000  Uiso   1.00
C1286  C     0.59350   0.71662   0.64331   0.00000  Uiso   1.00
C1287  C     0.48731   0.81152   0.93707   0.00000  Uiso   1.00
C1288  C     0.61918   0.68078   0.60518   0.00000  Uiso   1.00
C1289  C     0.63303   0.69314   0.54579   0.00000  Uiso   1.00
C1290  C     0.39658   0.76821   0.69017   0.00000  Uiso   1.00
C1291  C     0.48971   0.90904   0.56809   0.00000  Uiso   1.00
C1292  C     0.48833   0.93771   0.61579   0.00000  Uiso   1.00
C1293  C     0.49570   0.98330   0.59896   0.00000  Uiso   1.00
C1294  C     0.51366   0.81951   0.51439   0.00000  Uiso   1.00
C1295  C     0.55706   0.79827   0.98520   0.00000  Uiso   1.00
C1296  C     0.56363   0.78153   0.93384   0.00000  Uiso   1.00
C1297  C     0.52942   0.78846   0.90968   0.00000  Uiso   1.00
C1298  C     0.51029   0.83964   0.56340   0.00000  Uiso   1.00
C1299  C     0.58551   0.80835   0.56057   0.00000  Uiso   1.00
H1300  H     0.61184   0.80177   0.57951   0.00000  Uiso   1.00
H1301  H     0.41532   0.83283   0.56723   0.00000  Uiso   1.00
H1302  H     0.35823   0.84784   0.52199   0.00000  Uiso   1.00
H1303  H     0.53586   0.77479   0.86983   0.00000  Uiso   1.00
H1304  H     0.57728   0.96078   0.70796   0.00000  Uiso   1.00
H1305  H     0.61650   0.74474   0.63229   0.00000  Uiso   1.00
H1306  H     0.55914   0.72461   0.63706   0.00000  Uiso   1.00
H1307  H     0.65220   0.67217   0.61363   0.00000  Uiso   1.00
H1308  H     0.59532   0.98639   0.61226   0.00000  Uiso   1.00
H1309  H     0.60066   0.70238   0.53647   0.00000  Uiso   1.00
H1310  H     0.65034   0.99958   0.51920   0.00000  Uiso   1.00
H1311  H     0.42384   0.70485   0.78841   0.00000  Uiso   1.00
H1312  H     0.65877   0.71961   0.53699   0.00000  Uiso   1.00
H1313  H     0.43170   0.77922   0.66295   0.00000  Uiso   1.00
H1314  H     0.40065   0.74484   0.71892   0.00000  Uiso   1.00
H1315  H     0.38002   0.75145   0.66359   0.00000  Uiso   1.00
H1316  H     0.46402   0.92086   0.54919   0.00000  Uiso   1.00
H1317  H     0.52634   0.91041   0.53650   0.00000  Uiso   1.00
H1318  H     0.45310   0.93457   0.64897   0.00000  Uiso   1.00
H1319  H     0.51705   0.92819   0.63153   0.00000  Uiso   1.00
H1320  H     0.53051   0.98721   0.56550   0.00000  Uiso   1.00
H1321  H     0.49578   0.66965   0.63414   0.00000  Uiso   1.00
H1322  H     0.42326   0.96270   0.78923   0.00000  Uiso   1.00
H1323  H     0.46615   0.99399   0.58529   0.00000  Uiso   1.00
H1324  H     0.63849   0.78073   0.69881   0.00000  Uiso   1.00
H1325  H     0.35992   0.88646   0.80189   0.00000  Uiso   1.00
H1326  H     0.60925   0.88634   0.80208   0.00000  Uiso   1.00
H1327  H     0.59585   0.76414   0.91165   0.00000  Uiso   1.00
H1328  H     0.62639   0.77771   0.98605   0.00000  Uiso   1.00
H1329  H     0.38384   0.84746   0.92239   0.00000  Uiso   1.00
N1330  N     0.38093   0.83334   0.75002   0.00000  Uiso   1.00
N1331  N     0.61906   0.83331   0.75001   0.00000  Uiso   1.00
O1332  O     0.46179   0.89442   0.75001   0.00000  Uiso   1.00
O1333  O     0.47453   0.86859   0.58778   0.00000  Uiso   1.00
O1334  O     0.53823   0.89441   0.75001   0.00000  Uiso   1.00
O1335  O     0.44280   0.83333   0.82681   0.00000  Uiso   1.00
O1336  O     0.51924   0.83332   0.82681   0.00000  Uiso   1.00
O1337  O     0.46177   0.77226   0.75000   0.00000  Uiso   1.00
O1338  O     0.53821   0.77225   0.75000   0.00000  Uiso   1.00
O1339  O     0.48076   0.83335   0.67319   0.00000  Uiso   1.00
O1340  O     0.55720   0.83334   0.67319   0.00000  Uiso   1.00
O1341  O     0.58766   0.70745   0.69786   0.00000  Uiso   1.00
Zn1342 Zn    0.44896   0.83334   0.75000   0.00000  Uiso   1.00
Zn1343 Zn    0.55104   0.83333   0.75000   0.00000  Uiso   1.00
C1344  C     0.83334   0.91328   0.75021   0.00000  Uiso   1.00
C1345  C     0.78918   0.82529   0.91080   0.00000  Uiso   1.00
C1346  C     0.87720   0.97787   0.72516   0.00000  Uiso   1.00
C1347  C     0.80668   0.83067   0.85200   0.00000  Uiso   1.00
C1348  C     0.87764   0.68731   0.72192   0.00000  Uiso   1.00
C1349  C     0.83420   0.70908   0.74627   0.00000  Uiso   1.00
C1350  C     0.79068   0.68820   0.76968   0.00000  Uiso   1.00
C1351  C     0.79035   0.97883   0.77058   0.00000  Uiso   1.00
C1352  C     0.83368   0.95733   0.74900   0.00000  Uiso   1.00
C1353  C     0.98406   0.80408   0.72115   0.00000  Uiso   1.00
C1354  C     0.69854   0.80351   0.72101   0.00000  Uiso   1.00
C1355  C     0.80961   0.82141   0.99240   0.00000  Uiso   1.00
C1356  C     0.68209   0.86286   0.77878   0.00000  Uiso   1.00
C1357  C     0.96753   0.86278   0.77886   0.00000  Uiso   1.00
C1358  C     0.83370   0.75334   0.74857   0.00000  Uiso   1.00
C1359  C     0.86000   0.83380   0.64783   0.00000  Uiso   1.00
C1360  C     0.92655   0.79390   0.50796   0.00000  Uiso   1.00
C1361  C     0.87625   0.82945   0.58910   0.00000  Uiso   1.00
C1362  C     0.74241   0.83804   0.94171   0.00000  Uiso   1.00
C1363  C     0.72809   0.83934   0.99803   0.00000  Uiso   1.00
C1364  C     0.76150   0.83181   0.52340   0.00000  Uiso   1.00
C1365  C     0.92684   0.71662   0.64331   0.00000  Uiso   1.00
C1366  C     0.82064   0.81152   0.93707   0.00000  Uiso   1.00
C1367  C     0.95251   0.68078   0.60518   0.00000  Uiso   1.00
C1368  C     0.96636   0.69314   0.54579   0.00000  Uiso   1.00
C1369  C     0.72992   0.76821   0.69017   0.00000  Uiso   1.00
C1370  C     0.82304   0.90904   0.56809   0.00000  Uiso   1.00
C1371  C     0.82167   0.93771   0.61579   0.00000  Uiso   1.00
C1372  C     0.82903   0.98330   0.59896   0.00000  Uiso   1.00
C1373  C     0.84699   0.81951   0.51439   0.00000  Uiso   1.00
C1374  C     0.89040   0.79827   0.98520   0.00000  Uiso   1.00
C1375  C     0.89696   0.78153   0.93384   0.00000  Uiso   1.00
C1376  C     0.86276   0.78846   0.90968   0.00000  Uiso   1.00
C1377  C     0.84362   0.83964   0.56340   0.00000  Uiso   1.00
C1378  C     0.91885   0.80835   0.56057   0.00000  Uiso   1.00
H1379  H     0.94517   0.80177   0.57951   0.00000  Uiso   1.00
H1380  H     0.74865   0.83283   0.56723   0.00000  Uiso   1.00
H1381  H     0.69156   0.84784   0.52199   0.00000  Uiso   1.00
H1382  H     0.86919   0.77479   0.86983   0.00000  Uiso   1.00
H1383  H     0.91061   0.96078   0.70796   0.00000  Uiso   1.00
H1384  H     0.94984   0.74474   0.63229   0.00000  Uiso   1.00
H1385  H     0.89248   0.72461   0.63706   0.00000  Uiso   1.00
H1386  H     0.98553   0.67217   0.61363   0.00000  Uiso   1.00
H1387  H     0.92865   0.98639   0.61226   0.00000  Uiso   1.00
H1388  H     0.93399   0.70238   0.53647   0.00000  Uiso   1.00
H1389  H     0.98368   0.99958   0.51920   0.00000  Uiso   1.00
H1390  H     0.75718   0.70485   0.78841   0.00000  Uiso   1.00
H1391  H     0.99211   0.71961   0.53699   0.00000  Uiso   1.00
H1392  H     0.76503   0.77922   0.66295   0.00000  Uiso   1.00
H1393  H     0.73398   0.74484   0.71892   0.00000  Uiso   1.00
H1394  H     0.71336   0.75145   0.66359   0.00000  Uiso   1.00
H1395  H     0.79736   0.92086   0.54919   0.00000  Uiso   1.00
H1396  H     0.85968   0.91041   0.53650   0.00000  Uiso   1.00
H1397  H     0.78643   0.93457   0.64897   0.00000  Uiso   1.00
H1398  H     0.85039   0.92819   0.63153   0.00000  Uiso   1.00
H1399  H     0.86384   0.98721   0.56550   0.00000  Uiso   1.00
H1400  H     0.82911   0.66965   0.63414   0.00000  Uiso   1.00
H1401  H     0.75659   0.96270   0.78923   0.00000  Uiso   1.00
H1402  H     0.79949   0.99399   0.58529   0.00000  Uiso   1.00
H1403  H     0.97182   0.78073   0.69881   0.00000  Uiso   1.00
H1404  H     0.69325   0.88646   0.80189   0.00000  Uiso   1.00
H1405  H     0.94258   0.88634   0.80208   0.00000  Uiso   1.00
H1406  H     0.92918   0.76414   0.91165   0.00000  Uiso   1.00
H1407  H     0.95972   0.77771   0.98605   0.00000  Uiso   1.00
H1408  H     0.71718   0.84746   0.92239   0.00000  Uiso   1.00
N1409  N     0.71426   0.83334   0.75002   0.00000  Uiso   1.00
N1410  N     0.95239   0.83331   0.75001   0.00000  Uiso   1.00
O1411  O     0.79512   0.89442   0.75001   0.00000  Uiso   1.00
O1412  O     0.80787   0.86859   0.58778   0.00000  Uiso   1.00
O1413  O     0.87157   0.89441   0.75001   0.00000  Uiso   1.00
O1414  O     0.77613   0.83333   0.82681   0.00000  Uiso   1.00
O1415  O     0.85258   0.83332   0.82681   0.00000  Uiso   1.00
O1416  O     0.79510   0.77226   0.75000   0.00000  Uiso   1.00
O1417  O     0.87154   0.77225   0.75000   0.00000  Uiso   1.00
O1418  O     0.81409   0.83335   0.67319   0.00000  Uiso   1.00
O1419  O     0.89053   0.83334   0.67319   0.00000  Uiso   1.00
O1420  O     0.92099   0.70745   0.69786   0.00000  Uiso   1.00
Zn1421 Zn    0.78229   0.83334   0.75000   0.00000  Uiso   1.00
Zn1422 Zn    0.88438   0.83333   0.75000   0.00000  Uiso   1.00
loop_
_geom_bond_atom_site_label_1
_geom_bond_atom_site_label_2
_geom_bond_distance
_geom_bond_site_symmetry_2
_ccdc_geom_bond_type
C1     O68     1.283   .     A
C1     C9      1.412   .     S
C1     O70     1.285   .     A
C2     C19     1.404   .     A
C2     C4      1.461   .     S
C2     C23     1.411   .     A
C3     C9      1.393   .     A
C3     H40     1.084   .     S
C3     C242    1.374   .     S
C4     O72     1.296   .     A
C4     O71     1.294   .     A
C5     C6      1.408   .     A
C5     O77     1.384   .     S
C5     C477    1.374   1_545 S
C6     C15     1.418   .     S
C6     C7      1.397   .     A
C7     H47     1.084   .     S
C7     C482    1.369   1_545 S
C8     H58     1.084   .     S
C8     C9      1.394   .     A
C8     C244    1.369   .     S
C10    H60     1.079   .     S
C10    N67     1.353   .     A
C10    C90     1.416   .     S
C11    N66     1.388   .     A
C11    C26     1.505   .     S
C11    C168    1.416   1_455 S
C12    C23     1.405   .     A
C12    C732    1.417   .     S
C12    C741    1.415   .     S
C13    N66     1.366   .     A
C13    H61     1.082   .     S
C13    C172    1.419   1_455 S
C14    H62     1.082   .     S
C14    N67     1.368   .     A
C14    C92     1.419   .     S
C15    O73     1.286   .     A
C15    O74     1.284   .     A
C16    O75     1.294   .     A
C16    O76     1.294   .     A
C16    C18     1.452   .     S
C17    C35     1.391   .     A
C17    C742    1.402   1_554 S
C17    H775    1.084   1_554 S
C18    C35     1.398   .     A
C18    C34     1.397   .     A
C19    C20     1.390   .     A
C19    H65     1.083   .     S
C20    C732    1.393   .     S
C20    H749    1.083   .     S
C21    H37     1.080   .     S
C21    C731    1.393   1_554 S
C21    C723    1.417   1_554 S
C22    H41     1.108   .     S
C22    O77     1.416   .     S
C22    C24     1.533   .     S
C22    H42     1.117   .     S
C23    C33     1.413   .     A
C24    C25     1.526   .     S
C24    H43     1.112   .     S
C24    H518    1.110   1_545 S
C25    H48     1.111   .     S
C25    H45     1.111   .     S
C25    H520    1.110   1_545 S
C26    H50     1.106   .     S
C26    H49     1.101   .     S
C26    H51     1.111   .     S
C27    O69     1.416   .     S
C27    H52     1.111   .     S
C27    H53     1.119   .     S
C27    C28     1.530   .     S
C28    C29     1.526   .     S
C28    H55     1.111   .     S
C28    H54     1.112   .     S
C29    H59     1.111   .     S
C29    H56     1.110   .     S
C29    H294    1.110   .     S
C30    C34     1.402   .     A
C30    C723    1.415   1_554 S
C30    C742    1.422   1_554 S
C31    C32     1.392   .     A
C31    C728    1.402   .     S
C31    C741    1.422   .     S
C32    H63     1.084   .     S
C32    C33     1.387   .     A
C33    H39     1.082   .     S
C34    O69     1.385   .     S
C35    H36     1.081   .     S
H38    C731    1.083   1_554 S
H44    C261    1.110   .     S
H46    C262    1.110   .     S
H57    C503    1.110   1_545 S
H64    C728    1.084   .     S
N66    Zn78    2.016   .     S
N67    Zn79    2.016   .     S
O68    Zn78    1.992   .     S
O70    Zn79    1.995   .     S
O71    Zn78    1.959   .     S
O72    Zn79    1.909   .     S
O73    Zn78    1.995   .     S
O74    Zn79    1.992   .     S
O75    Zn78    1.909   .     S
O76    Zn79    1.959   .     S
C80    O147    1.283   .     A
C80    C88     1.412   .     S
C80    O149    1.285   .     A
C81    C98     1.404   .     A
C81    C83     1.461   .     S
C81    C102    1.411   .     A
C82    C88     1.393   .     A
C82    H119    1.084   .     S
C82    C321    1.374   .     S
C83    O151    1.296   .     A
C83    O150    1.294   .     A
C84    C85     1.408   .     A
C84    O156    1.384   .     S
C84    C556    1.374   1_545 S
C85    C94     1.418   .     S
C85    C86     1.397   .     A
C86    H126    1.084   .     S
C86    C561    1.369   1_545 S
C87    H137    1.084   .     S
C87    C88     1.394   .     A
C87    C323    1.369   .     S
C89    H139    1.079   .     S
C89    N146    1.353   .     A
C89    C169    1.416   .     S
C90    N145    1.388   .     A
C90    C105    1.505   .     S
C91    C102    1.405   .     A
C91    C811    1.417   .     S
C91    C820    1.415   .     S
C92    N145    1.366   .     A
C92    H140    1.082   .     S
C93    H141    1.082   .     S
C93    N146    1.368   .     A
C93    C171    1.419   .     S
C94    O152    1.286   .     A
C94    O153    1.284   .     A
C95    O154    1.294   .     A
C95    O155    1.294   .     A
C95    C97     1.452   .     S
C96    C114    1.391   .     A
C96    C821    1.402   1_554 S
C96    H854    1.084   1_554 S
C97    C114    1.398   .     A
C97    C113    1.397   .     A
C98    C99     1.390   .     A
C98    H144    1.083   .     S
C99    C811    1.393   .     S
C99    H828    1.083   .     S
C100   H116    1.080   .     S
C100   C810    1.393   1_554 S
C100   C802    1.417   1_554 S
C101   H120    1.108   .     S
C101   O156    1.416   .     S
C101   C103    1.533   .     S
C101   H121    1.117   .     S
C102   C112    1.413   .     A
C103   C104    1.526   .     S
C103   H122    1.112   .     S
C103   H597    1.110   1_545 S
C104   H127    1.111   .     S
C104   H124    1.111   .     S
C104   H599    1.110   1_545 S
C105   H129    1.106   .     S
C105   H128    1.101   .     S
C105   H130    1.111   .     S
C106   O148    1.416   .     S
C106   H131    1.111   .     S
C106   H132    1.119   .     S
C106   C107    1.530   .     S
C107   C108    1.526   .     S
C107   H134    1.111   .     S
C107   H133    1.112   .     S
C108   H138    1.111   .     S
C108   H135    1.110   .     S
C108   H373    1.110   .     S
C109   C113    1.402   .     A
C109   C802    1.415   1_554 S
C109   C821    1.422   1_554 S
C110   C111    1.392   .     A
C110   C807    1.402   .     S
C110   C820    1.422   .     S
C111   H142    1.084   .     S
C111   C112    1.387   .     A
C112   H118    1.082   .     S
C113   O148    1.385   .     S
C114   H115    1.081   .     S
H117   C810    1.083   1_554 S
H123   C340    1.110   .     S
H125   C341    1.110   .     S
H136   C582    1.110   1_545 S
H143   C807    1.084   .     S
N145   Zn157   2.016   .     S
N146   Zn158   2.016   .     S
O147   Zn157   1.992   .     S
O149   Zn158   1.995   .     S
O150   Zn157   1.959   .     S
O151   Zn158   1.909   .     S
O152   Zn157   1.995   .     S
O153   Zn158   1.992   .     S
O154   Zn157   1.909   .     S
O155   Zn158   1.959   .     S
C159   O226    1.283   .     A
C159   C167    1.412   .     S
C159   O228    1.285   .     A
C160   C177    1.404   .     A
C160   C162    1.461   .     S
C160   C181    1.411   .     A
C161   C167    1.393   .     A
C161   H198    1.084   .     S
C161   C400    1.374   .     S
C162   O230    1.296   .     A
C162   O229    1.294   .     A
C163   C164    1.408   .     A
C163   O235    1.384   .     S
C163   C635    1.374   1_545 S
C164   C173    1.418   .     S
C164   C165    1.397   .     A
C165   H205    1.084   .     S
C165   C640    1.369   1_545 S
C166   H216    1.084   .     S
C166   C167    1.394   .     A
C166   C402    1.369   .     S
C168   H218    1.079   .     S
C168   N225    1.353   .     A
C168   C11     1.416   1_655 S
C169   N224    1.388   .     A
C169   C184    1.505   .     S
C170   C181    1.405   .     A
C170   C890    1.417   .     S
C170   C899    1.415   .     S
C171   N224    1.366   .     A
C171   H219    1.082   .     S
C172   H220    1.082   .     S
C172   N225    1.368   .     A
C172   C13     1.419   1_655 S
C173   O231    1.286   .     A
C173   O232    1.284   .     A
C174   O233    1.294   .     A
C174   O234    1.294   .     A
C174   C176    1.452   .     S
C175   C193    1.391   .     A
C175   C900    1.402   1_554 S
C175   H933    1.084   1_554 S
C176   C193    1.398   .     A
C176   C192    1.397   .     A
C177   C178    1.390   .     A
C177   H223    1.083   .     S
C178   C890    1.393   .     S
C178   H907    1.083   .     S
C179   H195    1.080   .     S
C179   C889    1.393   1_554 S
C179   C881    1.417   1_554 S
C180   H199    1.108   .     S
C180   O235    1.416   .     S
C180   C182    1.533   .     S
C180   H200    1.117   .     S
C181   C191    1.413   .     A
C182   C183    1.526   .     S
C182   H201    1.112   .     S
C182   H676    1.110   1_545 S
C183   H206    1.111   .     S
C183   H203    1.111   .     S
C183   H678    1.110   1_545 S
C184   H208    1.106   .     S
C184   H207    1.101   .     S
C184   H209    1.111   .     S
C185   O227    1.416   .     S
C185   H210    1.111   .     S
C185   H211    1.119   .     S
C185   C186    1.530   .     S
C186   C187    1.526   .     S
C186   H213    1.111   .     S
C186   H212    1.112   .     S
C187   H217    1.111   .     S
C187   H214    1.110   .     S
C187   H452    1.110   .     S
C188   C192    1.402   .     A
C188   C881    1.415   1_554 S
C188   C900    1.422   1_554 S
C189   C190    1.392   .     A
C189   C886    1.402   .     S
C189   C899    1.422   .     S
C190   H221    1.084   .     S
C190   C191    1.387   .     A
C191   H197    1.082   .     S
C192   O227    1.385   .     S
C193   H194    1.081   .     S
H196   C889    1.083   1_554 S
H202   C419    1.110   .     S
H204   C420    1.110   .     S
H215   C661    1.110   1_545 S
H222   C886    1.084   .     S
N224   Zn236   2.016   .     S
N225   Zn237   2.016   .     S
O226   Zn236   1.992   .     S
O228   Zn237   1.995   .     S
O229   Zn236   1.959   .     S
O230   Zn237   1.909   .     S
O231   Zn236   1.995   .     S
O232   Zn237   1.992   .     S
O233   Zn236   1.909   .     S
O234   Zn237   1.959   .     S
C238   O305    1.283   .     A
C238   C246    1.412   .     S
C238   O307    1.285   .     A
C239   C256    1.404   .     A
C239   C241    1.461   .     S
C239   C260    1.411   .     A
C240   C246    1.393   .     A
C240   H277    1.084   .     S
C240   C479    1.374   .     S
C241   O309    1.296   .     A
C241   O308    1.294   .     A
C242   C243    1.408   .     A
C242   O314    1.384   .     S
C243   C252    1.418   .     S
C243   C244    1.397   .     A
C244   H284    1.084   .     S
C245   H295    1.084   .     S
C245   C246    1.394   .     A
C245   C481    1.369   .     S
C247   H297    1.079   .     S
C247   N304    1.353   .     A
C247   C327    1.416   .     S
C248   N303    1.388   .     A
C248   C263    1.505   .     S
C248   C405    1.416   1_455 S
C249   C260    1.405   .     A
C249   C969    1.417   .     S
C249   C978    1.415   .     S
C250   N303    1.366   .     A
C250   H298    1.082   .     S
C250   C409    1.419   1_455 S
C251   H299    1.082   .     S
C251   N304    1.368   .     A
C251   C329    1.419   .     S
C252   O310    1.286   .     A
C252   O311    1.284   .     A
C253   O312    1.294   .     A
C253   O313    1.294   .     A
C253   C255    1.452   .     S
C254   C272    1.391   .     A
C254   C979    1.402   1_554 S
C254   H1012   1.084   1_554 S
C255   C272    1.398   .     A
C255   C271    1.397   .     A
C256   C257    1.390   .     A
C256   H302    1.083   .     S
C257   C969    1.393   .     S
C257   H986    1.083   .     S
C258   H274    1.080   .     S
C258   C968    1.393   1_554 S
C258   C960    1.417   1_554 S
C259   H278    1.108   .     S
C259   O314    1.416   .     S
C259   C261    1.533   .     S
C259   H279    1.117   .     S
C260   C270    1.413   .     A
C261   C262    1.526   .     S
C261   H280    1.112   .     S
C262   H285    1.111   .     S
C262   H282    1.111   .     S
C263   H287    1.106   .     S
C263   H286    1.101   .     S
C263   H288    1.111   .     S
C264   O306    1.416   .     S
C264   H289    1.111   .     S
C264   H290    1.119   .     S
C264   C265    1.530   .     S
C265   C266    1.526   .     S
C265   H292    1.111   .     S
C265   H291    1.112   .     S
C266   H296    1.111   .     S
C266   H293    1.110   .     S
C266   H531    1.110   .     S
C267   C271    1.402   .     A
C267   C960    1.415   1_554 S
C267   C979    1.422   1_554 S
C268   C269    1.392   .     A
C268   C965    1.402   .     S
C268   C978    1.422   .     S
C269   H300    1.084   .     S
C269   C270    1.387   .     A
C270   H276    1.082   .     S
C271   O306    1.385   .     S
C272   H273    1.081   .     S
H275   C968    1.083   1_554 S
H281   C498    1.110   .     S
H283   C499    1.110   .     S
H301   C965    1.084   .     S
N303   Zn315   2.016   .     S
N304   Zn316   2.016   .     S
O305   Zn315   1.992   .     S
O307   Zn316   1.995   .     S
O308   Zn315   1.959   .     S
O309   Zn316   1.909   .     S
O310   Zn315   1.995   .     S
O311   Zn316   1.992   .     S
O312   Zn315   1.909   .     S
O313   Zn316   1.959   .     S
C317   O384    1.283   .     A
C317   C325    1.412   .     S
C317   O386    1.285   .     A
C318   C335    1.404   .     A
C318   C320    1.461   .     S
C318   C339    1.411   .     A
C319   C325    1.393   .     A
C319   H356    1.084   .     S
C319   C558    1.374   .     S
C320   O388    1.296   .     A
C320   O387    1.294   .     A
C321   C322    1.408   .     A
C321   O393    1.384   .     S
C322   C331    1.418   .     S
C322   C323    1.397   .     A
C323   H363    1.084   .     S
C324   H374    1.084   .     S
C324   C325    1.394   .     A
C324   C560    1.369   .     S
C326   H376    1.079   .     S
C326   N383    1.353   .     A
C326   C406    1.416   .     S
C327   N382    1.388   .     A
C327   C342    1.505   .     S
C328   C339    1.405   .     A
C328   C1048   1.417   .     S
C328   C1057   1.415   .     S
C329   N382    1.366   .     A
C329   H377    1.082   .     S
C330   H378    1.082   .     S
C330   N383    1.368   .     A
C330   C408    1.419   .     S
C331   O389    1.286   .     A
C331   O390    1.284   .     A
C332   O391    1.294   .     A
C332   O392    1.294   .     A
C332   C334    1.452   .     S
C333   C351    1.391   .     A
C333   C1058   1.402   1_554 S
C333   H1091   1.084   1_554 S
C334   C351    1.398   .     A
C334   C350    1.397   .     A
C335   C336    1.390   .     A
C335   H381    1.083   .     S
C336   C1048   1.393   .     S
C336   H1065   1.083   .     S
C337   H353    1.080   .     S
C337   C1047   1.393   1_554 S
C337   C1039   1.417   1_554 S
C338   H357    1.108   .     S
C338   O393    1.416   .     S
C338   C340    1.533   .     S
C338   H358    1.117   .     S
C339   C349    1.413   .     A
C340   C341    1.526   .     S
C340   H359    1.112   .     S
C341   H364    1.111   .     S
C341   H361    1.111   .     S
C342   H366    1.106   .     S
C342   H365    1.101   .     S
C342   H367    1.111   .     S
C343   O385    1.416   .     S
C343   H368    1.111   .     S
C343   H369    1.119   .     S
C343   C344    1.530   .     S
C344   C345    1.526   .     S
C344   H371    1.111   .     S
C344   H370    1.112   .     S
C345   H375    1.111   .     S
C345   H372    1.110   .     S
C345   H610    1.110   .     S
C346   C350    1.402   .     A
C346   C1039   1.415   1_554 S
C346   C1058   1.422   1_554 S
C347   C348    1.392   .     A
C347   C1044   1.402   .     S
C347   C1057   1.422   .     S
C348   H379    1.084   .     S
C348   C349    1.387   .     A
C349   H355    1.082   .     S
C350   O385    1.385   .     S
C351   H352    1.081   .     S
H354   C1047   1.083   1_554 S
H360   C577    1.110   .     S
H362   C578    1.110   .     S
H380   C1044   1.084   .     S
N382   Zn394   2.016   .     S
N383   Zn395   2.016   .     S
O384   Zn394   1.992   .     S
O386   Zn395   1.995   .     S
O387   Zn394   1.959   .     S
O388   Zn395   1.909   .     S
O389   Zn394   1.995   .     S
O390   Zn395   1.992   .     S
O391   Zn394   1.909   .     S
O392   Zn395   1.959   .     S
C396   O463    1.283   .     A
C396   C404    1.412   .     S
C396   O465    1.285   .     A
C397   C414    1.404   .     A
C397   C399    1.461   .     S
C397   C418    1.411   .     A
C398   C404    1.393   .     A
C398   H435    1.084   .     S
C398   C637    1.374   .     S
C399   O467    1.296   .     A
C399   O466    1.294   .     A
C400   C401    1.408   .     A
C400   O472    1.384   .     S
C401   C410    1.418   .     S
C401   C402    1.397   .     A
C402   H442    1.084   .     S
C403   H453    1.084   .     S
C403   C404    1.394   .     A
C403   C639    1.369   .     S
C405   H455    1.079   .     S
C405   N462    1.353   .     A
C405   C248    1.416   1_655 S
C406   N461    1.388   .     A
C406   C421    1.505   .     S
C407   C418    1.405   .     A
C407   C1127   1.417   .     S
C407   C1136   1.415   .     S
C408   N461    1.366   .     A
C408   H456    1.082   .     S
C409   H457    1.082   .     S
C409   N462    1.368   .     A
C409   C250    1.419   1_655 S
C410   O468    1.286   .     A
C410   O469    1.284   .     A
C411   O470    1.294   .     A
C411   O471    1.294   .     A
C411   C413    1.452   .     S
C412   C430    1.391   .     A
C412   C1137   1.402   1_554 S
C412   H1170   1.084   1_554 S
C413   C430    1.398   .     A
C413   C429    1.397   .     A
C414   C415    1.390   .     A
C414   H460    1.083   .     S
C415   C1127   1.393   .     S
C415   H1144   1.083   .     S
C416   H432    1.080   .     S
C416   C1126   1.393   1_554 S
C416   C1118   1.417   1_554 S
C417   H436    1.108   .     S
C417   O472    1.416   .     S
C417   C419    1.533   .     S
C417   H437    1.117   .     S
C418   C428    1.413   .     A
C419   C420    1.526   .     S
C419   H438    1.112   .     S
C420   H443    1.111   .     S
C420   H440    1.111   .     S
C421   H445    1.106   .     S
C421   H444    1.101   .     S
C421   H446    1.111   .     S
C422   O464    1.416   .     S
C422   H447    1.111   .     S
C422   H448    1.119   .     S
C422   C423    1.530   .     S
C423   C424    1.526   .     S
C423   H450    1.111   .     S
C423   H449    1.112   .     S
C424   H454    1.111   .     S
C424   H451    1.110   .     S
C424   H689    1.110   .     S
C425   C429    1.402   .     A
C425   C1118   1.415   1_554 S
C425   C1137   1.422   1_554 S
C426   C427    1.392   .     A
C426   C1123   1.402   .     S
C426   C1136   1.422   .     S
C427   H458    1.084   .     S
C427   C428    1.387   .     A
C428   H434    1.082   .     S
C429   O464    1.385   .     S
C430   H431    1.081   .     S
H433   C1126   1.083   1_554 S
H439   C656    1.110   .     S
H441   C657    1.110   .     S
H459   C1123   1.084   .     S
N461   Zn473   2.016   .     S
N462   Zn474   2.016   .     S
O463   Zn473   1.992   .     S
O465   Zn474   1.995   .     S
O466   Zn473   1.959   .     S
O467   Zn474   1.909   .     S
O468   Zn473   1.995   .     S
O469   Zn474   1.992   .     S
O470   Zn473   1.909   .     S
O471   Zn474   1.959   .     S
C475   O542    1.283   .     A
C475   C483    1.412   .     S
C475   O544    1.285   .     A
C476   C493    1.404   .     A
C476   C478    1.461   .     S
C476   C497    1.411   .     A
C477   C483    1.393   .     A
C477   H514    1.084   .     S
C477   C5      1.374   1_565 S
C478   O546    1.296   .     A
C478   O545    1.294   .     A
C479   C480    1.408   .     A
C479   O551    1.384   .     S
C480   C489    1.418   .     S
C480   C481    1.397   .     A
C481   H521    1.084   .     S
C482   H532    1.084   .     S
C482   C483    1.394   .     A
C482   C7      1.369   1_565 S
C484   H534    1.079   .     S
C484   N541    1.353   .     A
C484   C564    1.416   .     S
C485   N540    1.388   .     A
C485   C500    1.505   .     S
C485   C642    1.416   1_455 S
C486   C497    1.405   .     A
C486   C1206   1.417   .     S
C486   C1215   1.415   .     S
C487   N540    1.366   .     A
C487   H535    1.082   .     S
C487   C646    1.419   1_455 S
C488   H536    1.082   .     S
C488   N541    1.368   .     A
C488   C566    1.419   .     S
C489   O547    1.286   .     A
C489   O548    1.284   .     A
C490   O549    1.294   .     A
C490   O550    1.294   .     A
C490   C492    1.452   .     S
C491   C509    1.391   .     A
C491   C1216   1.402   1_554 S
C491   H1249   1.084   1_554 S
C492   C509    1.398   .     A
C492   C508    1.397   .     A
C493   C494    1.390   .     A
C493   H539    1.083   .     S
C494   C1206   1.393   .     S
C494   H1223   1.083   .     S
C495   H511    1.080   .     S
C495   C1205   1.393   1_554 S
C495   C1197   1.417   1_554 S
C496   H515    1.108   .     S
C496   O551    1.416   .     S
C496   C498    1.533   .     S
C496   H516    1.117   .     S
C497   C507    1.413   .     A
C498   C499    1.526   .     S
C498   H517    1.112   .     S
C499   H522    1.111   .     S
C499   H519    1.111   .     S
C500   H524    1.106   .     S
C500   H523    1.101   .     S
C500   H525    1.111   .     S
C501   O543    1.416   .     S
C501   H526    1.111   .     S
C501   H527    1.119   .     S
C501   C502    1.530   .     S
C502   C503    1.526   .     S
C502   H529    1.111   .     S
C502   H528    1.112   .     S
C503   H533    1.111   .     S
C503   H530    1.110   .     S
C503   H57     1.110   1_565 S
C504   C508    1.402   .     A
C504   C1197   1.415   1_554 S
C504   C1216   1.422   1_554 S
C505   C506    1.392   .     A
C505   C1202   1.402   .     S
C505   C1215   1.422   .     S
C506   H537    1.084   .     S
C506   C507    1.387   .     A
C507   H513    1.082   .     S
C508   O543    1.385   .     S
C509   H510    1.081   .     S
H512   C1205   1.083   1_554 S
H518   C24     1.110   1_565 S
H520   C25     1.110   1_565 S
H538   C1202   1.084   .     S
N540   Zn552   2.016   .     S
N541   Zn553   2.016   .     S
O542   Zn552   1.992   .     S
O544   Zn553   1.995   .     S
O545   Zn552   1.959   .     S
O546   Zn553   1.909   .     S
O547   Zn552   1.995   .     S
O548   Zn553   1.992   .     S
O549   Zn552   1.909   .     S
O550   Zn553   1.959   .     S
C554   O621    1.283   .     A
C554   C562    1.412   .     S
C554   O623    1.285   .     A
C555   C572    1.404   .     A
C555   C557    1.461   .     S
C555   C576    1.411   .     A
C556   C562    1.393   .     A
C556   H593    1.084   .     S
C556   C84     1.374   1_565 S
C557   O625    1.296   .     A
C557   O624    1.294   .     A
C558   C559    1.408   .     A
C558   O630    1.384   .     S
C559   C568    1.418   .     S
C559   C560    1.397   .     A
C560   H600    1.084   .     S
C561   H611    1.084   .     S
C561   C562    1.394   .     A
C561   C86     1.369   1_565 S
C563   H613    1.079   .     S
C563   N620    1.353   .     A
C563   C643    1.416   .     S
C564   N619    1.388   .     A
C564   C579    1.505   .     S
C565   C576    1.405   .     A
C565   C1285   1.417   .     S
C565   C1294   1.415   .     S
C566   N619    1.366   .     A
C566   H614    1.082   .     S
C567   H615    1.082   .     S
C567   N620    1.368   .     A
C567   C645    1.419   .     S
C568   O626    1.286   .     A
C568   O627    1.284   .     A
C569   O628    1.294   .     A
C569   O629    1.294   .     A
C569   C571    1.452   .     S
C570   C588    1.391   .     A
C570   C1295   1.402   1_554 S
C570   H1328   1.084   1_554 S
C571   C588    1.398   .     A
C571   C587    1.397   .     A
C572   C573    1.390   .     A
C572   H618    1.083   .     S
C573   C1285   1.393   .     S
C573   H1302   1.083   .     S
C574   H590    1.080   .     S
C574   C1284   1.393   1_554 S
C574   C1276   1.417   1_554 S
C575   H594    1.108   .     S
C575   O630    1.416   .     S
C575   C577    1.533   .     S
C575   H595    1.117   .     S
C576   C586    1.413   .     A
C577   C578    1.526   .     S
C577   H596    1.112   .     S
C578   H601    1.111   .     S
C578   H598    1.111   .     S
C579   H603    1.106   .     S
C579   H602    1.101   .     S
C579   H604    1.111   .     S
C580   O622    1.416   .     S
C580   H605    1.111   .     S
C580   H606    1.119   .     S
C580   C581    1.530   .     S
C581   C582    1.526   .     S
C581   H608    1.111   .     S
C581   H607    1.112   .     S
C582   H612    1.111   .     S
C582   H609    1.110   .     S
C582   H136    1.110   1_565 S
C583   C587    1.402   .     A
C583   C1276   1.415   1_554 S
C583   C1295   1.422   1_554 S
C584   C585    1.392   .     A
C584   C1281   1.402   .     S
C584   C1294   1.422   .     S
C585   H616    1.084   .     S
C585   C586    1.387   .     A
C586   H592    1.082   .     S
C587   O622    1.385   .     S
C588   H589    1.081   .     S
H591   C1284   1.083   1_554 S
H597   C103    1.110   1_565 S
H599   C104    1.110   1_565 S
H617   C1281   1.084   .     S
N619   Zn631   2.016   .     S
N620   Zn632   2.016   .     S
O621   Zn631   1.992   .     S
O623   Zn632   1.995   .     S
O624   Zn631   1.959   .     S
O625   Zn632   1.909   .     S
O626   Zn631   1.995   .     S
O627   Zn632   1.992   .     S
O628   Zn631   1.909   .     S
O629   Zn632   1.959   .     S
C633   O700    1.283   .     A
C633   C641    1.412   .     S
C633   O702    1.285   .     A
C634   C651    1.404   .     A
C634   C636    1.461   .     S
C634   C655    1.411   .     A
C635   C641    1.393   .     A
C635   H672    1.084   .     S
C635   C163    1.374   1_565 S
C636   O704    1.296   .     A
C636   O703    1.294   .     A
C637   C638    1.408   .     A
C637   O709    1.384   .     S
C638   C647    1.418   .     S
C638   C639    1.397   .     A
C639   H679    1.084   .     S
C640   H690    1.084   .     S
C640   C641    1.394   .     A
C640   C165    1.369   1_565 S
C642   H692    1.079   .     S
C642   N699    1.353   .     A
C642   C485    1.416   1_655 S
C643   N698    1.388   .     A
C643   C658    1.505   .     S
C644   C655    1.405   .     A
C644   C1364   1.417   .     S
C644   C1373   1.415   .     S
C645   N698    1.366   .     A
C645   H693    1.082   .     S
C646   H694    1.082   .     S
C646   N699    1.368   .     A
C646   C487    1.419   1_655 S
C647   O705    1.286   .     A
C647   O706    1.284   .     A
C648   O707    1.294   .     A
C648   O708    1.294   .     A
C648   C650    1.452   .     S
C649   C667    1.391   .     A
C649   C1374   1.402   1_554 S
C649   H1407   1.084   1_554 S
C650   C667    1.398   .     A
C650   C666    1.397   .     A
C651   C652    1.390   .     A
C651   H697    1.083   .     S
C652   C1364   1.393   .     S
C652   H1381   1.083   .     S
C653   H669    1.080   .     S
C653   C1363   1.393   1_554 S
C653   C1355   1.417   1_554 S
C654   H673    1.108   .     S
C654   O709    1.416   .     S
C654   C656    1.533   .     S
C654   H674    1.117   .     S
C655   C665    1.413   .     A
C656   C657    1.526   .     S
C656   H675    1.112   .     S
C657   H680    1.111   .     S
C657   H677    1.111   .     S
C658   H682    1.106   .     S
C658   H681    1.101   .     S
C658   H683    1.111   .     S
C659   O701    1.416   .     S
C659   H684    1.111   .     S
C659   H685    1.119   .     S
C659   C660    1.530   .     S
C660   C661    1.526   .     S
C660   H687    1.111   .     S
C660   H686    1.112   .     S
C661   H691    1.111   .     S
C661   H688    1.110   .     S
C661   H215    1.110   1_565 S
C662   C666    1.402   .     A
C662   C1355   1.415   1_554 S
C662   C1374   1.422   1_554 S
C663   C664    1.392   .     A
C663   C1360   1.402   .     S
C663   C1373   1.422   .     S
C664   H695    1.084   .     S
C664   C665    1.387   .     A
C665   H671    1.082   .     S
C666   O701    1.385   .     S
C667   H668    1.081   .     S
H670   C1363   1.083   1_554 S
H676   C182    1.110   1_565 S
H678   C183    1.110   1_565 S
H696   C1360   1.084   .     S
N698   Zn710   2.016   .     S
N699   Zn711   2.016   .     S
O700   Zn710   1.992   .     S
O702   Zn711   1.995   .     S
O703   Zn710   1.959   .     S
O704   Zn711   1.909   .     S
O705   Zn710   1.995   .     S
O706   Zn711   1.992   .     S
O707   Zn710   1.909   .     S
O708   Zn711   1.959   .     S
C712   O779    1.283   .     A
C712   C720    1.412   .     S
C712   O781    1.285   .     A
C713   C730    1.404   .     A
C713   C715    1.461   .     S
C713   C734    1.411   .     A
C714   C720    1.393   .     A
C714   H751    1.084   .     S
C714   C953    1.374   .     S
C715   O783    1.296   .     A
C715   O782    1.294   .     A
C716   C717    1.408   .     A
C716   O788    1.384   .     S
C716   C1188   1.374   1_545 S
C717   C726    1.418   .     S
C717   C718    1.397   .     A
C718   H758    1.084   .     S
C718   C1193   1.369   1_545 S
C719   H769    1.084   .     S
C719   C720    1.394   .     A
C719   C955    1.369   .     S
C721   H771    1.079   .     S
C721   N778    1.353   .     A
C721   C801    1.416   .     S
C722   N777    1.388   .     A
C722   C737    1.505   .     S
C722   C879    1.416   1_455 S
C723   C734    1.405   .     A
C723   C21     1.417   1_556 S
C723   C30     1.415   1_556 S
C724   N777    1.366   .     A
C724   H772    1.082   .     S
C724   C883    1.419   1_455 S
C725   H773    1.082   .     S
C725   N778    1.368   .     A
C725   C803    1.419   .     S
C726   O784    1.286   .     A
C726   O785    1.284   .     A
C727   O786    1.294   .     A
C727   O787    1.294   .     A
C727   C729    1.452   .     S
C728   C746    1.391   .     A
C729   C746    1.398   .     A
C729   C745    1.397   .     A
C730   C731    1.390   .     A
C730   H776    1.083   .     S
C731   C21     1.393   1_556 S
C731   H38     1.083   1_556 S
C732   H748    1.080   .     S
C733   H752    1.108   .     S
C733   O788    1.416   .     S
C733   C735    1.533   .     S
C733   H753    1.117   .     S
C734   C744    1.413   .     A
C735   C736    1.526   .     S
C735   H754    1.112   .     S
C735   H1229   1.110   1_545 S
C736   H759    1.111   .     S
C736   H756    1.111   .     S
C736   H1231   1.110   1_545 S
C737   H761    1.106   .     S
C737   H760    1.101   .     S
C737   H762    1.111   .     S
C738   O780    1.416   .     S
C738   H763    1.111   .     S
C738   H764    1.119   .     S
C738   C739    1.530   .     S
C739   C740    1.526   .     S
C739   H766    1.111   .     S
C739   H765    1.112   .     S
C740   H770    1.111   .     S
C740   H767    1.110   .     S
C740   H1005   1.110   .     S
C741   C745    1.402   .     A
C742   C743    1.392   .     A
C742   C17     1.402   1_556 S
C742   C30     1.422   1_556 S
C743   H774    1.084   .     S
C743   C744    1.387   .     A
C744   H750    1.082   .     S
C745   O780    1.385   .     S
C746   H747    1.081   .     S
H755   C972    1.110   .     S
H757   C973    1.110   .     S
H768   C1214   1.110   1_545 S
H775   C17     1.084   1_556 S
N777   Zn789   2.016   .     S
N778   Zn790   2.016   .     S
O779   Zn789   1.992   .     S
O781   Zn790   1.995   .     S
O782   Zn789   1.959   .     S
O783   Zn790   1.909   .     S
O784   Zn789   1.995   .     S
O785   Zn790   1.992   .     S
O786   Zn789   1.909   .     S
O787   Zn790   1.959   .     S
C791   O858    1.283   .     A
C791   C799    1.412   .     S
C791   O860    1.285   .     A
C792   C809    1.404   .     A
C792   C794    1.461   .     S
C792   C813    1.411   .     A
C793   C799    1.393   .     A
C793   H830    1.084   .     S
C793   C1032   1.374   .     S
C794   O862    1.296   .     A
C794   O861    1.294   .     A
C795   C796    1.408   .     A
C795   O867    1.384   .     S
C795   C1267   1.374   1_545 S
C796   C805    1.418   .     S
C796   C797    1.397   .     A
C797   H837    1.084   .     S
C797   C1272   1.369   1_545 S
C798   H848    1.084   .     S
C798   C799    1.394   .     A
C798   C1034   1.369   .     S
C800   H850    1.079   .     S
C800   N857    1.353   .     A
C800   C880    1.416   .     S
C801   N856    1.388   .     A
C801   C816    1.505   .     S
C802   C813    1.405   .     A
C802   C100    1.417   1_556 S
C802   C109    1.415   1_556 S
C803   N856    1.366   .     A
C803   H851    1.082   .     S
C804   H852    1.082   .     S
C804   N857    1.368   .     A
C804   C882    1.419   .     S
C805   O863    1.286   .     A
C805   O864    1.284   .     A
C806   O865    1.294   .     A
C806   O866    1.294   .     A
C806   C808    1.452   .     S
C807   C825    1.391   .     A
C808   C825    1.398   .     A
C808   C824    1.397   .     A
C809   C810    1.390   .     A
C809   H855    1.083   .     S
C810   C100    1.393   1_556 S
C810   H117    1.083   1_556 S
C811   H827    1.080   .     S
C812   H831    1.108   .     S
C812   O867    1.416   .     S
C812   C814    1.533   .     S
C812   H832    1.117   .     S
C813   C823    1.413   .     A
C814   C815    1.526   .     S
C814   H833    1.112   .     S
C814   H1308   1.110   1_545 S
C815   H838    1.111   .     S
C815   H835    1.111   .     S
C815   H1310   1.110   1_545 S
C816   H840    1.106   .     S
C816   H839    1.101   .     S
C816   H841    1.111   .     S
C817   O859    1.416   .     S
C817   H842    1.111   .     S
C817   H843    1.119   .     S
C817   C818    1.530   .     S
C818   C819    1.526   .     S
C818   H845    1.111   .     S
C818   H844    1.112   .     S
C819   H849    1.111   .     S
C819   H846    1.110   .     S
C819   H1084   1.110   .     S
C820   C824    1.402   .     A
C821   C822    1.392   .     A
C821   C96     1.402   1_556 S
C821   C109    1.422   1_556 S
C822   H853    1.084   .     S
C822   C823    1.387   .     A
C823   H829    1.082   .     S
C824   O859    1.385   .     S
C825   H826    1.081   .     S
H834   C1051   1.110   .     S
H836   C1052   1.110   .     S
H847   C1293   1.110   1_545 S
H854   C96     1.084   1_556 S
N856   Zn868   2.016   .     S
N857   Zn869   2.016   .     S
O858   Zn868   1.992   .     S
O860   Zn869   1.995   .     S
O861   Zn868   1.959   .     S
O862   Zn869   1.909   .     S
O863   Zn868   1.995   .     S
O864   Zn869   1.992   .     S
O865   Zn868   1.909   .     S
O866   Zn869   1.959   .     S
C870   O937    1.283   .     A
C870   C878    1.412   .     S
C870   O939    1.285   .     A
C871   C888    1.404   .     A
C871   C873    1.461   .     S
C871   C892    1.411   .     A
C872   C878    1.393   .     A
C872   H909    1.084   .     S
C872   C1111   1.374   .     S
C873   O941    1.296   .     A
C873   O940    1.294   .     A
C874   C875    1.408   .     A
C874   O946    1.384   .     S
C874   C1346   1.374   1_545 S
C875   C884    1.418   .     S
C875   C876    1.397   .     A
C876   H916    1.084   .     S
C876   C1351   1.369   1_545 S
C877   H927    1.084   .     S
C877   C878    1.394   .     A
C877   C1113   1.369   .     S
C879   H929    1.079   .     S
C879   N936    1.353   .     A
C879   C722    1.416   1_655 S
C880   N935    1.388   .     A
C880   C895    1.505   .     S
C881   C892    1.405   .     A
C881   C179    1.417   1_556 S
C881   C188    1.415   1_556 S
C882   N935    1.366   .     A
C882   H930    1.082   .     S
C883   H931    1.082   .     S
C883   N936    1.368   .     A
C883   C724    1.419   1_655 S
C884   O942    1.286   .     A
C884   O943    1.284   .     A
C885   O944    1.294   .     A
C885   O945    1.294   .     A
C885   C887    1.452   .     S
C886   C904    1.391   .     A
C887   C904    1.398   .     A
C887   C903    1.397   .     A
C888   C889    1.390   .     A
C888   H934    1.083   .     S
C889   C179    1.393   1_556 S
C889   H196    1.083   1_556 S
C890   H906    1.080   .     S
C891   H910    1.108   .     S
C891   O946    1.416   .     S
C891   C893    1.533   .     S
C891   H911    1.117   .     S
C892   C902    1.413   .     A
C893   C894    1.526   .     S
C893   H912    1.112   .     S
C893   H1387   1.110   1_545 S
C894   H917    1.111   .     S
C894   H914    1.111   .     S
C894   H1389   1.110   1_545 S
C895   H919    1.106   .     S
C895   H918    1.101   .     S
C895   H920    1.111   .     S
C896   O938    1.416   .     S
C896   H921    1.111   .     S
C896   H922    1.119   .     S
C896   C897    1.530   .     S
C897   C898    1.526   .     S
C897   H924    1.111   .     S
C897   H923    1.112   .     S
C898   H928    1.111   .     S
C898   H925    1.110   .     S
C898   H1163   1.110   .     S
C899   C903    1.402   .     A
C900   C901    1.392   .     A
C900   C175    1.402   1_556 S
C900   C188    1.422   1_556 S
C901   H932    1.084   .     S
C901   C902    1.387   .     A
C902   H908    1.082   .     S
C903   O938    1.385   .     S
C904   H905    1.081   .     S
H913   C1130   1.110   .     S
H915   C1131   1.110   .     S
H926   C1372   1.110   1_545 S
H933   C175    1.084   1_556 S
N935   Zn947   2.016   .     S
N936   Zn948   2.016   .     S
O937   Zn947   1.992   .     S
O939   Zn948   1.995   .     S
O940   Zn947   1.959   .     S
O941   Zn948   1.909   .     S
O942   Zn947   1.995   .     S
O943   Zn948   1.992   .     S
O944   Zn947   1.909   .     S
O945   Zn948   1.959   .     S
C949   O1016   1.283   .     A
C949   C957    1.412   .     S
C949   O1018   1.285   .     A
C950   C967    1.404   .     A
C950   C952    1.461   .     S
C950   C971    1.411   .     A
C951   C957    1.393   .     A
C951   H988    1.084   .     S
C951   C1190   1.374   .     S
C952   O1020   1.296   .     A
C952   O1019   1.294   .     A
C953   C954    1.408   .     A
C953   O1025   1.384   .     S
C954   C963    1.418   .     S
C954   C955    1.397   .     A
C955   H995    1.084   .     S
C956   H1006   1.084   .     S
C956   C957    1.394   .     A
C956   C1192   1.369   .     S
C958   H1008   1.079   .     S
C958   N1015   1.353   .     A
C958   C1038   1.416   .     S
C959   N1014   1.388   .     A
C959   C974    1.505   .     S
C959   C1116   1.416   1_455 S
C960   C971    1.405   .     A
C960   C258    1.417   1_556 S
C960   C267    1.415   1_556 S
C961   N1014   1.366   .     A
C961   H1009   1.082   .     S
C961   C1120   1.419   1_455 S
C962   H1010   1.082   .     S
C962   N1015   1.368   .     A
C962   C1040   1.419   .     S
C963   O1021   1.286   .     A
C963   O1022   1.284   .     A
C964   O1023   1.294   .     A
C964   O1024   1.294   .     A
C964   C966    1.452   .     S
C965   C983    1.391   .     A
C966   C983    1.398   .     A
C966   C982    1.397   .     A
C967   C968    1.390   .     A
C967   H1013   1.083   .     S
C968   C258    1.393   1_556 S
C968   H275    1.083   1_556 S
C969   H985    1.080   .     S
C970   H989    1.108   .     S
C970   O1025   1.416   .     S
C970   C972    1.533   .     S
C970   H990    1.117   .     S
C971   C981    1.413   .     A
C972   C973    1.526   .     S
C972   H991    1.112   .     S
C973   H996    1.111   .     S
C973   H993    1.111   .     S
C974   H998    1.106   .     S
C974   H997    1.101   .     S
C974   H999    1.111   .     S
C975   O1017   1.416   .     S
C975   H1000   1.111   .     S
C975   H1001   1.119   .     S
C975   C976    1.530   .     S
C976   C977    1.526   .     S
C976   H1003   1.111   .     S
C976   H1002   1.112   .     S
C977   H1007   1.111   .     S
C977   H1004   1.110   .     S
C977   H1242   1.110   .     S
C978   C982    1.402   .     A
C979   C980    1.392   .     A
C979   C254    1.402   1_556 S
C979   C267    1.422   1_556 S
C980   H1011   1.084   .     S
C980   C981    1.387   .     A
C981   H987    1.082   .     S
C982   O1017   1.385   .     S
C983   H984    1.081   .     S
H992   C1209   1.110   .     S
H994   C1210   1.110   .     S
H1012  C254    1.084   1_556 S
N1014  Zn1026  2.016   .     S
N1015  Zn1027  2.016   .     S
O1016  Zn1026  1.992   .     S
O1018  Zn1027  1.995   .     S
O1019  Zn1026  1.959   .     S
O1020  Zn1027  1.909   .     S
O1021  Zn1026  1.995   .     S
O1022  Zn1027  1.992   .     S
O1023  Zn1026  1.909   .     S
O1024  Zn1027  1.959   .     S
C1028  O1095   1.283   .     A
C1028  C1036   1.412   .     S
C1028  O1097   1.285   .     A
C1029  C1046   1.404   .     A
C1029  C1031   1.461   .     S
C1029  C1050   1.411   .     A
C1030  C1036   1.393   .     A
C1030  H1067   1.084   .     S
C1030  C1269   1.374   .     S
C1031  O1099   1.296   .     A
C1031  O1098   1.294   .     A
C1032  C1033   1.408   .     A
C1032  O1104   1.384   .     S
C1033  C1042   1.418   .     S
C1033  C1034   1.397   .     A
C1034  H1074   1.084   .     S
C1035  H1085   1.084   .     S
C1035  C1036   1.394   .     A
C1035  C1271   1.369   .     S
C1037  H1087   1.079   .     S
C1037  N1094   1.353   .     A
C1037  C1117   1.416   .     S
C1038  N1093   1.388   .     A
C1038  C1053   1.505   .     S
C1039  C1050   1.405   .     A
C1039  C337    1.417   1_556 S
C1039  C346    1.415   1_556 S
C1040  N1093   1.366   .     A
C1040  H1088   1.082   .     S
C1041  H1089   1.082   .     S
C1041  N1094   1.368   .     A
C1041  C1119   1.419   .     S
C1042  O1100   1.286   .     A
C1042  O1101   1.284   .     A
C1043  O1102   1.294   .     A
C1043  O1103   1.294   .     A
C1043  C1045   1.452   .     S
C1044  C1062   1.391   .     A
C1045  C1062   1.398   .     A
C1045  C1061   1.397   .     A
C1046  C1047   1.390   .     A
C1046  H1092   1.083   .     S
C1047  C337    1.393   1_556 S
C1047  H354    1.083   1_556 S
C1048  H1064   1.080   .     S
C1049  H1068   1.108   .     S
C1049  O1104   1.416   .     S
C1049  C1051   1.533   .     S
C1049  H1069   1.117   .     S
C1050  C1060   1.413   .     A
C1051  C1052   1.526   .     S
C1051  H1070   1.112   .     S
C1052  H1075   1.111   .     S
C1052  H1072   1.111   .     S
C1053  H1077   1.106   .     S
C1053  H1076   1.101   .     S
C1053  H1078   1.111   .     S
C1054  O1096   1.416   .     S
C1054  H1079   1.111   .     S
C1054  H1080   1.119   .     S
C1054  C1055   1.530   .     S
C1055  C1056   1.526   .     S
C1055  H1082   1.111   .     S
C1055  H1081   1.112   .     S
C1056  H1086   1.111   .     S
C1056  H1083   1.110   .     S
C1056  H1321   1.110   .     S
C1057  C1061   1.402   .     A
C1058  C1059   1.392   .     A
C1058  C333    1.402   1_556 S
C1058  C346    1.422   1_556 S
C1059  H1090   1.084   .     S
C1059  C1060   1.387   .     A
C1060  H1066   1.082   .     S
C1061  O1096   1.385   .     S
C1062  H1063   1.081   .     S
H1071  C1288   1.110   .     S
H1073  C1289   1.110   .     S
H1091  C333    1.084   1_556 S
N1093  Zn1105  2.016   .     S
N1094  Zn1106  2.016   .     S
O1095  Zn1105  1.992   .     S
O1097  Zn1106  1.995   .     S
O1098  Zn1105  1.959   .     S
O1099  Zn1106  1.909   .     S
O1100  Zn1105  1.995   .     S
O1101  Zn1106  1.992   .     S
O1102  Zn1105  1.909   .     S
O1103  Zn1106  1.959   .     S
C1107  O1174   1.283   .     A
C1107  C1115   1.412   .     S
C1107  O1176   1.285   .     A
C1108  C1125   1.404   .     A
C1108  C1110   1.461   .     S
C1108  C1129   1.411   .     A
C1109  C1115   1.393   .     A
C1109  H1146   1.084   .     S
C1109  C1348   1.374   .     S
C1110  O1178   1.296   .     A
C1110  O1177   1.294   .     A
C1111  C1112   1.408   .     A
C1111  O1183   1.384   .     S
C1112  C1121   1.418   .     S
C1112  C1113   1.397   .     A
C1113  H1153   1.084   .     S
C1114  H1164   1.084   .     S
C1114  C1115   1.394   .     A
C1114  C1350   1.369   .     S
C1116  H1166   1.079   .     S
C1116  N1173   1.353   .     A
C1116  C959    1.416   1_655 S
C1117  N1172   1.388   .     A
C1117  C1132   1.505   .     S
C1118  C1129   1.405   .     A
C1118  C416    1.417   1_556 S
C1118  C425    1.415   1_556 S
C1119  N1172   1.366   .     A
C1119  H1167   1.082   .     S
C1120  H1168   1.082   .     S
C1120  N1173   1.368   .     A
C1120  C961    1.419   1_655 S
C1121  O1179   1.286   .     A
C1121  O1180   1.284   .     A
C1122  O1181   1.294   .     A
C1122  O1182   1.294   .     A
C1122  C1124   1.452   .     S
C1123  C1141   1.391   .     A
C1124  C1141   1.398   .     A
C1124  C1140   1.397   .     A
C1125  C1126   1.390   .     A
C1125  H1171   1.083   .     S
C1126  C416    1.393   1_556 S
C1126  H433    1.083   1_556 S
C1127  H1143   1.080   .     S
C1128  H1147   1.108   .     S
C1128  O1183   1.416   .     S
C1128  C1130   1.533   .     S
C1128  H1148   1.117   .     S
C1129  C1139   1.413   .     A
C1130  C1131   1.526   .     S
C1130  H1149   1.112   .     S
C1131  H1154   1.111   .     S
C1131  H1151   1.111   .     S
C1132  H1156   1.106   .     S
C1132  H1155   1.101   .     S
C1132  H1157   1.111   .     S
C1133  O1175   1.416   .     S
C1133  H1158   1.111   .     S
C1133  H1159   1.119   .     S
C1133  C1134   1.530   .     S
C1134  C1135   1.526   .     S
C1134  H1161   1.111   .     S
C1134  H1160   1.112   .     S
C1135  H1165   1.111   .     S
C1135  H1162   1.110   .     S
C1135  H1400   1.110   .     S
C1136  C1140   1.402   .     A
C1137  C1138   1.392   .     A
C1137  C412    1.402   1_556 S
C1137  C425    1.422   1_556 S
C1138  H1169   1.084   .     S
C1138  C1139   1.387   .     A
C1139  H1145   1.082   .     S
C1140  O1175   1.385   .     S
C1141  H1142   1.081   .     S
H1150  C1367   1.110   .     S
H1152  C1368   1.110   .     S
H1170  C412    1.084   1_556 S
N1172  Zn1184  2.016   .     S
N1173  Zn1185  2.016   .     S
O1174  Zn1184  1.992   .     S
O1176  Zn1185  1.995   .     S
O1177  Zn1184  1.959   .     S
O1178  Zn1185  1.909   .     S
O1179  Zn1184  1.995   .     S
O1180  Zn1185  1.992   .     S
O1181  Zn1184  1.909   .     S
O1182  Zn1185  1.959   .     S
C1186  O1253   1.283   .     A
C1186  C1194   1.412   .     S
C1186  O1255   1.285   .     A
C1187  C1204   1.404   .     A
C1187  C1189   1.461   .     S
C1187  C1208   1.411   .     A
C1188  C1194   1.393   .     A
C1188  H1225   1.084   .     S
C1188  C716    1.374   1_565 S
C1189  O1257   1.296   .     A
C1189  O1256   1.294   .     A
C1190  C1191   1.408   .     A
C1190  O1262   1.384   .     S
C1191  C1200   1.418   .     S
C1191  C1192   1.397   .     A
C1192  H1232   1.084   .     S
C1193  H1243   1.084   .     S
C1193  C1194   1.394   .     A
C1193  C718    1.369   1_565 S
C1195  H1245   1.079   .     S
C1195  N1252   1.353   .     A
C1195  C1275   1.416   .     S
C1196  N1251   1.388   .     A
C1196  C1211   1.505   .     S
C1196  C1353   1.416   1_455 S
C1197  C1208   1.405   .     A
C1197  C495    1.417   1_556 S
C1197  C504    1.415   1_556 S
C1198  N1251   1.366   .     A
C1198  H1246   1.082   .     S
C1198  C1357   1.419   1_455 S
C1199  H1247   1.082   .     S
C1199  N1252   1.368   .     A
C1199  C1277   1.419   .     S
C1200  O1258   1.286   .     A
C1200  O1259   1.284   .     A
C1201  O1260   1.294   .     A
C1201  O1261   1.294   .     A
C1201  C1203   1.452   .     S
C1202  C1220   1.391   .     A
C1203  C1220   1.398   .     A
C1203  C1219   1.397   .     A
C1204  C1205   1.390   .     A
C1204  H1250   1.083   .     S
C1205  C495    1.393   1_556 S
C1205  H512    1.083   1_556 S
C1206  H1222   1.080   .     S
C1207  H1226   1.108   .     S
C1207  O1262   1.416   .     S
C1207  C1209   1.533   .     S
C1207  H1227   1.117   .     S
C1208  C1218   1.413   .     A
C1209  C1210   1.526   .     S
C1209  H1228   1.112   .     S
C1210  H1233   1.111   .     S
C1210  H1230   1.111   .     S
C1211  H1235   1.106   .     S
C1211  H1234   1.101   .     S
C1211  H1236   1.111   .     S
C1212  O1254   1.416   .     S
C1212  H1237   1.111   .     S
C1212  H1238   1.119   .     S
C1212  C1213   1.530   .     S
C1213  C1214   1.526   .     S
C1213  H1240   1.111   .     S
C1213  H1239   1.112   .     S
C1214  H1244   1.111   .     S
C1214  H1241   1.110   .     S
C1214  H768    1.110   1_565 S
C1215  C1219   1.402   .     A
C1216  C1217   1.392   .     A
C1216  C491    1.402   1_556 S
C1216  C504    1.422   1_556 S
C1217  H1248   1.084   .     S
C1217  C1218   1.387   .     A
C1218  H1224   1.082   .     S
C1219  O1254   1.385   .     S
C1220  H1221   1.081   .     S
H1229  C735    1.110   1_565 S
H1231  C736    1.110   1_565 S
H1249  C491    1.084   1_556 S
N1251  Zn1263  2.016   .     S
N1252  Zn1264  2.016   .     S
O1253  Zn1263  1.992   .     S
O1255  Zn1264  1.995   .     S
O1256  Zn1263  1.959   .     S
O1257  Zn1264  1.909   .     S
O1258  Zn1263  1.995   .     S
O1259  Zn1264  1.992   .     S
O1260  Zn1263  1.909   .     S
O1261  Zn1264  1.959   .     S
C1265  O1332   1.283   .     A
C1265  C1273   1.412   .     S
C1265  O1334   1.285   .     A
C1266  C1283   1.404   .     A
C1266  C1268   1.461   .     S
C1266  C1287   1.411   .     A
C1267  C1273   1.393   .     A
C1267  H1304   1.084   .     S
C1267  C795    1.374   1_565 S
C1268  O1336   1.296   .     A
C1268  O1335   1.294   .     A
C1269  C1270   1.408   .     A
C1269  O1341   1.384   .     S
C1270  C1279   1.418   .     S
C1270  C1271   1.397   .     A
C1271  H1311   1.084   .     S
C1272  H1322   1.084   .     S
C1272  C1273   1.394   .     A
C1272  C797    1.369   1_565 S
C1274  H1324   1.079   .     S
C1274  N1331   1.353   .     A
C1274  C1354   1.416   .     S
C1275  N1330   1.388   .     A
C1275  C1290   1.505   .     S
C1276  C1287   1.405   .     A
C1276  C574    1.417   1_556 S
C1276  C583    1.415   1_556 S
C1277  N1330   1.366   .     A
C1277  H1325   1.082   .     S
C1278  H1326   1.082   .     S
C1278  N1331   1.368   .     A
C1278  C1356   1.419   .     S
C1279  O1337   1.286   .     A
C1279  O1338   1.284   .     A
C1280  O1339   1.294   .     A
C1280  O1340   1.294   .     A
C1280  C1282   1.452   .     S
C1281  C1299   1.391   .     A
C1282  C1299   1.398   .     A
C1282  C1298   1.397   .     A
C1283  C1284   1.390   .     A
C1283  H1329   1.083   .     S
C1284  C574    1.393   1_556 S
C1284  H591    1.083   1_556 S
C1285  H1301   1.080   .     S
C1286  H1305   1.108   .     S
C1286  O1341   1.416   .     S
C1286  C1288   1.533   .     S
C1286  H1306   1.117   .     S
C1287  C1297   1.413   .     A
C1288  C1289   1.526   .     S
C1288  H1307   1.112   .     S
C1289  H1312   1.111   .     S
C1289  H1309   1.111   .     S
C1290  H1314   1.106   .     S
C1290  H1313   1.101   .     S
C1290  H1315   1.111   .     S
C1291  O1333   1.416   .     S
C1291  H1316   1.111   .     S
C1291  H1317   1.119   .     S
C1291  C1292   1.530   .     S
C1292  C1293   1.526   .     S
C1292  H1319   1.111   .     S
C1292  H1318   1.112   .     S
C1293  H1323   1.111   .     S
C1293  H1320   1.110   .     S
C1293  H847    1.110   1_565 S
C1294  C1298   1.402   .     A
C1295  C1296   1.392   .     A
C1295  C570    1.402   1_556 S
C1295  C583    1.422   1_556 S
C1296  H1327   1.084   .     S
C1296  C1297   1.387   .     A
C1297  H1303   1.082   .     S
C1298  O1333   1.385   .     S
C1299  H1300   1.081   .     S
H1308  C814    1.110   1_565 S
H1310  C815    1.110   1_565 S
H1328  C570    1.084   1_556 S
N1330  Zn1342  2.016   .     S
N1331  Zn1343  2.016   .     S
O1332  Zn1342  1.992   .     S
O1334  Zn1343  1.995   .     S
O1335  Zn1342  1.959   .     S
O1336  Zn1343  1.909   .     S
O1337  Zn1342  1.995   .     S
O1338  Zn1343  1.992   .     S
O1339  Zn1342  1.909   .     S
O1340  Zn1343  1.959   .     S
C1344  O1411   1.283   .     A
C1344  C1352   1.412   .     S
C1344  O1413   1.285   .     A
C1345  C1362   1.404   .     A
C1345  C1347   1.461   .     S
C1345  C1366   1.411   .     A
C1346  C1352   1.393   .     A
C1346  H1383   1.084   .     S
C1346  C874    1.374   1_565 S
C1347  O1415   1.296   .     A
C1347  O1414   1.294   .     A
C1348  C1349   1.408   .     A
C1348  O1420   1.384   .     S
C1349  C1358   1.418   .     S
C1349  C1350   1.397   .     A
C1350  H1390   1.084   .     S
C1351  H1401   1.084   .     S
C1351  C1352   1.394   .     A
C1351  C876    1.369   1_565 S
C1353  H1403   1.079   .     S
C1353  N1410   1.353   .     A
C1353  C1196   1.416   1_655 S
C1354  N1409   1.388   .     A
C1354  C1369   1.505   .     S
C1355  C1366   1.405   .     A
C1355  C653    1.417   1_556 S
C1355  C662    1.415   1_556 S
C1356  N1409   1.366   .     A
C1356  H1404   1.082   .     S
C1357  H1405   1.082   .     S
C1357  N1410   1.368   .     A
C1357  C1198   1.419   1_655 S
C1358  O1416   1.286   .     A
C1358  O1417   1.284   .     A
C1359  O1418   1.294   .     A
C1359  O1419   1.294   .     A
C1359  C1361   1.452   .     S
C1360  C1378   1.391   .     A
C1361  C1378   1.398   .     A
C1361  C1377   1.397   .     A
C1362  C1363   1.390   .     A
C1362  H1408   1.083   .     S
C1363  C653    1.393   1_556 S
C1363  H670    1.083   1_556 S
C1364  H1380   1.080   .     S
C1365  H1384   1.108   .     S
C1365  O1420   1.416   .     S
C1365  C1367   1.533   .     S
C1365  H1385   1.117   .     S
C1366  C1376   1.413   .     A
C1367  C1368   1.526   .     S
C1367  H1386   1.112   .     S
C1368  H1391   1.111   .     S
C1368  H1388   1.111   .     S
C1369  H1393   1.106   .     S
C1369  H1392   1.101   .     S
C1369  H1394   1.111   .     S
C1370  O1412   1.416   .     S
C1370  H1395   1.111   .     S
C1370  H1396   1.119   .     S
C1370  C1371   1.530   .     S
C1371  C1372   1.526   .     S
C1371  H1398   1.111   .     S
C1371  H1397   1.112   .     S
C1372  H1402   1.111   .     S
C1372  H1399   1.110   .     S
C1372  H926    1.110   1_565 S
C1373  C1377   1.402   .     A
C1374  C1375   1.392   .     A
C1374  C649    1.402   1_556 S
C1374  C662    1.422   1_556 S
C1375  H1406   1.084   .     S
C1375  C1376   1.387   .     A
C1376  H1382   1.082   .     S
C1377  O1412   1.385   .     S
C1378  H1379   1.081   .     S
H1387  C893    1.110   1_565 S
H1389  C894    1.110   1_565 S
H1407  C649    1.084   1_556 S
N1409  Zn1421  2.016   .     S
N1410  Zn1422  2.016   .     S
O1411  Zn1421  1.992   .     S
O1413  Zn1422  1.995   .     S
O1414  Zn1421  1.959   .     S
O1415  Zn1422  1.909   .     S
O1416  Zn1421  1.995   .     S
O1417  Zn1422  1.992   .     S
O1418  Zn1421  1.909   .     S
O1419  Zn1422  1.959   .     S
