data_str_m3_o1_o16_pcu_sym.65
_audit_creation_date              2020-01-03
_audit_creation_method            'Materials Studio'
_symmetry_space_group_name_H-M    'P1'
_symmetry_Int_Tables_number       1
_symmetry_cell_setting            triclinic
loop_
_symmetry_equiv_pos_as_xyz
  x,y,z
_cell_length_a                    29.6570
_cell_length_b                    32.0472
_cell_length_c                    26.0440
_cell_angle_alpha                 90.7710
_cell_angle_beta                  69.2555
_cell_angle_gamma                 90.5294
loop_
_atom_site_label
_atom_site_type_symbol
_atom_site_fract_x
_atom_site_fract_y
_atom_site_fract_z
_atom_site_U_iso_or_equiv
_atom_site_adp_type
_atom_site_occupancy
C1     C     0.16675   0.24664   0.25022   0.00000  Uiso   1.00
C2     C     0.12096   0.16153   0.41306   0.00000  Uiso   1.00
C3     C     0.21065   0.31212   0.22968   0.00000  Uiso   1.00
C4     C     0.13941   0.16460   0.35267   0.00000  Uiso   1.00
C5     C     0.21053   0.02156   0.22934   0.00000  Uiso   1.00
C6     C     0.16652   0.04253   0.24969   0.00000  Uiso   1.00
C7     C     0.12267   0.02121   0.27041   0.00000  Uiso   1.00
C8     C     0.12280   0.31178   0.27072   0.00000  Uiso   1.00
C9     C     0.16680   0.29080   0.25037   0.00000  Uiso   1.00
C10    C     0.31888   0.13956   0.21734   0.00000  Uiso   1.00
C11    C     0.03333   0.13927   0.21734   0.00000  Uiso   1.00
C12    C     0.14727   0.16425   0.49133   0.00000  Uiso   1.00
C13    C     0.01450   0.19383   0.28255   0.00000  Uiso   1.00
C14    C     0.29993   0.19384   0.28298   0.00000  Uiso   1.00
C15    C     0.16657   0.08669   0.24982   0.00000  Uiso   1.00
C16    C     0.19379   0.16701   0.14765   0.00000  Uiso   1.00
C17    C     0.25497   0.11881   0.01078   0.00000  Uiso   1.00
C18    C     0.21214   0.16290   0.08835   0.00000  Uiso   1.00
C19    C     0.07515   0.17748   0.44609   0.00000  Uiso   1.00
C20    C     0.06633   0.18667   0.00140   0.00000  Uiso   1.00
C21    C     0.10224   0.18133   0.02340   0.00000  Uiso   1.00
C22    C     0.06673   0.10856   0.18173   0.00000  Uiso   1.00
C23    C     0.15335   0.14889   0.43848   0.00000  Uiso   1.00
C24    C     0.26609   0.22341   0.32031   0.00000  Uiso   1.00
C25    C     0.16926   0.22511   0.07034   0.00000  Uiso   1.00
C26    C     0.03483   0.18278   0.42581   0.00000  Uiso   1.00
C27    C     0.18519   0.15923   0.01171   0.00000  Uiso   1.00
C28    C     0.22224   0.12997   0.48570   0.00000  Uiso   1.00
C29    C     0.22490   0.11108   0.43624   0.00000  Uiso   1.00
C30    C     0.19138   0.12094   0.41237   0.00000  Uiso   1.00
C31    C     0.18657   0.18101   0.05843   0.00000  Uiso   1.00
C32    C     0.24816   0.13345   0.06345   0.00000  Uiso   1.00
H33    H     0.26920   0.12024   0.08574   0.00000  Uiso   1.00
H34    H     0.03149   0.19831   0.02770   0.00000  Uiso   1.00
H35    H     0.19424   0.10510   0.37437   0.00000  Uiso   1.00
H36    H     0.24472   0.29582   0.21324   0.00000  Uiso   1.00
H37    H     0.11491   0.09482   0.10669   0.00000  Uiso   1.00
H38    H     0.22028   0.23564   0.39714   0.00000  Uiso   1.00
H39    H     0.15393   0.27894   0.04065   0.00000  Uiso   1.00
H40    H     0.32550   0.15642   0.38876   0.00000  Uiso   1.00
H41    H     0.24456   0.03813   0.21281   0.00000  Uiso   1.00
H42    H     0.08861   0.03751   0.28692   0.00000  Uiso   1.00
H43    H     0.08876   0.29520   0.28725   0.00000  Uiso   1.00
H44    H     0.30820   0.11795   0.19135   0.00000  Uiso   1.00
H45    H     0.02516   0.21540   0.30859   0.00000  Uiso   1.00
H46    H     0.25290   0.08865   0.41598   0.00000  Uiso   1.00
H47    H     0.28297   0.09609   0.49183   0.00000  Uiso   1.00
H48    H     0.09347   0.18882   0.06643   0.00000  Uiso   1.00
N49    N     0.04760   0.16668   0.25001   0.00000  Uiso   1.00
N50    N     0.28573   0.16665   0.25000   0.00000  Uiso   1.00
O51    O     0.12846   0.22775   0.25000   0.00000  Uiso   1.00
O52    O     0.09376   0.11867   0.12747   0.00000  Uiso   1.00
O53    O     0.26184   0.25835   0.30445   0.00000  Uiso   1.00
O54    O     0.24196   0.21255   0.37504   0.00000  Uiso   1.00
O55    O     0.16064   0.24074   0.11590   0.00000  Uiso   1.00
O56    O     0.16534   0.24957   0.02802   0.00000  Uiso   1.00
O57    O     0.01132   0.21497   0.43607   0.00000  Uiso   1.00
O58    O     0.02172   0.14987   0.39811   0.00000  Uiso   1.00
O59    O     0.20490   0.22774   0.25000   0.00000  Uiso   1.00
O60    O     0.10947   0.16666   0.32681   0.00000  Uiso   1.00
O61    O     0.18591   0.16665   0.32681   0.00000  Uiso   1.00
O62    O     0.12843   0.10559   0.24999   0.00000  Uiso   1.00
O63    O     0.20488   0.10558   0.24999   0.00000  Uiso   1.00
O64    O     0.14742   0.16668   0.17319   0.00000  Uiso   1.00
O65    O     0.22387   0.16667   0.17319   0.00000  Uiso   1.00
O66    O     0.06828   0.07341   0.19859   0.00000  Uiso   1.00
Zn67   Zn    0.11562   0.16667   0.25000   0.00000  Uiso   1.00
Zn68   Zn    0.21771   0.16666   0.25000   0.00000  Uiso   1.00
C69    C     0.50008   0.24664   0.25022   0.00000  Uiso   1.00
C70    C     0.45429   0.16153   0.41306   0.00000  Uiso   1.00
C71    C     0.54399   0.31212   0.22968   0.00000  Uiso   1.00
C72    C     0.47274   0.16460   0.35267   0.00000  Uiso   1.00
C73    C     0.54386   0.02156   0.22934   0.00000  Uiso   1.00
C74    C     0.49986   0.04253   0.24969   0.00000  Uiso   1.00
C75    C     0.45600   0.02121   0.27041   0.00000  Uiso   1.00
C76    C     0.45613   0.31178   0.27072   0.00000  Uiso   1.00
C77    C     0.50013   0.29080   0.25037   0.00000  Uiso   1.00
C78    C     0.65221   0.13956   0.21734   0.00000  Uiso   1.00
C79    C     0.36666   0.13927   0.21734   0.00000  Uiso   1.00
C80    C     0.48060   0.16425   0.49133   0.00000  Uiso   1.00
C81    C     0.34783   0.19383   0.28255   0.00000  Uiso   1.00
C82    C     0.63327   0.19384   0.28298   0.00000  Uiso   1.00
C83    C     0.49991   0.08669   0.24982   0.00000  Uiso   1.00
C84    C     0.52712   0.16701   0.14765   0.00000  Uiso   1.00
C85    C     0.58830   0.11881   0.01078   0.00000  Uiso   1.00
C86    C     0.54547   0.16290   0.08835   0.00000  Uiso   1.00
C87    C     0.40848   0.17748   0.44609   0.00000  Uiso   1.00
C88    C     0.39967   0.18667   0.00140   0.00000  Uiso   1.00
C89    C     0.43558   0.18133   0.02340   0.00000  Uiso   1.00
C90    C     0.40007   0.10856   0.18173   0.00000  Uiso   1.00
C91    C     0.48669   0.14889   0.43848   0.00000  Uiso   1.00
C92    C     0.59943   0.22341   0.32031   0.00000  Uiso   1.00
C93    C     0.50259   0.22511   0.07034   0.00000  Uiso   1.00
C94    C     0.36816   0.18278   0.42581   0.00000  Uiso   1.00
C95    C     0.51852   0.15923   0.01171   0.00000  Uiso   1.00
C96    C     0.55558   0.12997   0.48570   0.00000  Uiso   1.00
C97    C     0.55824   0.11108   0.43624   0.00000  Uiso   1.00
C98    C     0.52471   0.12094   0.41237   0.00000  Uiso   1.00
C99    C     0.51990   0.18101   0.05843   0.00000  Uiso   1.00
C100   C     0.58149   0.13345   0.06345   0.00000  Uiso   1.00
H101   H     0.60253   0.12024   0.08574   0.00000  Uiso   1.00
H102   H     0.36482   0.19831   0.02770   0.00000  Uiso   1.00
H103   H     0.52757   0.10510   0.37437   0.00000  Uiso   1.00
H104   H     0.57806   0.29582   0.21324   0.00000  Uiso   1.00
H105   H     0.44825   0.09482   0.10669   0.00000  Uiso   1.00
H106   H     0.55361   0.23564   0.39714   0.00000  Uiso   1.00
H107   H     0.48726   0.27894   0.04065   0.00000  Uiso   1.00
H108   H     0.65883   0.15642   0.38876   0.00000  Uiso   1.00
H109   H     0.57790   0.03813   0.21281   0.00000  Uiso   1.00
H110   H     0.42194   0.03751   0.28692   0.00000  Uiso   1.00
H111   H     0.42209   0.29520   0.28725   0.00000  Uiso   1.00
H112   H     0.64153   0.11795   0.19135   0.00000  Uiso   1.00
H113   H     0.35850   0.21540   0.30859   0.00000  Uiso   1.00
H114   H     0.58623   0.08865   0.41598   0.00000  Uiso   1.00
H115   H     0.61630   0.09609   0.49183   0.00000  Uiso   1.00
H116   H     0.42680   0.18882   0.06643   0.00000  Uiso   1.00
N117   N     0.38093   0.16668   0.25001   0.00000  Uiso   1.00
N118   N     0.61906   0.16665   0.25000   0.00000  Uiso   1.00
O119   O     0.46179   0.22775   0.25000   0.00000  Uiso   1.00
O120   O     0.42709   0.11867   0.12747   0.00000  Uiso   1.00
O121   O     0.59518   0.25835   0.30445   0.00000  Uiso   1.00
O122   O     0.57530   0.21255   0.37504   0.00000  Uiso   1.00
O123   O     0.49397   0.24074   0.11590   0.00000  Uiso   1.00
O124   O     0.49868   0.24957   0.02802   0.00000  Uiso   1.00
O125   O     0.34465   0.21497   0.43607   0.00000  Uiso   1.00
O126   O     0.35505   0.14987   0.39811   0.00000  Uiso   1.00
O127   O     0.53823   0.22774   0.25000   0.00000  Uiso   1.00
O128   O     0.44280   0.16666   0.32681   0.00000  Uiso   1.00
O129   O     0.51924   0.16665   0.32681   0.00000  Uiso   1.00
O130   O     0.46177   0.10559   0.24999   0.00000  Uiso   1.00
O131   O     0.53821   0.10558   0.24999   0.00000  Uiso   1.00
O132   O     0.48076   0.16668   0.17319   0.00000  Uiso   1.00
O133   O     0.55720   0.16667   0.17319   0.00000  Uiso   1.00
O134   O     0.40161   0.07341   0.19859   0.00000  Uiso   1.00
Zn135  Zn    0.44896   0.16667   0.25000   0.00000  Uiso   1.00
Zn136  Zn    0.55104   0.16666   0.25000   0.00000  Uiso   1.00
C137   C     0.83342   0.24664   0.25022   0.00000  Uiso   1.00
C138   C     0.78762   0.16153   0.41306   0.00000  Uiso   1.00
C139   C     0.87732   0.31212   0.22968   0.00000  Uiso   1.00
C140   C     0.80608   0.16460   0.35267   0.00000  Uiso   1.00
C141   C     0.87719   0.02156   0.22934   0.00000  Uiso   1.00
C142   C     0.83319   0.04253   0.24969   0.00000  Uiso   1.00
C143   C     0.78934   0.02121   0.27041   0.00000  Uiso   1.00
C144   C     0.78946   0.31178   0.27072   0.00000  Uiso   1.00
C145   C     0.83346   0.29080   0.25037   0.00000  Uiso   1.00
C146   C     0.98554   0.13956   0.21734   0.00000  Uiso   1.00
C147   C     0.69999   0.13927   0.21734   0.00000  Uiso   1.00
C148   C     0.81393   0.16425   0.49133   0.00000  Uiso   1.00
C149   C     0.68116   0.19383   0.28255   0.00000  Uiso   1.00
C150   C     0.96660   0.19384   0.28298   0.00000  Uiso   1.00
C151   C     0.83324   0.08669   0.24982   0.00000  Uiso   1.00
C152   C     0.86045   0.16701   0.14765   0.00000  Uiso   1.00
C153   C     0.92164   0.11881   0.01078   0.00000  Uiso   1.00
C154   C     0.87881   0.16290   0.08835   0.00000  Uiso   1.00
C155   C     0.74182   0.17748   0.44609   0.00000  Uiso   1.00
C156   C     0.73300   0.18667   0.00140   0.00000  Uiso   1.00
C157   C     0.76891   0.18133   0.02340   0.00000  Uiso   1.00
C158   C     0.73340   0.10856   0.18173   0.00000  Uiso   1.00
C159   C     0.82002   0.14889   0.43848   0.00000  Uiso   1.00
C160   C     0.93276   0.22341   0.32031   0.00000  Uiso   1.00
C161   C     0.83593   0.22511   0.07034   0.00000  Uiso   1.00
C162   C     0.70149   0.18278   0.42581   0.00000  Uiso   1.00
C163   C     0.85186   0.15923   0.01171   0.00000  Uiso   1.00
C164   C     0.88891   0.12997   0.48570   0.00000  Uiso   1.00
C165   C     0.89157   0.11108   0.43624   0.00000  Uiso   1.00
C166   C     0.85805   0.12094   0.41237   0.00000  Uiso   1.00
C167   C     0.85324   0.18101   0.05843   0.00000  Uiso   1.00
C168   C     0.91482   0.13345   0.06345   0.00000  Uiso   1.00
H169   H     0.93587   0.12024   0.08574   0.00000  Uiso   1.00
H170   H     0.69816   0.19831   0.02770   0.00000  Uiso   1.00
H171   H     0.86091   0.10510   0.37437   0.00000  Uiso   1.00
H172   H     0.91139   0.29582   0.21324   0.00000  Uiso   1.00
H173   H     0.78158   0.09482   0.10669   0.00000  Uiso   1.00
H174   H     0.88694   0.23564   0.39714   0.00000  Uiso   1.00
H175   H     0.82059   0.27894   0.04065   0.00000  Uiso   1.00
H176   H     0.99217   0.15642   0.38876   0.00000  Uiso   1.00
H177   H     0.91123   0.03813   0.21281   0.00000  Uiso   1.00
H178   H     0.75527   0.03751   0.28692   0.00000  Uiso   1.00
H179   H     0.75542   0.29520   0.28725   0.00000  Uiso   1.00
H180   H     0.97487   0.11795   0.19135   0.00000  Uiso   1.00
H181   H     0.69183   0.21540   0.30859   0.00000  Uiso   1.00
H182   H     0.91957   0.08865   0.41598   0.00000  Uiso   1.00
H183   H     0.94963   0.09609   0.49183   0.00000  Uiso   1.00
H184   H     0.76013   0.18882   0.06643   0.00000  Uiso   1.00
N185   N     0.71426   0.16668   0.25001   0.00000  Uiso   1.00
N186   N     0.95239   0.16665   0.25000   0.00000  Uiso   1.00
O187   O     0.79512   0.22775   0.25000   0.00000  Uiso   1.00
O188   O     0.76042   0.11867   0.12747   0.00000  Uiso   1.00
O189   O     0.92851   0.25835   0.30445   0.00000  Uiso   1.00
O190   O     0.90863   0.21255   0.37504   0.00000  Uiso   1.00
O191   O     0.82730   0.24074   0.11590   0.00000  Uiso   1.00
O192   O     0.83201   0.24957   0.02802   0.00000  Uiso   1.00
O193   O     0.67798   0.21497   0.43607   0.00000  Uiso   1.00
O194   O     0.68839   0.14987   0.39811   0.00000  Uiso   1.00
O195   O     0.87157   0.22774   0.25000   0.00000  Uiso   1.00
O196   O     0.77613   0.16666   0.32681   0.00000  Uiso   1.00
O197   O     0.85258   0.16665   0.32681   0.00000  Uiso   1.00
O198   O     0.79510   0.10559   0.24999   0.00000  Uiso   1.00
O199   O     0.87154   0.10558   0.24999   0.00000  Uiso   1.00
O200   O     0.81409   0.16668   0.17319   0.00000  Uiso   1.00
O201   O     0.89053   0.16667   0.17319   0.00000  Uiso   1.00
O202   O     0.73495   0.07341   0.19859   0.00000  Uiso   1.00
Zn203  Zn    0.78229   0.16667   0.25000   0.00000  Uiso   1.00
Zn204  Zn    0.88438   0.16666   0.25000   0.00000  Uiso   1.00
C205   C     0.16675   0.57998   0.25022   0.00000  Uiso   1.00
C206   C     0.12096   0.49486   0.41306   0.00000  Uiso   1.00
C207   C     0.21065   0.64546   0.22968   0.00000  Uiso   1.00
C208   C     0.13941   0.49794   0.35267   0.00000  Uiso   1.00
C209   C     0.21053   0.35489   0.22934   0.00000  Uiso   1.00
C210   C     0.16652   0.37586   0.24969   0.00000  Uiso   1.00
C211   C     0.12267   0.35454   0.27041   0.00000  Uiso   1.00
C212   C     0.12280   0.64511   0.27072   0.00000  Uiso   1.00
C213   C     0.16680   0.62414   0.25037   0.00000  Uiso   1.00
C214   C     0.31888   0.47289   0.21734   0.00000  Uiso   1.00
C215   C     0.03333   0.47260   0.21734   0.00000  Uiso   1.00
C216   C     0.14727   0.49758   0.49133   0.00000  Uiso   1.00
C217   C     0.01450   0.52717   0.28255   0.00000  Uiso   1.00
C218   C     0.29993   0.52718   0.28298   0.00000  Uiso   1.00
C219   C     0.16657   0.42002   0.24982   0.00000  Uiso   1.00
C220   C     0.19379   0.50034   0.14765   0.00000  Uiso   1.00
C221   C     0.25497   0.45215   0.01078   0.00000  Uiso   1.00
C222   C     0.21214   0.49623   0.08835   0.00000  Uiso   1.00
C223   C     0.07515   0.51082   0.44609   0.00000  Uiso   1.00
C224   C     0.06633   0.52001   0.00140   0.00000  Uiso   1.00
C225   C     0.10224   0.51466   0.02340   0.00000  Uiso   1.00
C226   C     0.06673   0.44189   0.18173   0.00000  Uiso   1.00
C227   C     0.15335   0.48223   0.43848   0.00000  Uiso   1.00
C228   C     0.26609   0.55675   0.32031   0.00000  Uiso   1.00
C229   C     0.16926   0.55844   0.07034   0.00000  Uiso   1.00
C230   C     0.03483   0.51611   0.42581   0.00000  Uiso   1.00
C231   C     0.18519   0.49256   0.01171   0.00000  Uiso   1.00
C232   C     0.22224   0.46331   0.48570   0.00000  Uiso   1.00
C233   C     0.22490   0.44442   0.43624   0.00000  Uiso   1.00
C234   C     0.19138   0.45427   0.41237   0.00000  Uiso   1.00
C235   C     0.18657   0.51434   0.05843   0.00000  Uiso   1.00
C236   C     0.24816   0.46679   0.06345   0.00000  Uiso   1.00
H237   H     0.26920   0.45357   0.08574   0.00000  Uiso   1.00
H238   H     0.03149   0.53165   0.02770   0.00000  Uiso   1.00
H239   H     0.19424   0.43843   0.37437   0.00000  Uiso   1.00
H240   H     0.24472   0.62915   0.21324   0.00000  Uiso   1.00
H241   H     0.11491   0.42816   0.10669   0.00000  Uiso   1.00
H242   H     0.22028   0.56898   0.39714   0.00000  Uiso   1.00
H243   H     0.15393   0.61228   0.04065   0.00000  Uiso   1.00
H244   H     0.32550   0.48976   0.38876   0.00000  Uiso   1.00
H245   H     0.24456   0.37146   0.21281   0.00000  Uiso   1.00
H246   H     0.08861   0.37085   0.28692   0.00000  Uiso   1.00
H247   H     0.08876   0.62854   0.28725   0.00000  Uiso   1.00
H248   H     0.30820   0.45128   0.19135   0.00000  Uiso   1.00
H249   H     0.02516   0.54874   0.30859   0.00000  Uiso   1.00
H250   H     0.25290   0.42198   0.41598   0.00000  Uiso   1.00
H251   H     0.28297   0.42942   0.49183   0.00000  Uiso   1.00
H252   H     0.09347   0.52215   0.06643   0.00000  Uiso   1.00
N253   N     0.04760   0.50001   0.25001   0.00000  Uiso   1.00
N254   N     0.28573   0.49998   0.25000   0.00000  Uiso   1.00
O255   O     0.12846   0.56108   0.25000   0.00000  Uiso   1.00
O256   O     0.09376   0.45201   0.12747   0.00000  Uiso   1.00
O257   O     0.26184   0.59169   0.30445   0.00000  Uiso   1.00
O258   O     0.24196   0.54588   0.37504   0.00000  Uiso   1.00
O259   O     0.16064   0.57407   0.11590   0.00000  Uiso   1.00
O260   O     0.16534   0.58290   0.02802   0.00000  Uiso   1.00
O261   O     0.01132   0.54830   0.43607   0.00000  Uiso   1.00
O262   O     0.02172   0.48320   0.39811   0.00000  Uiso   1.00
O263   O     0.20490   0.56107   0.25000   0.00000  Uiso   1.00
O264   O     0.10947   0.50000   0.32681   0.00000  Uiso   1.00
O265   O     0.18591   0.49999   0.32681   0.00000  Uiso   1.00
O266   O     0.12843   0.43893   0.24999   0.00000  Uiso   1.00
O267   O     0.20488   0.43892   0.24999   0.00000  Uiso   1.00
O268   O     0.14742   0.50001   0.17319   0.00000  Uiso   1.00
O269   O     0.22387   0.50000   0.17319   0.00000  Uiso   1.00
O270   O     0.06828   0.40674   0.19859   0.00000  Uiso   1.00
Zn271  Zn    0.11562   0.50001   0.25000   0.00000  Uiso   1.00
Zn272  Zn    0.21771   0.49999   0.25000   0.00000  Uiso   1.00
C273   C     0.50008   0.57998   0.25022   0.00000  Uiso   1.00
C274   C     0.45429   0.49486   0.41306   0.00000  Uiso   1.00
C275   C     0.54399   0.64546   0.22968   0.00000  Uiso   1.00
C276   C     0.47274   0.49794   0.35267   0.00000  Uiso   1.00
C277   C     0.54386   0.35489   0.22934   0.00000  Uiso   1.00
C278   C     0.49986   0.37586   0.24969   0.00000  Uiso   1.00
C279   C     0.45600   0.35454   0.27041   0.00000  Uiso   1.00
C280   C     0.45613   0.64511   0.27072   0.00000  Uiso   1.00
C281   C     0.50013   0.62414   0.25037   0.00000  Uiso   1.00
C282   C     0.65221   0.47289   0.21734   0.00000  Uiso   1.00
C283   C     0.36666   0.47260   0.21734   0.00000  Uiso   1.00
C284   C     0.48060   0.49758   0.49133   0.00000  Uiso   1.00
C285   C     0.34783   0.52717   0.28255   0.00000  Uiso   1.00
C286   C     0.63327   0.52718   0.28298   0.00000  Uiso   1.00
C287   C     0.49991   0.42002   0.24982   0.00000  Uiso   1.00
C288   C     0.52712   0.50034   0.14765   0.00000  Uiso   1.00
C289   C     0.58830   0.45215   0.01078   0.00000  Uiso   1.00
C290   C     0.54547   0.49623   0.08835   0.00000  Uiso   1.00
C291   C     0.40848   0.51082   0.44609   0.00000  Uiso   1.00
C292   C     0.39967   0.52001   0.00140   0.00000  Uiso   1.00
C293   C     0.43558   0.51466   0.02340   0.00000  Uiso   1.00
C294   C     0.40007   0.44189   0.18173   0.00000  Uiso   1.00
C295   C     0.48669   0.48223   0.43848   0.00000  Uiso   1.00
C296   C     0.59943   0.55675   0.32031   0.00000  Uiso   1.00
C297   C     0.50259   0.55844   0.07034   0.00000  Uiso   1.00
C298   C     0.36816   0.51611   0.42581   0.00000  Uiso   1.00
C299   C     0.51852   0.49256   0.01171   0.00000  Uiso   1.00
C300   C     0.55558   0.46331   0.48570   0.00000  Uiso   1.00
C301   C     0.55824   0.44442   0.43624   0.00000  Uiso   1.00
C302   C     0.52471   0.45427   0.41237   0.00000  Uiso   1.00
C303   C     0.51990   0.51434   0.05843   0.00000  Uiso   1.00
C304   C     0.58149   0.46679   0.06345   0.00000  Uiso   1.00
H305   H     0.60253   0.45357   0.08574   0.00000  Uiso   1.00
H306   H     0.36482   0.53165   0.02770   0.00000  Uiso   1.00
H307   H     0.52757   0.43843   0.37437   0.00000  Uiso   1.00
H308   H     0.57806   0.62915   0.21324   0.00000  Uiso   1.00
H309   H     0.44825   0.42816   0.10669   0.00000  Uiso   1.00
H310   H     0.55361   0.56898   0.39714   0.00000  Uiso   1.00
H311   H     0.48726   0.61228   0.04065   0.00000  Uiso   1.00
H312   H     0.65883   0.48976   0.38876   0.00000  Uiso   1.00
H313   H     0.57790   0.37146   0.21281   0.00000  Uiso   1.00
H314   H     0.42194   0.37085   0.28692   0.00000  Uiso   1.00
H315   H     0.42209   0.62854   0.28725   0.00000  Uiso   1.00
H316   H     0.64153   0.45128   0.19135   0.00000  Uiso   1.00
H317   H     0.35850   0.54874   0.30859   0.00000  Uiso   1.00
H318   H     0.58623   0.42198   0.41598   0.00000  Uiso   1.00
H319   H     0.61630   0.42942   0.49183   0.00000  Uiso   1.00
H320   H     0.42680   0.52215   0.06643   0.00000  Uiso   1.00
N321   N     0.38093   0.50001   0.25001   0.00000  Uiso   1.00
N322   N     0.61906   0.49998   0.25000   0.00000  Uiso   1.00
O323   O     0.46179   0.56108   0.25000   0.00000  Uiso   1.00
O324   O     0.42709   0.45201   0.12747   0.00000  Uiso   1.00
O325   O     0.59518   0.59169   0.30445   0.00000  Uiso   1.00
O326   O     0.57530   0.54588   0.37504   0.00000  Uiso   1.00
O327   O     0.49397   0.57407   0.11590   0.00000  Uiso   1.00
O328   O     0.49868   0.58290   0.02802   0.00000  Uiso   1.00
O329   O     0.34465   0.54830   0.43607   0.00000  Uiso   1.00
O330   O     0.35505   0.48320   0.39811   0.00000  Uiso   1.00
O331   O     0.53823   0.56107   0.25000   0.00000  Uiso   1.00
O332   O     0.44280   0.50000   0.32681   0.00000  Uiso   1.00
O333   O     0.51924   0.49999   0.32681   0.00000  Uiso   1.00
O334   O     0.46177   0.43893   0.24999   0.00000  Uiso   1.00
O335   O     0.53821   0.43892   0.24999   0.00000  Uiso   1.00
O336   O     0.48076   0.50001   0.17319   0.00000  Uiso   1.00
O337   O     0.55720   0.50000   0.17319   0.00000  Uiso   1.00
O338   O     0.40161   0.40674   0.19859   0.00000  Uiso   1.00
Zn339  Zn    0.44896   0.50001   0.25000   0.00000  Uiso   1.00
Zn340  Zn    0.55104   0.49999   0.25000   0.00000  Uiso   1.00
C341   C     0.83342   0.57998   0.25022   0.00000  Uiso   1.00
C342   C     0.78762   0.49486   0.41306   0.00000  Uiso   1.00
C343   C     0.87732   0.64546   0.22968   0.00000  Uiso   1.00
C344   C     0.80608   0.49794   0.35267   0.00000  Uiso   1.00
C345   C     0.87719   0.35489   0.22934   0.00000  Uiso   1.00
C346   C     0.83319   0.37586   0.24969   0.00000  Uiso   1.00
C347   C     0.78934   0.35454   0.27041   0.00000  Uiso   1.00
C348   C     0.78946   0.64511   0.27072   0.00000  Uiso   1.00
C349   C     0.83346   0.62414   0.25037   0.00000  Uiso   1.00
C350   C     0.98554   0.47289   0.21734   0.00000  Uiso   1.00
C351   C     0.69999   0.47260   0.21734   0.00000  Uiso   1.00
C352   C     0.81393   0.49758   0.49133   0.00000  Uiso   1.00
C353   C     0.68116   0.52717   0.28255   0.00000  Uiso   1.00
C354   C     0.96660   0.52718   0.28298   0.00000  Uiso   1.00
C355   C     0.83324   0.42002   0.24982   0.00000  Uiso   1.00
C356   C     0.86045   0.50034   0.14765   0.00000  Uiso   1.00
C357   C     0.92164   0.45215   0.01078   0.00000  Uiso   1.00
C358   C     0.87881   0.49623   0.08835   0.00000  Uiso   1.00
C359   C     0.74182   0.51082   0.44609   0.00000  Uiso   1.00
C360   C     0.73300   0.52001   0.00140   0.00000  Uiso   1.00
C361   C     0.76891   0.51466   0.02340   0.00000  Uiso   1.00
C362   C     0.73340   0.44189   0.18173   0.00000  Uiso   1.00
C363   C     0.82002   0.48223   0.43848   0.00000  Uiso   1.00
C364   C     0.93276   0.55675   0.32031   0.00000  Uiso   1.00
C365   C     0.83593   0.55844   0.07034   0.00000  Uiso   1.00
C366   C     0.70149   0.51611   0.42581   0.00000  Uiso   1.00
C367   C     0.85186   0.49256   0.01171   0.00000  Uiso   1.00
C368   C     0.88891   0.46331   0.48570   0.00000  Uiso   1.00
C369   C     0.89157   0.44442   0.43624   0.00000  Uiso   1.00
C370   C     0.85805   0.45427   0.41237   0.00000  Uiso   1.00
C371   C     0.85324   0.51434   0.05843   0.00000  Uiso   1.00
C372   C     0.91482   0.46679   0.06345   0.00000  Uiso   1.00
H373   H     0.93587   0.45357   0.08574   0.00000  Uiso   1.00
H374   H     0.69816   0.53165   0.02770   0.00000  Uiso   1.00
H375   H     0.86091   0.43843   0.37437   0.00000  Uiso   1.00
H376   H     0.91139   0.62915   0.21324   0.00000  Uiso   1.00
H377   H     0.78158   0.42816   0.10669   0.00000  Uiso   1.00
H378   H     0.88694   0.56898   0.39714   0.00000  Uiso   1.00
H379   H     0.82059   0.61228   0.04065   0.00000  Uiso   1.00
H380   H     0.99217   0.48976   0.38876   0.00000  Uiso   1.00
H381   H     0.91123   0.37146   0.21281   0.00000  Uiso   1.00
H382   H     0.75527   0.37085   0.28692   0.00000  Uiso   1.00
H383   H     0.75542   0.62854   0.28725   0.00000  Uiso   1.00
H384   H     0.97487   0.45128   0.19135   0.00000  Uiso   1.00
H385   H     0.69183   0.54874   0.30859   0.00000  Uiso   1.00
H386   H     0.91957   0.42198   0.41598   0.00000  Uiso   1.00
H387   H     0.94963   0.42942   0.49183   0.00000  Uiso   1.00
H388   H     0.76013   0.52215   0.06643   0.00000  Uiso   1.00
N389   N     0.71426   0.50001   0.25001   0.00000  Uiso   1.00
N390   N     0.95239   0.49998   0.25000   0.00000  Uiso   1.00
O391   O     0.79512   0.56108   0.25000   0.00000  Uiso   1.00
O392   O     0.76042   0.45201   0.12747   0.00000  Uiso   1.00
O393   O     0.92851   0.59169   0.30445   0.00000  Uiso   1.00
O394   O     0.90863   0.54588   0.37504   0.00000  Uiso   1.00
O395   O     0.82730   0.57407   0.11590   0.00000  Uiso   1.00
O396   O     0.83201   0.58290   0.02802   0.00000  Uiso   1.00
O397   O     0.67798   0.54830   0.43607   0.00000  Uiso   1.00
O398   O     0.68839   0.48320   0.39811   0.00000  Uiso   1.00
O399   O     0.87157   0.56107   0.25000   0.00000  Uiso   1.00
O400   O     0.77613   0.50000   0.32681   0.00000  Uiso   1.00
O401   O     0.85258   0.49999   0.32681   0.00000  Uiso   1.00
O402   O     0.79510   0.43893   0.24999   0.00000  Uiso   1.00
O403   O     0.87154   0.43892   0.24999   0.00000  Uiso   1.00
O404   O     0.81409   0.50001   0.17319   0.00000  Uiso   1.00
O405   O     0.89053   0.50000   0.17319   0.00000  Uiso   1.00
O406   O     0.73495   0.40674   0.19859   0.00000  Uiso   1.00
Zn407  Zn    0.78229   0.50001   0.25000   0.00000  Uiso   1.00
Zn408  Zn    0.88438   0.49999   0.25000   0.00000  Uiso   1.00
C409   C     0.16675   0.91331   0.25022   0.00000  Uiso   1.00
C410   C     0.12096   0.82819   0.41306   0.00000  Uiso   1.00
C411   C     0.21065   0.97879   0.22968   0.00000  Uiso   1.00
C412   C     0.13941   0.83127   0.35267   0.00000  Uiso   1.00
C413   C     0.21053   0.68822   0.22934   0.00000  Uiso   1.00
C414   C     0.16652   0.70920   0.24969   0.00000  Uiso   1.00
C415   C     0.12267   0.68788   0.27041   0.00000  Uiso   1.00
C416   C     0.12280   0.97844   0.27072   0.00000  Uiso   1.00
C417   C     0.16680   0.95747   0.25037   0.00000  Uiso   1.00
C418   C     0.31888   0.80623   0.21734   0.00000  Uiso   1.00
C419   C     0.03333   0.80594   0.21734   0.00000  Uiso   1.00
C420   C     0.14727   0.83091   0.49133   0.00000  Uiso   1.00
C421   C     0.01450   0.86050   0.28255   0.00000  Uiso   1.00
C422   C     0.29993   0.86051   0.28298   0.00000  Uiso   1.00
C423   C     0.16657   0.75335   0.24982   0.00000  Uiso   1.00
C424   C     0.19379   0.83367   0.14765   0.00000  Uiso   1.00
C425   C     0.25497   0.78548   0.01078   0.00000  Uiso   1.00
C426   C     0.21214   0.82957   0.08835   0.00000  Uiso   1.00
C427   C     0.07515   0.84415   0.44609   0.00000  Uiso   1.00
C428   C     0.06633   0.85334   0.00140   0.00000  Uiso   1.00
C429   C     0.10224   0.84800   0.02340   0.00000  Uiso   1.00
C430   C     0.06673   0.77523   0.18173   0.00000  Uiso   1.00
C431   C     0.15335   0.81556   0.43848   0.00000  Uiso   1.00
C432   C     0.26609   0.89008   0.32031   0.00000  Uiso   1.00
C433   C     0.16926   0.89178   0.07034   0.00000  Uiso   1.00
C434   C     0.03483   0.84945   0.42581   0.00000  Uiso   1.00
C435   C     0.18519   0.82589   0.01171   0.00000  Uiso   1.00
C436   C     0.22224   0.79664   0.48570   0.00000  Uiso   1.00
C437   C     0.22490   0.77775   0.43624   0.00000  Uiso   1.00
C438   C     0.19138   0.78761   0.41237   0.00000  Uiso   1.00
C439   C     0.18657   0.84768   0.05843   0.00000  Uiso   1.00
C440   C     0.24816   0.80012   0.06345   0.00000  Uiso   1.00
H441   H     0.26920   0.78690   0.08574   0.00000  Uiso   1.00
H442   H     0.03149   0.86498   0.02770   0.00000  Uiso   1.00
H443   H     0.19424   0.77177   0.37437   0.00000  Uiso   1.00
H444   H     0.24472   0.96249   0.21324   0.00000  Uiso   1.00
H445   H     0.11491   0.76149   0.10669   0.00000  Uiso   1.00
H446   H     0.22028   0.90231   0.39714   0.00000  Uiso   1.00
H447   H     0.15393   0.94561   0.04065   0.00000  Uiso   1.00
H448   H     0.32550   0.82309   0.38876   0.00000  Uiso   1.00
H449   H     0.24456   0.70480   0.21281   0.00000  Uiso   1.00
H450   H     0.08861   0.70418   0.28692   0.00000  Uiso   1.00
H451   H     0.08876   0.96187   0.28725   0.00000  Uiso   1.00
H452   H     0.30820   0.78462   0.19135   0.00000  Uiso   1.00
H453   H     0.02516   0.88207   0.30859   0.00000  Uiso   1.00
H454   H     0.25290   0.75532   0.41598   0.00000  Uiso   1.00
H455   H     0.28297   0.76275   0.49183   0.00000  Uiso   1.00
H456   H     0.09347   0.85548   0.06643   0.00000  Uiso   1.00
N457   N     0.04760   0.83334   0.25001   0.00000  Uiso   1.00
N458   N     0.28573   0.83331   0.25000   0.00000  Uiso   1.00
O459   O     0.12846   0.89442   0.25000   0.00000  Uiso   1.00
O460   O     0.09376   0.78534   0.12747   0.00000  Uiso   1.00
O461   O     0.26184   0.92502   0.30445   0.00000  Uiso   1.00
O462   O     0.24196   0.87922   0.37504   0.00000  Uiso   1.00
O463   O     0.16064   0.90741   0.11590   0.00000  Uiso   1.00
O464   O     0.16534   0.91623   0.02802   0.00000  Uiso   1.00
O465   O     0.01132   0.88164   0.43607   0.00000  Uiso   1.00
O466   O     0.02172   0.81653   0.39811   0.00000  Uiso   1.00
O467   O     0.20490   0.89441   0.25000   0.00000  Uiso   1.00
O468   O     0.10947   0.83333   0.32681   0.00000  Uiso   1.00
O469   O     0.18591   0.83332   0.32681   0.00000  Uiso   1.00
O470   O     0.12843   0.77226   0.24999   0.00000  Uiso   1.00
O471   O     0.20488   0.77225   0.24999   0.00000  Uiso   1.00
O472   O     0.14742   0.83335   0.17319   0.00000  Uiso   1.00
O473   O     0.22387   0.83334   0.17319   0.00000  Uiso   1.00
O474   O     0.06828   0.74008   0.19859   0.00000  Uiso   1.00
Zn475  Zn    0.11562   0.83334   0.25000   0.00000  Uiso   1.00
Zn476  Zn    0.21771   0.83333   0.25000   0.00000  Uiso   1.00
C477   C     0.50008   0.91331   0.25022   0.00000  Uiso   1.00
C478   C     0.45429   0.82819   0.41306   0.00000  Uiso   1.00
C479   C     0.54399   0.97879   0.22968   0.00000  Uiso   1.00
C480   C     0.47274   0.83127   0.35267   0.00000  Uiso   1.00
C481   C     0.54386   0.68822   0.22934   0.00000  Uiso   1.00
C482   C     0.49986   0.70920   0.24969   0.00000  Uiso   1.00
C483   C     0.45600   0.68788   0.27041   0.00000  Uiso   1.00
C484   C     0.45613   0.97844   0.27072   0.00000  Uiso   1.00
C485   C     0.50013   0.95747   0.25037   0.00000  Uiso   1.00
C486   C     0.65221   0.80623   0.21734   0.00000  Uiso   1.00
C487   C     0.36666   0.80594   0.21734   0.00000  Uiso   1.00
C488   C     0.48060   0.83091   0.49133   0.00000  Uiso   1.00
C489   C     0.34783   0.86050   0.28255   0.00000  Uiso   1.00
C490   C     0.63327   0.86051   0.28298   0.00000  Uiso   1.00
C491   C     0.49991   0.75335   0.24982   0.00000  Uiso   1.00
C492   C     0.52712   0.83367   0.14765   0.00000  Uiso   1.00
C493   C     0.58830   0.78548   0.01078   0.00000  Uiso   1.00
C494   C     0.54547   0.82957   0.08835   0.00000  Uiso   1.00
C495   C     0.40848   0.84415   0.44609   0.00000  Uiso   1.00
C496   C     0.39967   0.85334   0.00140   0.00000  Uiso   1.00
C497   C     0.43558   0.84800   0.02340   0.00000  Uiso   1.00
C498   C     0.40007   0.77523   0.18173   0.00000  Uiso   1.00
C499   C     0.48669   0.81556   0.43848   0.00000  Uiso   1.00
C500   C     0.59943   0.89008   0.32031   0.00000  Uiso   1.00
C501   C     0.50259   0.89178   0.07034   0.00000  Uiso   1.00
C502   C     0.36816   0.84945   0.42581   0.00000  Uiso   1.00
C503   C     0.51852   0.82589   0.01171   0.00000  Uiso   1.00
C504   C     0.55558   0.79664   0.48570   0.00000  Uiso   1.00
C505   C     0.55824   0.77775   0.43624   0.00000  Uiso   1.00
C506   C     0.52471   0.78761   0.41237   0.00000  Uiso   1.00
C507   C     0.51990   0.84768   0.05843   0.00000  Uiso   1.00
C508   C     0.58149   0.80012   0.06345   0.00000  Uiso   1.00
H509   H     0.60253   0.78690   0.08574   0.00000  Uiso   1.00
H510   H     0.36482   0.86498   0.02770   0.00000  Uiso   1.00
H511   H     0.52757   0.77177   0.37437   0.00000  Uiso   1.00
H512   H     0.57806   0.96249   0.21324   0.00000  Uiso   1.00
H513   H     0.44825   0.76149   0.10669   0.00000  Uiso   1.00
H514   H     0.55361   0.90231   0.39714   0.00000  Uiso   1.00
H515   H     0.48726   0.94561   0.04065   0.00000  Uiso   1.00
H516   H     0.65883   0.82309   0.38876   0.00000  Uiso   1.00
H517   H     0.57790   0.70480   0.21281   0.00000  Uiso   1.00
H518   H     0.42194   0.70418   0.28692   0.00000  Uiso   1.00
H519   H     0.42209   0.96187   0.28725   0.00000  Uiso   1.00
H520   H     0.64153   0.78462   0.19135   0.00000  Uiso   1.00
H521   H     0.35850   0.88207   0.30859   0.00000  Uiso   1.00
H522   H     0.58623   0.75532   0.41598   0.00000  Uiso   1.00
H523   H     0.61630   0.76275   0.49183   0.00000  Uiso   1.00
H524   H     0.42680   0.85548   0.06643   0.00000  Uiso   1.00
N525   N     0.38093   0.83334   0.25001   0.00000  Uiso   1.00
N526   N     0.61906   0.83331   0.25000   0.00000  Uiso   1.00
O527   O     0.46179   0.89442   0.25000   0.00000  Uiso   1.00
O528   O     0.42709   0.78534   0.12747   0.00000  Uiso   1.00
O529   O     0.59518   0.92502   0.30445   0.00000  Uiso   1.00
O530   O     0.57530   0.87922   0.37504   0.00000  Uiso   1.00
O531   O     0.49397   0.90741   0.11590   0.00000  Uiso   1.00
O532   O     0.49868   0.91623   0.02802   0.00000  Uiso   1.00
O533   O     0.34465   0.88164   0.43607   0.00000  Uiso   1.00
O534   O     0.35505   0.81653   0.39811   0.00000  Uiso   1.00
O535   O     0.53823   0.89441   0.25000   0.00000  Uiso   1.00
O536   O     0.44280   0.83333   0.32681   0.00000  Uiso   1.00
O537   O     0.51924   0.83332   0.32681   0.00000  Uiso   1.00
O538   O     0.46177   0.77226   0.24999   0.00000  Uiso   1.00
O539   O     0.53821   0.77225   0.24999   0.00000  Uiso   1.00
O540   O     0.48076   0.83335   0.17319   0.00000  Uiso   1.00
O541   O     0.55720   0.83334   0.17319   0.00000  Uiso   1.00
O542   O     0.40161   0.74008   0.19859   0.00000  Uiso   1.00
Zn543  Zn    0.44896   0.83334   0.25000   0.00000  Uiso   1.00
Zn544  Zn    0.55104   0.83333   0.25000   0.00000  Uiso   1.00
C545   C     0.83342   0.91331   0.25022   0.00000  Uiso   1.00
C546   C     0.78762   0.82819   0.41306   0.00000  Uiso   1.00
C547   C     0.87732   0.97879   0.22968   0.00000  Uiso   1.00
C548   C     0.80608   0.83127   0.35267   0.00000  Uiso   1.00
C549   C     0.87719   0.68822   0.22934   0.00000  Uiso   1.00
C550   C     0.83319   0.70920   0.24969   0.00000  Uiso   1.00
C551   C     0.78934   0.68788   0.27041   0.00000  Uiso   1.00
C552   C     0.78946   0.97844   0.27072   0.00000  Uiso   1.00
C553   C     0.83346   0.95747   0.25037   0.00000  Uiso   1.00
C554   C     0.98554   0.80623   0.21734   0.00000  Uiso   1.00
C555   C     0.69999   0.80594   0.21734   0.00000  Uiso   1.00
C556   C     0.81393   0.83091   0.49133   0.00000  Uiso   1.00
C557   C     0.68116   0.86050   0.28255   0.00000  Uiso   1.00
C558   C     0.96660   0.86051   0.28298   0.00000  Uiso   1.00
C559   C     0.83324   0.75335   0.24982   0.00000  Uiso   1.00
C560   C     0.86045   0.83367   0.14765   0.00000  Uiso   1.00
C561   C     0.92164   0.78548   0.01078   0.00000  Uiso   1.00
C562   C     0.87881   0.82957   0.08835   0.00000  Uiso   1.00
C563   C     0.74182   0.84415   0.44609   0.00000  Uiso   1.00
C564   C     0.73300   0.85334   0.00140   0.00000  Uiso   1.00
C565   C     0.76891   0.84800   0.02340   0.00000  Uiso   1.00
C566   C     0.73340   0.77523   0.18173   0.00000  Uiso   1.00
C567   C     0.82002   0.81556   0.43848   0.00000  Uiso   1.00
C568   C     0.93276   0.89008   0.32031   0.00000  Uiso   1.00
C569   C     0.83593   0.89178   0.07034   0.00000  Uiso   1.00
C570   C     0.70149   0.84945   0.42581   0.00000  Uiso   1.00
C571   C     0.85186   0.82589   0.01171   0.00000  Uiso   1.00
C572   C     0.88891   0.79664   0.48570   0.00000  Uiso   1.00
C573   C     0.89157   0.77775   0.43624   0.00000  Uiso   1.00
C574   C     0.85805   0.78761   0.41237   0.00000  Uiso   1.00
C575   C     0.85324   0.84768   0.05843   0.00000  Uiso   1.00
C576   C     0.91482   0.80012   0.06345   0.00000  Uiso   1.00
H577   H     0.93587   0.78690   0.08574   0.00000  Uiso   1.00
H578   H     0.69816   0.86498   0.02770   0.00000  Uiso   1.00
H579   H     0.86091   0.77177   0.37437   0.00000  Uiso   1.00
H580   H     0.91139   0.96249   0.21324   0.00000  Uiso   1.00
H581   H     0.78158   0.76149   0.10669   0.00000  Uiso   1.00
H582   H     0.88694   0.90231   0.39714   0.00000  Uiso   1.00
H583   H     0.82059   0.94561   0.04065   0.00000  Uiso   1.00
H584   H     0.99217   0.82309   0.38876   0.00000  Uiso   1.00
H585   H     0.91123   0.70480   0.21281   0.00000  Uiso   1.00
H586   H     0.75527   0.70418   0.28692   0.00000  Uiso   1.00
H587   H     0.75542   0.96187   0.28725   0.00000  Uiso   1.00
H588   H     0.97487   0.78462   0.19135   0.00000  Uiso   1.00
H589   H     0.69183   0.88207   0.30859   0.00000  Uiso   1.00
H590   H     0.91957   0.75532   0.41598   0.00000  Uiso   1.00
H591   H     0.94963   0.76275   0.49183   0.00000  Uiso   1.00
H592   H     0.76013   0.85548   0.06643   0.00000  Uiso   1.00
N593   N     0.71426   0.83334   0.25001   0.00000  Uiso   1.00
N594   N     0.95239   0.83331   0.25000   0.00000  Uiso   1.00
O595   O     0.79512   0.89442   0.25000   0.00000  Uiso   1.00
O596   O     0.76042   0.78534   0.12747   0.00000  Uiso   1.00
O597   O     0.92851   0.92502   0.30445   0.00000  Uiso   1.00
O598   O     0.90863   0.87922   0.37504   0.00000  Uiso   1.00
O599   O     0.82730   0.90741   0.11590   0.00000  Uiso   1.00
O600   O     0.83201   0.91623   0.02802   0.00000  Uiso   1.00
O601   O     0.67798   0.88164   0.43607   0.00000  Uiso   1.00
O602   O     0.68839   0.81653   0.39811   0.00000  Uiso   1.00
O603   O     0.87157   0.89441   0.25000   0.00000  Uiso   1.00
O604   O     0.77613   0.83333   0.32681   0.00000  Uiso   1.00
O605   O     0.85258   0.83332   0.32681   0.00000  Uiso   1.00
O606   O     0.79510   0.77226   0.24999   0.00000  Uiso   1.00
O607   O     0.87154   0.77225   0.24999   0.00000  Uiso   1.00
O608   O     0.81409   0.83335   0.17319   0.00000  Uiso   1.00
O609   O     0.89053   0.83334   0.17319   0.00000  Uiso   1.00
O610   O     0.73495   0.74008   0.19859   0.00000  Uiso   1.00
Zn611  Zn    0.78229   0.83334   0.25000   0.00000  Uiso   1.00
Zn612  Zn    0.88438   0.83333   0.25000   0.00000  Uiso   1.00
C613   C     0.16675   0.24664   0.75022   0.00000  Uiso   1.00
C614   C     0.12096   0.16153   0.91306   0.00000  Uiso   1.00
C615   C     0.21065   0.31212   0.72968   0.00000  Uiso   1.00
C616   C     0.13941   0.16460   0.85267   0.00000  Uiso   1.00
C617   C     0.21053   0.02156   0.72934   0.00000  Uiso   1.00
C618   C     0.16652   0.04253   0.74969   0.00000  Uiso   1.00
C619   C     0.12267   0.02121   0.77041   0.00000  Uiso   1.00
C620   C     0.12280   0.31178   0.77072   0.00000  Uiso   1.00
C621   C     0.16680   0.29080   0.75037   0.00000  Uiso   1.00
C622   C     0.31888   0.13956   0.71734   0.00000  Uiso   1.00
C623   C     0.03333   0.13927   0.71734   0.00000  Uiso   1.00
C624   C     0.14727   0.16425   0.99133   0.00000  Uiso   1.00
C625   C     0.01450   0.19383   0.78255   0.00000  Uiso   1.00
C626   C     0.29993   0.19384   0.78298   0.00000  Uiso   1.00
C627   C     0.16657   0.08669   0.74982   0.00000  Uiso   1.00
C628   C     0.19379   0.16701   0.64765   0.00000  Uiso   1.00
C629   C     0.25497   0.11881   0.51078   0.00000  Uiso   1.00
C630   C     0.21214   0.16290   0.58835   0.00000  Uiso   1.00
C631   C     0.07515   0.17748   0.94609   0.00000  Uiso   1.00
C632   C     0.06633   0.18667   0.50140   0.00000  Uiso   1.00
C633   C     0.10224   0.18133   0.52340   0.00000  Uiso   1.00
C634   C     0.06673   0.10856   0.68173   0.00000  Uiso   1.00
C635   C     0.15335   0.14889   0.93848   0.00000  Uiso   1.00
C636   C     0.26609   0.22341   0.82031   0.00000  Uiso   1.00
C637   C     0.16926   0.22511   0.57034   0.00000  Uiso   1.00
C638   C     0.03483   0.18278   0.92581   0.00000  Uiso   1.00
C639   C     0.18519   0.15923   0.51171   0.00000  Uiso   1.00
C640   C     0.22224   0.12997   0.98570   0.00000  Uiso   1.00
C641   C     0.22490   0.11108   0.93624   0.00000  Uiso   1.00
C642   C     0.19138   0.12094   0.91237   0.00000  Uiso   1.00
C643   C     0.18657   0.18101   0.55843   0.00000  Uiso   1.00
C644   C     0.24816   0.13345   0.56345   0.00000  Uiso   1.00
H645   H     0.26920   0.12024   0.58574   0.00000  Uiso   1.00
H646   H     0.03149   0.19831   0.52770   0.00000  Uiso   1.00
H647   H     0.19424   0.10510   0.87437   0.00000  Uiso   1.00
H648   H     0.24472   0.29582   0.71324   0.00000  Uiso   1.00
H649   H     0.11491   0.09482   0.60669   0.00000  Uiso   1.00
H650   H     0.22028   0.23564   0.89714   0.00000  Uiso   1.00
H651   H     0.15393   0.27894   0.54065   0.00000  Uiso   1.00
H652   H     0.32550   0.15642   0.88876   0.00000  Uiso   1.00
H653   H     0.24456   0.03813   0.71281   0.00000  Uiso   1.00
H654   H     0.08861   0.03751   0.78692   0.00000  Uiso   1.00
H655   H     0.08876   0.29520   0.78725   0.00000  Uiso   1.00
H656   H     0.30820   0.11795   0.69135   0.00000  Uiso   1.00
H657   H     0.02516   0.21540   0.80859   0.00000  Uiso   1.00
H658   H     0.25290   0.08865   0.91598   0.00000  Uiso   1.00
H659   H     0.28297   0.09609   0.99183   0.00000  Uiso   1.00
H660   H     0.09347   0.18882   0.56643   0.00000  Uiso   1.00
N661   N     0.04760   0.16668   0.75001   0.00000  Uiso   1.00
N662   N     0.28573   0.16665   0.75000   0.00000  Uiso   1.00
O663   O     0.12846   0.22775   0.75000   0.00000  Uiso   1.00
O664   O     0.09376   0.11867   0.62747   0.00000  Uiso   1.00
O665   O     0.26184   0.25835   0.80445   0.00000  Uiso   1.00
O666   O     0.24196   0.21255   0.87504   0.00000  Uiso   1.00
O667   O     0.16064   0.24074   0.61590   0.00000  Uiso   1.00
O668   O     0.16534   0.24957   0.52802   0.00000  Uiso   1.00
O669   O     0.01132   0.21497   0.93607   0.00000  Uiso   1.00
O670   O     0.02172   0.14987   0.89811   0.00000  Uiso   1.00
O671   O     0.20490   0.22774   0.75000   0.00000  Uiso   1.00
O672   O     0.10947   0.16666   0.82681   0.00000  Uiso   1.00
O673   O     0.18591   0.16665   0.82681   0.00000  Uiso   1.00
O674   O     0.12843   0.10559   0.74999   0.00000  Uiso   1.00
O675   O     0.20488   0.10558   0.74999   0.00000  Uiso   1.00
O676   O     0.14742   0.16668   0.67319   0.00000  Uiso   1.00
O677   O     0.22387   0.16667   0.67319   0.00000  Uiso   1.00
O678   O     0.06828   0.07341   0.69859   0.00000  Uiso   1.00
Zn679  Zn    0.11562   0.16667   0.75000   0.00000  Uiso   1.00
Zn680  Zn    0.21771   0.16666   0.75000   0.00000  Uiso   1.00
C681   C     0.50008   0.24664   0.75022   0.00000  Uiso   1.00
C682   C     0.45429   0.16153   0.91306   0.00000  Uiso   1.00
C683   C     0.54399   0.31212   0.72968   0.00000  Uiso   1.00
C684   C     0.47274   0.16460   0.85267   0.00000  Uiso   1.00
C685   C     0.54386   0.02156   0.72934   0.00000  Uiso   1.00
C686   C     0.49986   0.04253   0.74969   0.00000  Uiso   1.00
C687   C     0.45600   0.02121   0.77041   0.00000  Uiso   1.00
C688   C     0.45613   0.31178   0.77072   0.00000  Uiso   1.00
C689   C     0.50013   0.29080   0.75037   0.00000  Uiso   1.00
C690   C     0.65221   0.13956   0.71734   0.00000  Uiso   1.00
C691   C     0.36666   0.13927   0.71734   0.00000  Uiso   1.00
C692   C     0.48060   0.16425   0.99133   0.00000  Uiso   1.00
C693   C     0.34783   0.19383   0.78255   0.00000  Uiso   1.00
C694   C     0.63327   0.19384   0.78298   0.00000  Uiso   1.00
C695   C     0.49991   0.08669   0.74982   0.00000  Uiso   1.00
C696   C     0.52712   0.16701   0.64765   0.00000  Uiso   1.00
C697   C     0.58830   0.11881   0.51078   0.00000  Uiso   1.00
C698   C     0.54547   0.16290   0.58835   0.00000  Uiso   1.00
C699   C     0.40848   0.17748   0.94609   0.00000  Uiso   1.00
C700   C     0.39967   0.18667   0.50140   0.00000  Uiso   1.00
C701   C     0.43558   0.18133   0.52340   0.00000  Uiso   1.00
C702   C     0.40007   0.10856   0.68173   0.00000  Uiso   1.00
C703   C     0.48669   0.14889   0.93848   0.00000  Uiso   1.00
C704   C     0.59943   0.22341   0.82031   0.00000  Uiso   1.00
C705   C     0.50259   0.22511   0.57034   0.00000  Uiso   1.00
C706   C     0.36816   0.18278   0.92581   0.00000  Uiso   1.00
C707   C     0.51852   0.15923   0.51171   0.00000  Uiso   1.00
C708   C     0.55558   0.12997   0.98570   0.00000  Uiso   1.00
C709   C     0.55824   0.11108   0.93624   0.00000  Uiso   1.00
C710   C     0.52471   0.12094   0.91237   0.00000  Uiso   1.00
C711   C     0.51990   0.18101   0.55843   0.00000  Uiso   1.00
C712   C     0.58149   0.13345   0.56345   0.00000  Uiso   1.00
H713   H     0.60253   0.12024   0.58574   0.00000  Uiso   1.00
H714   H     0.36482   0.19831   0.52770   0.00000  Uiso   1.00
H715   H     0.52757   0.10510   0.87437   0.00000  Uiso   1.00
H716   H     0.57806   0.29582   0.71324   0.00000  Uiso   1.00
H717   H     0.44825   0.09482   0.60669   0.00000  Uiso   1.00
H718   H     0.55361   0.23564   0.89714   0.00000  Uiso   1.00
H719   H     0.48726   0.27894   0.54065   0.00000  Uiso   1.00
H720   H     0.65883   0.15642   0.88876   0.00000  Uiso   1.00
H721   H     0.57790   0.03813   0.71281   0.00000  Uiso   1.00
H722   H     0.42194   0.03751   0.78692   0.00000  Uiso   1.00
H723   H     0.42209   0.29520   0.78725   0.00000  Uiso   1.00
H724   H     0.64153   0.11795   0.69135   0.00000  Uiso   1.00
H725   H     0.35850   0.21540   0.80859   0.00000  Uiso   1.00
H726   H     0.58623   0.08865   0.91598   0.00000  Uiso   1.00
H727   H     0.61630   0.09609   0.99183   0.00000  Uiso   1.00
H728   H     0.42680   0.18882   0.56643   0.00000  Uiso   1.00
N729   N     0.38093   0.16668   0.75001   0.00000  Uiso   1.00
N730   N     0.61906   0.16665   0.75000   0.00000  Uiso   1.00
O731   O     0.46179   0.22775   0.75000   0.00000  Uiso   1.00
O732   O     0.42709   0.11867   0.62747   0.00000  Uiso   1.00
O733   O     0.59518   0.25835   0.80445   0.00000  Uiso   1.00
O734   O     0.57530   0.21255   0.87504   0.00000  Uiso   1.00
O735   O     0.49397   0.24074   0.61590   0.00000  Uiso   1.00
O736   O     0.49868   0.24957   0.52802   0.00000  Uiso   1.00
O737   O     0.34465   0.21497   0.93607   0.00000  Uiso   1.00
O738   O     0.35505   0.14987   0.89811   0.00000  Uiso   1.00
O739   O     0.53823   0.22774   0.75000   0.00000  Uiso   1.00
O740   O     0.44280   0.16666   0.82681   0.00000  Uiso   1.00
O741   O     0.51924   0.16665   0.82681   0.00000  Uiso   1.00
O742   O     0.46177   0.10559   0.74999   0.00000  Uiso   1.00
O743   O     0.53821   0.10558   0.74999   0.00000  Uiso   1.00
O744   O     0.48076   0.16668   0.67319   0.00000  Uiso   1.00
O745   O     0.55720   0.16667   0.67319   0.00000  Uiso   1.00
O746   O     0.40161   0.07341   0.69859   0.00000  Uiso   1.00
Zn747  Zn    0.44896   0.16667   0.75000   0.00000  Uiso   1.00
Zn748  Zn    0.55104   0.16666   0.75000   0.00000  Uiso   1.00
C749   C     0.83342   0.24664   0.75022   0.00000  Uiso   1.00
C750   C     0.78762   0.16153   0.91306   0.00000  Uiso   1.00
C751   C     0.87732   0.31212   0.72968   0.00000  Uiso   1.00
C752   C     0.80608   0.16460   0.85267   0.00000  Uiso   1.00
C753   C     0.87719   0.02156   0.72934   0.00000  Uiso   1.00
C754   C     0.83319   0.04253   0.74969   0.00000  Uiso   1.00
C755   C     0.78934   0.02121   0.77041   0.00000  Uiso   1.00
C756   C     0.78946   0.31178   0.77072   0.00000  Uiso   1.00
C757   C     0.83346   0.29080   0.75037   0.00000  Uiso   1.00
C758   C     0.98554   0.13956   0.71734   0.00000  Uiso   1.00
C759   C     0.69999   0.13927   0.71734   0.00000  Uiso   1.00
C760   C     0.81393   0.16425   0.99133   0.00000  Uiso   1.00
C761   C     0.68116   0.19383   0.78255   0.00000  Uiso   1.00
C762   C     0.96660   0.19384   0.78298   0.00000  Uiso   1.00
C763   C     0.83324   0.08669   0.74982   0.00000  Uiso   1.00
C764   C     0.86045   0.16701   0.64765   0.00000  Uiso   1.00
C765   C     0.92164   0.11881   0.51078   0.00000  Uiso   1.00
C766   C     0.87881   0.16290   0.58835   0.00000  Uiso   1.00
C767   C     0.74182   0.17748   0.94609   0.00000  Uiso   1.00
C768   C     0.73300   0.18667   0.50140   0.00000  Uiso   1.00
C769   C     0.76891   0.18133   0.52340   0.00000  Uiso   1.00
C770   C     0.73340   0.10856   0.68173   0.00000  Uiso   1.00
C771   C     0.82002   0.14889   0.93848   0.00000  Uiso   1.00
C772   C     0.93276   0.22341   0.82031   0.00000  Uiso   1.00
C773   C     0.83593   0.22511   0.57034   0.00000  Uiso   1.00
C774   C     0.70149   0.18278   0.92581   0.00000  Uiso   1.00
C775   C     0.85186   0.15923   0.51171   0.00000  Uiso   1.00
C776   C     0.88891   0.12997   0.98570   0.00000  Uiso   1.00
C777   C     0.89157   0.11108   0.93624   0.00000  Uiso   1.00
C778   C     0.85805   0.12094   0.91237   0.00000  Uiso   1.00
C779   C     0.85324   0.18101   0.55843   0.00000  Uiso   1.00
C780   C     0.91482   0.13345   0.56345   0.00000  Uiso   1.00
H781   H     0.93587   0.12024   0.58574   0.00000  Uiso   1.00
H782   H     0.69816   0.19831   0.52770   0.00000  Uiso   1.00
H783   H     0.86091   0.10510   0.87437   0.00000  Uiso   1.00
H784   H     0.91139   0.29582   0.71324   0.00000  Uiso   1.00
H785   H     0.78158   0.09482   0.60669   0.00000  Uiso   1.00
H786   H     0.88694   0.23564   0.89714   0.00000  Uiso   1.00
H787   H     0.82059   0.27894   0.54065   0.00000  Uiso   1.00
H788   H     0.99217   0.15642   0.88876   0.00000  Uiso   1.00
H789   H     0.91123   0.03813   0.71281   0.00000  Uiso   1.00
H790   H     0.75527   0.03751   0.78692   0.00000  Uiso   1.00
H791   H     0.75542   0.29520   0.78725   0.00000  Uiso   1.00
H792   H     0.97487   0.11795   0.69135   0.00000  Uiso   1.00
H793   H     0.69183   0.21540   0.80859   0.00000  Uiso   1.00
H794   H     0.91957   0.08865   0.91598   0.00000  Uiso   1.00
H795   H     0.94963   0.09609   0.99183   0.00000  Uiso   1.00
H796   H     0.76013   0.18882   0.56643   0.00000  Uiso   1.00
N797   N     0.71426   0.16668   0.75001   0.00000  Uiso   1.00
N798   N     0.95239   0.16665   0.75000   0.00000  Uiso   1.00
O799   O     0.79512   0.22775   0.75000   0.00000  Uiso   1.00
O800   O     0.76042   0.11867   0.62747   0.00000  Uiso   1.00
O801   O     0.92851   0.25835   0.80445   0.00000  Uiso   1.00
O802   O     0.90863   0.21255   0.87504   0.00000  Uiso   1.00
O803   O     0.82730   0.24074   0.61590   0.00000  Uiso   1.00
O804   O     0.83201   0.24957   0.52802   0.00000  Uiso   1.00
O805   O     0.67798   0.21497   0.93607   0.00000  Uiso   1.00
O806   O     0.68839   0.14987   0.89811   0.00000  Uiso   1.00
O807   O     0.87157   0.22774   0.75000   0.00000  Uiso   1.00
O808   O     0.77613   0.16666   0.82681   0.00000  Uiso   1.00
O809   O     0.85258   0.16665   0.82681   0.00000  Uiso   1.00
O810   O     0.79510   0.10559   0.74999   0.00000  Uiso   1.00
O811   O     0.87154   0.10558   0.74999   0.00000  Uiso   1.00
O812   O     0.81409   0.16668   0.67319   0.00000  Uiso   1.00
O813   O     0.89053   0.16667   0.67319   0.00000  Uiso   1.00
O814   O     0.73495   0.07341   0.69859   0.00000  Uiso   1.00
Zn815  Zn    0.78229   0.16667   0.75000   0.00000  Uiso   1.00
Zn816  Zn    0.88438   0.16666   0.75000   0.00000  Uiso   1.00
C817   C     0.16675   0.57998   0.75022   0.00000  Uiso   1.00
C818   C     0.12096   0.49486   0.91306   0.00000  Uiso   1.00
C819   C     0.21065   0.64546   0.72968   0.00000  Uiso   1.00
C820   C     0.13941   0.49794   0.85267   0.00000  Uiso   1.00
C821   C     0.21053   0.35489   0.72934   0.00000  Uiso   1.00
C822   C     0.16652   0.37586   0.74969   0.00000  Uiso   1.00
C823   C     0.12267   0.35454   0.77041   0.00000  Uiso   1.00
C824   C     0.12280   0.64511   0.77072   0.00000  Uiso   1.00
C825   C     0.16680   0.62414   0.75037   0.00000  Uiso   1.00
C826   C     0.31888   0.47289   0.71734   0.00000  Uiso   1.00
C827   C     0.03333   0.47260   0.71734   0.00000  Uiso   1.00
C828   C     0.14727   0.49758   0.99133   0.00000  Uiso   1.00
C829   C     0.01450   0.52717   0.78255   0.00000  Uiso   1.00
C830   C     0.29993   0.52718   0.78298   0.00000  Uiso   1.00
C831   C     0.16657   0.42002   0.74982   0.00000  Uiso   1.00
C832   C     0.19379   0.50034   0.64765   0.00000  Uiso   1.00
C833   C     0.25497   0.45215   0.51078   0.00000  Uiso   1.00
C834   C     0.21214   0.49623   0.58835   0.00000  Uiso   1.00
C835   C     0.07515   0.51082   0.94609   0.00000  Uiso   1.00
C836   C     0.06633   0.52001   0.50140   0.00000  Uiso   1.00
C837   C     0.10224   0.51466   0.52340   0.00000  Uiso   1.00
C838   C     0.06673   0.44189   0.68173   0.00000  Uiso   1.00
C839   C     0.15335   0.48223   0.93848   0.00000  Uiso   1.00
C840   C     0.26609   0.55675   0.82031   0.00000  Uiso   1.00
C841   C     0.16926   0.55844   0.57034   0.00000  Uiso   1.00
C842   C     0.03483   0.51611   0.92581   0.00000  Uiso   1.00
C843   C     0.18519   0.49256   0.51171   0.00000  Uiso   1.00
C844   C     0.22224   0.46331   0.98570   0.00000  Uiso   1.00
C845   C     0.22490   0.44442   0.93624   0.00000  Uiso   1.00
C846   C     0.19138   0.45427   0.91237   0.00000  Uiso   1.00
C847   C     0.18657   0.51434   0.55843   0.00000  Uiso   1.00
C848   C     0.24816   0.46679   0.56345   0.00000  Uiso   1.00
H849   H     0.26920   0.45357   0.58574   0.00000  Uiso   1.00
H850   H     0.03149   0.53165   0.52770   0.00000  Uiso   1.00
H851   H     0.19424   0.43843   0.87437   0.00000  Uiso   1.00
H852   H     0.24472   0.62915   0.71324   0.00000  Uiso   1.00
H853   H     0.11491   0.42816   0.60669   0.00000  Uiso   1.00
H854   H     0.22028   0.56898   0.89714   0.00000  Uiso   1.00
H855   H     0.15393   0.61228   0.54065   0.00000  Uiso   1.00
H856   H     0.32550   0.48976   0.88876   0.00000  Uiso   1.00
H857   H     0.24456   0.37146   0.71281   0.00000  Uiso   1.00
H858   H     0.08861   0.37085   0.78692   0.00000  Uiso   1.00
H859   H     0.08876   0.62854   0.78725   0.00000  Uiso   1.00
H860   H     0.30820   0.45128   0.69135   0.00000  Uiso   1.00
H861   H     0.02516   0.54874   0.80859   0.00000  Uiso   1.00
H862   H     0.25290   0.42198   0.91598   0.00000  Uiso   1.00
H863   H     0.28297   0.42942   0.99183   0.00000  Uiso   1.00
H864   H     0.09347   0.52215   0.56643   0.00000  Uiso   1.00
N865   N     0.04760   0.50001   0.75001   0.00000  Uiso   1.00
N866   N     0.28573   0.49998   0.75000   0.00000  Uiso   1.00
O867   O     0.12846   0.56108   0.75000   0.00000  Uiso   1.00
O868   O     0.09376   0.45201   0.62747   0.00000  Uiso   1.00
O869   O     0.26184   0.59169   0.80445   0.00000  Uiso   1.00
O870   O     0.24196   0.54588   0.87504   0.00000  Uiso   1.00
O871   O     0.16064   0.57407   0.61590   0.00000  Uiso   1.00
O872   O     0.16534   0.58290   0.52802   0.00000  Uiso   1.00
O873   O     0.01132   0.54830   0.93607   0.00000  Uiso   1.00
O874   O     0.02172   0.48320   0.89811   0.00000  Uiso   1.00
O875   O     0.20490   0.56107   0.75000   0.00000  Uiso   1.00
O876   O     0.10947   0.50000   0.82681   0.00000  Uiso   1.00
O877   O     0.18591   0.49999   0.82681   0.00000  Uiso   1.00
O878   O     0.12843   0.43893   0.74999   0.00000  Uiso   1.00
O879   O     0.20488   0.43892   0.74999   0.00000  Uiso   1.00
O880   O     0.14742   0.50001   0.67319   0.00000  Uiso   1.00
O881   O     0.22387   0.50000   0.67319   0.00000  Uiso   1.00
O882   O     0.06828   0.40674   0.69859   0.00000  Uiso   1.00
Zn883  Zn    0.11562   0.50001   0.75000   0.00000  Uiso   1.00
Zn884  Zn    0.21771   0.49999   0.75000   0.00000  Uiso   1.00
C885   C     0.50008   0.57998   0.75022   0.00000  Uiso   1.00
C886   C     0.45429   0.49486   0.91306   0.00000  Uiso   1.00
C887   C     0.54399   0.64546   0.72968   0.00000  Uiso   1.00
C888   C     0.47274   0.49794   0.85267   0.00000  Uiso   1.00
C889   C     0.54386   0.35489   0.72934   0.00000  Uiso   1.00
C890   C     0.49986   0.37586   0.74969   0.00000  Uiso   1.00
C891   C     0.45600   0.35454   0.77041   0.00000  Uiso   1.00
C892   C     0.45613   0.64511   0.77072   0.00000  Uiso   1.00
C893   C     0.50013   0.62414   0.75037   0.00000  Uiso   1.00
C894   C     0.65221   0.47289   0.71734   0.00000  Uiso   1.00
C895   C     0.36666   0.47260   0.71734   0.00000  Uiso   1.00
C896   C     0.48060   0.49758   0.99133   0.00000  Uiso   1.00
C897   C     0.34783   0.52717   0.78255   0.00000  Uiso   1.00
C898   C     0.63327   0.52718   0.78298   0.00000  Uiso   1.00
C899   C     0.49991   0.42002   0.74982   0.00000  Uiso   1.00
C900   C     0.52712   0.50034   0.64765   0.00000  Uiso   1.00
C901   C     0.58830   0.45215   0.51078   0.00000  Uiso   1.00
C902   C     0.54547   0.49623   0.58835   0.00000  Uiso   1.00
C903   C     0.40848   0.51082   0.94609   0.00000  Uiso   1.00
C904   C     0.39967   0.52001   0.50140   0.00000  Uiso   1.00
C905   C     0.43558   0.51466   0.52340   0.00000  Uiso   1.00
C906   C     0.40007   0.44189   0.68173   0.00000  Uiso   1.00
C907   C     0.48669   0.48223   0.93848   0.00000  Uiso   1.00
C908   C     0.59943   0.55675   0.82031   0.00000  Uiso   1.00
C909   C     0.50259   0.55844   0.57034   0.00000  Uiso   1.00
C910   C     0.36816   0.51611   0.92581   0.00000  Uiso   1.00
C911   C     0.51852   0.49256   0.51171   0.00000  Uiso   1.00
C912   C     0.55558   0.46331   0.98570   0.00000  Uiso   1.00
C913   C     0.55824   0.44442   0.93624   0.00000  Uiso   1.00
C914   C     0.52471   0.45427   0.91237   0.00000  Uiso   1.00
C915   C     0.51990   0.51434   0.55843   0.00000  Uiso   1.00
C916   C     0.58149   0.46679   0.56345   0.00000  Uiso   1.00
H917   H     0.60253   0.45357   0.58574   0.00000  Uiso   1.00
H918   H     0.36482   0.53165   0.52770   0.00000  Uiso   1.00
H919   H     0.52757   0.43843   0.87437   0.00000  Uiso   1.00
H920   H     0.57806   0.62915   0.71324   0.00000  Uiso   1.00
H921   H     0.44825   0.42816   0.60669   0.00000  Uiso   1.00
H922   H     0.55361   0.56898   0.89714   0.00000  Uiso   1.00
H923   H     0.48726   0.61228   0.54065   0.00000  Uiso   1.00
H924   H     0.65883   0.48976   0.88876   0.00000  Uiso   1.00
H925   H     0.57790   0.37146   0.71281   0.00000  Uiso   1.00
H926   H     0.42194   0.37085   0.78692   0.00000  Uiso   1.00
H927   H     0.42209   0.62854   0.78725   0.00000  Uiso   1.00
H928   H     0.64153   0.45128   0.69135   0.00000  Uiso   1.00
H929   H     0.35850   0.54874   0.80859   0.00000  Uiso   1.00
H930   H     0.58623   0.42198   0.91598   0.00000  Uiso   1.00
H931   H     0.61630   0.42942   0.99183   0.00000  Uiso   1.00
H932   H     0.42680   0.52215   0.56643   0.00000  Uiso   1.00
N933   N     0.38093   0.50001   0.75001   0.00000  Uiso   1.00
N934   N     0.61906   0.49998   0.75000   0.00000  Uiso   1.00
O935   O     0.46179   0.56108   0.75000   0.00000  Uiso   1.00
O936   O     0.42709   0.45201   0.62747   0.00000  Uiso   1.00
O937   O     0.59518   0.59169   0.80445   0.00000  Uiso   1.00
O938   O     0.57530   0.54588   0.87504   0.00000  Uiso   1.00
O939   O     0.49397   0.57407   0.61590   0.00000  Uiso   1.00
O940   O     0.49868   0.58290   0.52802   0.00000  Uiso   1.00
O941   O     0.34465   0.54830   0.93607   0.00000  Uiso   1.00
O942   O     0.35505   0.48320   0.89811   0.00000  Uiso   1.00
O943   O     0.53823   0.56107   0.75000   0.00000  Uiso   1.00
O944   O     0.44280   0.50000   0.82681   0.00000  Uiso   1.00
O945   O     0.51924   0.49999   0.82681   0.00000  Uiso   1.00
O946   O     0.46177   0.43893   0.74999   0.00000  Uiso   1.00
O947   O     0.53821   0.43892   0.74999   0.00000  Uiso   1.00
O948   O     0.48076   0.50001   0.67319   0.00000  Uiso   1.00
O949   O     0.55720   0.50000   0.67319   0.00000  Uiso   1.00
O950   O     0.40161   0.40674   0.69859   0.00000  Uiso   1.00
Zn951  Zn    0.44896   0.50001   0.75000   0.00000  Uiso   1.00
Zn952  Zn    0.55104   0.49999   0.75000   0.00000  Uiso   1.00
C953   C     0.83342   0.57998   0.75022   0.00000  Uiso   1.00
C954   C     0.78762   0.49486   0.91306   0.00000  Uiso   1.00
C955   C     0.87732   0.64546   0.72968   0.00000  Uiso   1.00
C956   C     0.80608   0.49794   0.85267   0.00000  Uiso   1.00
C957   C     0.87719   0.35489   0.72934   0.00000  Uiso   1.00
C958   C     0.83319   0.37586   0.74969   0.00000  Uiso   1.00
C959   C     0.78934   0.35454   0.77041   0.00000  Uiso   1.00
C960   C     0.78946   0.64511   0.77072   0.00000  Uiso   1.00
C961   C     0.83346   0.62414   0.75037   0.00000  Uiso   1.00
C962   C     0.98554   0.47289   0.71734   0.00000  Uiso   1.00
C963   C     0.69999   0.47260   0.71734   0.00000  Uiso   1.00
C964   C     0.81393   0.49758   0.99133   0.00000  Uiso   1.00
C965   C     0.68116   0.52717   0.78255   0.00000  Uiso   1.00
C966   C     0.96660   0.52718   0.78298   0.00000  Uiso   1.00
C967   C     0.83324   0.42002   0.74982   0.00000  Uiso   1.00
C968   C     0.86045   0.50034   0.64765   0.00000  Uiso   1.00
C969   C     0.92164   0.45215   0.51078   0.00000  Uiso   1.00
C970   C     0.87881   0.49623   0.58835   0.00000  Uiso   1.00
C971   C     0.74182   0.51082   0.94609   0.00000  Uiso   1.00
C972   C     0.73300   0.52001   0.50140   0.00000  Uiso   1.00
C973   C     0.76891   0.51466   0.52340   0.00000  Uiso   1.00
C974   C     0.73340   0.44189   0.68173   0.00000  Uiso   1.00
C975   C     0.82002   0.48223   0.93848   0.00000  Uiso   1.00
C976   C     0.93276   0.55675   0.82031   0.00000  Uiso   1.00
C977   C     0.83593   0.55844   0.57034   0.00000  Uiso   1.00
C978   C     0.70149   0.51611   0.92581   0.00000  Uiso   1.00
C979   C     0.85186   0.49256   0.51171   0.00000  Uiso   1.00
C980   C     0.88891   0.46331   0.98570   0.00000  Uiso   1.00
C981   C     0.89157   0.44442   0.93624   0.00000  Uiso   1.00
C982   C     0.85805   0.45427   0.91237   0.00000  Uiso   1.00
C983   C     0.85324   0.51434   0.55843   0.00000  Uiso   1.00
C984   C     0.91482   0.46679   0.56345   0.00000  Uiso   1.00
H985   H     0.93587   0.45357   0.58574   0.00000  Uiso   1.00
H986   H     0.69816   0.53165   0.52770   0.00000  Uiso   1.00
H987   H     0.86091   0.43843   0.87437   0.00000  Uiso   1.00
H988   H     0.91139   0.62915   0.71324   0.00000  Uiso   1.00
H989   H     0.78158   0.42816   0.60669   0.00000  Uiso   1.00
H990   H     0.88694   0.56898   0.89714   0.00000  Uiso   1.00
H991   H     0.82059   0.61228   0.54065   0.00000  Uiso   1.00
H992   H     0.99217   0.48976   0.88876   0.00000  Uiso   1.00
H993   H     0.91123   0.37146   0.71281   0.00000  Uiso   1.00
H994   H     0.75527   0.37085   0.78692   0.00000  Uiso   1.00
H995   H     0.75542   0.62854   0.78725   0.00000  Uiso   1.00
H996   H     0.97487   0.45128   0.69135   0.00000  Uiso   1.00
H997   H     0.69183   0.54874   0.80859   0.00000  Uiso   1.00
H998   H     0.91957   0.42198   0.91598   0.00000  Uiso   1.00
H999   H     0.94963   0.42942   0.99183   0.00000  Uiso   1.00
H1000  H     0.76013   0.52215   0.56643   0.00000  Uiso   1.00
N1001  N     0.71426   0.50001   0.75001   0.00000  Uiso   1.00
N1002  N     0.95239   0.49998   0.75000   0.00000  Uiso   1.00
O1003  O     0.79512   0.56108   0.75000   0.00000  Uiso   1.00
O1004  O     0.76042   0.45201   0.62747   0.00000  Uiso   1.00
O1005  O     0.92851   0.59169   0.80445   0.00000  Uiso   1.00
O1006  O     0.90863   0.54588   0.87504   0.00000  Uiso   1.00
O1007  O     0.82730   0.57407   0.61590   0.00000  Uiso   1.00
O1008  O     0.83201   0.58290   0.52802   0.00000  Uiso   1.00
O1009  O     0.67798   0.54830   0.93607   0.00000  Uiso   1.00
O1010  O     0.68839   0.48320   0.89811   0.00000  Uiso   1.00
O1011  O     0.87157   0.56107   0.75000   0.00000  Uiso   1.00
O1012  O     0.77613   0.50000   0.82681   0.00000  Uiso   1.00
O1013  O     0.85258   0.49999   0.82681   0.00000  Uiso   1.00
O1014  O     0.79510   0.43893   0.74999   0.00000  Uiso   1.00
O1015  O     0.87154   0.43892   0.74999   0.00000  Uiso   1.00
O1016  O     0.81409   0.50001   0.67319   0.00000  Uiso   1.00
O1017  O     0.89053   0.50000   0.67319   0.00000  Uiso   1.00
O1018  O     0.73495   0.40674   0.69859   0.00000  Uiso   1.00
Zn1019 Zn    0.78229   0.50001   0.75000   0.00000  Uiso   1.00
Zn1020 Zn    0.88438   0.49999   0.75000   0.00000  Uiso   1.00
C1021  C     0.16675   0.91331   0.75022   0.00000  Uiso   1.00
C1022  C     0.12096   0.82819   0.91306   0.00000  Uiso   1.00
C1023  C     0.21065   0.97879   0.72968   0.00000  Uiso   1.00
C1024  C     0.13941   0.83127   0.85267   0.00000  Uiso   1.00
C1025  C     0.21053   0.68822   0.72934   0.00000  Uiso   1.00
C1026  C     0.16652   0.70920   0.74969   0.00000  Uiso   1.00
C1027  C     0.12267   0.68788   0.77041   0.00000  Uiso   1.00
C1028  C     0.12280   0.97844   0.77072   0.00000  Uiso   1.00
C1029  C     0.16680   0.95747   0.75037   0.00000  Uiso   1.00
C1030  C     0.31888   0.80623   0.71734   0.00000  Uiso   1.00
C1031  C     0.03333   0.80594   0.71734   0.00000  Uiso   1.00
C1032  C     0.14727   0.83091   0.99133   0.00000  Uiso   1.00
C1033  C     0.01450   0.86050   0.78255   0.00000  Uiso   1.00
C1034  C     0.29993   0.86051   0.78298   0.00000  Uiso   1.00
C1035  C     0.16657   0.75335   0.74982   0.00000  Uiso   1.00
C1036  C     0.19379   0.83367   0.64765   0.00000  Uiso   1.00
C1037  C     0.25497   0.78548   0.51078   0.00000  Uiso   1.00
C1038  C     0.21214   0.82957   0.58835   0.00000  Uiso   1.00
C1039  C     0.07515   0.84415   0.94609   0.00000  Uiso   1.00
C1040  C     0.06633   0.85334   0.50140   0.00000  Uiso   1.00
C1041  C     0.10224   0.84800   0.52340   0.00000  Uiso   1.00
C1042  C     0.06673   0.77523   0.68173   0.00000  Uiso   1.00
C1043  C     0.15335   0.81556   0.93848   0.00000  Uiso   1.00
C1044  C     0.26609   0.89008   0.82031   0.00000  Uiso   1.00
C1045  C     0.16926   0.89178   0.57034   0.00000  Uiso   1.00
C1046  C     0.03483   0.84945   0.92581   0.00000  Uiso   1.00
C1047  C     0.18519   0.82589   0.51171   0.00000  Uiso   1.00
C1048  C     0.22224   0.79664   0.98570   0.00000  Uiso   1.00
C1049  C     0.22490   0.77775   0.93624   0.00000  Uiso   1.00
C1050  C     0.19138   0.78761   0.91237   0.00000  Uiso   1.00
C1051  C     0.18657   0.84768   0.55843   0.00000  Uiso   1.00
C1052  C     0.24816   0.80012   0.56345   0.00000  Uiso   1.00
H1053  H     0.26920   0.78690   0.58574   0.00000  Uiso   1.00
H1054  H     0.03149   0.86498   0.52770   0.00000  Uiso   1.00
H1055  H     0.19424   0.77177   0.87437   0.00000  Uiso   1.00
H1056  H     0.24472   0.96249   0.71324   0.00000  Uiso   1.00
H1057  H     0.11491   0.76149   0.60669   0.00000  Uiso   1.00
H1058  H     0.22028   0.90231   0.89714   0.00000  Uiso   1.00
H1059  H     0.15393   0.94561   0.54065   0.00000  Uiso   1.00
H1060  H     0.32550   0.82309   0.88876   0.00000  Uiso   1.00
H1061  H     0.24456   0.70480   0.71281   0.00000  Uiso   1.00
H1062  H     0.08861   0.70418   0.78692   0.00000  Uiso   1.00
H1063  H     0.08876   0.96187   0.78725   0.00000  Uiso   1.00
H1064  H     0.30820   0.78462   0.69135   0.00000  Uiso   1.00
H1065  H     0.02516   0.88207   0.80859   0.00000  Uiso   1.00
H1066  H     0.25290   0.75532   0.91598   0.00000  Uiso   1.00
H1067  H     0.28297   0.76275   0.99183   0.00000  Uiso   1.00
H1068  H     0.09347   0.85548   0.56643   0.00000  Uiso   1.00
N1069  N     0.04760   0.83334   0.75001   0.00000  Uiso   1.00
N1070  N     0.28573   0.83331   0.75000   0.00000  Uiso   1.00
O1071  O     0.12846   0.89442   0.75000   0.00000  Uiso   1.00
O1072  O     0.09376   0.78534   0.62747   0.00000  Uiso   1.00
O1073  O     0.26184   0.92502   0.80445   0.00000  Uiso   1.00
O1074  O     0.24196   0.87922   0.87504   0.00000  Uiso   1.00
O1075  O     0.16064   0.90741   0.61590   0.00000  Uiso   1.00
O1076  O     0.16534   0.91623   0.52802   0.00000  Uiso   1.00
O1077  O     0.01132   0.88164   0.93607   0.00000  Uiso   1.00
O1078  O     0.02172   0.81653   0.89811   0.00000  Uiso   1.00
O1079  O     0.20490   0.89441   0.75000   0.00000  Uiso   1.00
O1080  O     0.10947   0.83333   0.82681   0.00000  Uiso   1.00
O1081  O     0.18591   0.83332   0.82681   0.00000  Uiso   1.00
O1082  O     0.12843   0.77226   0.74999   0.00000  Uiso   1.00
O1083  O     0.20488   0.77225   0.74999   0.00000  Uiso   1.00
O1084  O     0.14742   0.83335   0.67319   0.00000  Uiso   1.00
O1085  O     0.22387   0.83334   0.67319   0.00000  Uiso   1.00
O1086  O     0.06828   0.74008   0.69859   0.00000  Uiso   1.00
Zn1087 Zn    0.11562   0.83334   0.75000   0.00000  Uiso   1.00
Zn1088 Zn    0.21771   0.83333   0.75000   0.00000  Uiso   1.00
C1089  C     0.50008   0.91331   0.75022   0.00000  Uiso   1.00
C1090  C     0.45429   0.82819   0.91306   0.00000  Uiso   1.00
C1091  C     0.54399   0.97879   0.72968   0.00000  Uiso   1.00
C1092  C     0.47274   0.83127   0.85267   0.00000  Uiso   1.00
C1093  C     0.54386   0.68822   0.72934   0.00000  Uiso   1.00
C1094  C     0.49986   0.70920   0.74969   0.00000  Uiso   1.00
C1095  C     0.45600   0.68788   0.77041   0.00000  Uiso   1.00
C1096  C     0.45613   0.97844   0.77072   0.00000  Uiso   1.00
C1097  C     0.50013   0.95747   0.75037   0.00000  Uiso   1.00
C1098  C     0.65221   0.80623   0.71734   0.00000  Uiso   1.00
C1099  C     0.36666   0.80594   0.71734   0.00000  Uiso   1.00
C1100  C     0.48060   0.83091   0.99133   0.00000  Uiso   1.00
C1101  C     0.34783   0.86050   0.78255   0.00000  Uiso   1.00
C1102  C     0.63327   0.86051   0.78298   0.00000  Uiso   1.00
C1103  C     0.49991   0.75335   0.74982   0.00000  Uiso   1.00
C1104  C     0.52712   0.83367   0.64765   0.00000  Uiso   1.00
C1105  C     0.58830   0.78548   0.51078   0.00000  Uiso   1.00
C1106  C     0.54547   0.82957   0.58835   0.00000  Uiso   1.00
C1107  C     0.40848   0.84415   0.94609   0.00000  Uiso   1.00
C1108  C     0.39967   0.85334   0.50140   0.00000  Uiso   1.00
C1109  C     0.43558   0.84800   0.52340   0.00000  Uiso   1.00
C1110  C     0.40007   0.77523   0.68173   0.00000  Uiso   1.00
C1111  C     0.48669   0.81556   0.93848   0.00000  Uiso   1.00
C1112  C     0.59943   0.89008   0.82031   0.00000  Uiso   1.00
C1113  C     0.50259   0.89178   0.57034   0.00000  Uiso   1.00
C1114  C     0.36816   0.84945   0.92581   0.00000  Uiso   1.00
C1115  C     0.51852   0.82589   0.51171   0.00000  Uiso   1.00
C1116  C     0.55558   0.79664   0.98570   0.00000  Uiso   1.00
C1117  C     0.55824   0.77775   0.93624   0.00000  Uiso   1.00
C1118  C     0.52471   0.78761   0.91237   0.00000  Uiso   1.00
C1119  C     0.51990   0.84768   0.55843   0.00000  Uiso   1.00
C1120  C     0.58149   0.80012   0.56345   0.00000  Uiso   1.00
H1121  H     0.60253   0.78690   0.58574   0.00000  Uiso   1.00
H1122  H     0.36482   0.86498   0.52770   0.00000  Uiso   1.00
H1123  H     0.52757   0.77177   0.87437   0.00000  Uiso   1.00
H1124  H     0.57806   0.96249   0.71324   0.00000  Uiso   1.00
H1125  H     0.44825   0.76149   0.60669   0.00000  Uiso   1.00
H1126  H     0.55361   0.90231   0.89714   0.00000  Uiso   1.00
H1127  H     0.48726   0.94561   0.54065   0.00000  Uiso   1.00
H1128  H     0.65883   0.82309   0.88876   0.00000  Uiso   1.00
H1129  H     0.57790   0.70480   0.71281   0.00000  Uiso   1.00
H1130  H     0.42194   0.70418   0.78692   0.00000  Uiso   1.00
H1131  H     0.42209   0.96187   0.78725   0.00000  Uiso   1.00
H1132  H     0.64153   0.78462   0.69135   0.00000  Uiso   1.00
H1133  H     0.35850   0.88207   0.80859   0.00000  Uiso   1.00
H1134  H     0.58623   0.75532   0.91598   0.00000  Uiso   1.00
H1135  H     0.61630   0.76275   0.99183   0.00000  Uiso   1.00
H1136  H     0.42680   0.85548   0.56643   0.00000  Uiso   1.00
N1137  N     0.38093   0.83334   0.75001   0.00000  Uiso   1.00
N1138  N     0.61906   0.83331   0.75000   0.00000  Uiso   1.00
O1139  O     0.46179   0.89442   0.75000   0.00000  Uiso   1.00
O1140  O     0.42709   0.78534   0.62747   0.00000  Uiso   1.00
O1141  O     0.59518   0.92502   0.80445   0.00000  Uiso   1.00
O1142  O     0.57530   0.87922   0.87504   0.00000  Uiso   1.00
O1143  O     0.49397   0.90741   0.61590   0.00000  Uiso   1.00
O1144  O     0.49868   0.91623   0.52802   0.00000  Uiso   1.00
O1145  O     0.34465   0.88164   0.93607   0.00000  Uiso   1.00
O1146  O     0.35505   0.81653   0.89811   0.00000  Uiso   1.00
O1147  O     0.53823   0.89441   0.75000   0.00000  Uiso   1.00
O1148  O     0.44280   0.83333   0.82681   0.00000  Uiso   1.00
O1149  O     0.51924   0.83332   0.82681   0.00000  Uiso   1.00
O1150  O     0.46177   0.77226   0.74999   0.00000  Uiso   1.00
O1151  O     0.53821   0.77225   0.74999   0.00000  Uiso   1.00
O1152  O     0.48076   0.83335   0.67319   0.00000  Uiso   1.00
O1153  O     0.55720   0.83334   0.67319   0.00000  Uiso   1.00
O1154  O     0.40161   0.74008   0.69859   0.00000  Uiso   1.00
Zn1155 Zn    0.44896   0.83334   0.75000   0.00000  Uiso   1.00
Zn1156 Zn    0.55104   0.83333   0.75000   0.00000  Uiso   1.00
C1157  C     0.83342   0.91331   0.75022   0.00000  Uiso   1.00
C1158  C     0.78762   0.82819   0.91306   0.00000  Uiso   1.00
C1159  C     0.87732   0.97879   0.72968   0.00000  Uiso   1.00
C1160  C     0.80608   0.83127   0.85267   0.00000  Uiso   1.00
C1161  C     0.87719   0.68822   0.72934   0.00000  Uiso   1.00
C1162  C     0.83319   0.70920   0.74969   0.00000  Uiso   1.00
C1163  C     0.78934   0.68788   0.77041   0.00000  Uiso   1.00
C1164  C     0.78946   0.97844   0.77072   0.00000  Uiso   1.00
C1165  C     0.83346   0.95747   0.75037   0.00000  Uiso   1.00
C1166  C     0.98554   0.80623   0.71734   0.00000  Uiso   1.00
C1167  C     0.69999   0.80594   0.71734   0.00000  Uiso   1.00
C1168  C     0.81393   0.83091   0.99133   0.00000  Uiso   1.00
C1169  C     0.68116   0.86050   0.78255   0.00000  Uiso   1.00
C1170  C     0.96660   0.86051   0.78298   0.00000  Uiso   1.00
C1171  C     0.83324   0.75335   0.74982   0.00000  Uiso   1.00
C1172  C     0.86045   0.83367   0.64765   0.00000  Uiso   1.00
C1173  C     0.92164   0.78548   0.51078   0.00000  Uiso   1.00
C1174  C     0.87881   0.82957   0.58835   0.00000  Uiso   1.00
C1175  C     0.74182   0.84415   0.94609   0.00000  Uiso   1.00
C1176  C     0.73300   0.85334   0.50140   0.00000  Uiso   1.00
C1177  C     0.76891   0.84800   0.52340   0.00000  Uiso   1.00
C1178  C     0.73340   0.77523   0.68173   0.00000  Uiso   1.00
C1179  C     0.82002   0.81556   0.93848   0.00000  Uiso   1.00
C1180  C     0.93276   0.89008   0.82031   0.00000  Uiso   1.00
C1181  C     0.83593   0.89178   0.57034   0.00000  Uiso   1.00
C1182  C     0.70149   0.84945   0.92581   0.00000  Uiso   1.00
C1183  C     0.85186   0.82589   0.51171   0.00000  Uiso   1.00
C1184  C     0.88891   0.79664   0.98570   0.00000  Uiso   1.00
C1185  C     0.89157   0.77775   0.93624   0.00000  Uiso   1.00
C1186  C     0.85805   0.78761   0.91237   0.00000  Uiso   1.00
C1187  C     0.85324   0.84768   0.55843   0.00000  Uiso   1.00
C1188  C     0.91482   0.80012   0.56345   0.00000  Uiso   1.00
H1189  H     0.93587   0.78690   0.58574   0.00000  Uiso   1.00
H1190  H     0.69816   0.86498   0.52770   0.00000  Uiso   1.00
H1191  H     0.86091   0.77177   0.87437   0.00000  Uiso   1.00
H1192  H     0.91139   0.96249   0.71324   0.00000  Uiso   1.00
H1193  H     0.78158   0.76149   0.60669   0.00000  Uiso   1.00
H1194  H     0.88694   0.90231   0.89714   0.00000  Uiso   1.00
H1195  H     0.82059   0.94561   0.54065   0.00000  Uiso   1.00
H1196  H     0.99217   0.82309   0.88876   0.00000  Uiso   1.00
H1197  H     0.91123   0.70480   0.71281   0.00000  Uiso   1.00
H1198  H     0.75527   0.70418   0.78692   0.00000  Uiso   1.00
H1199  H     0.75542   0.96187   0.78725   0.00000  Uiso   1.00
H1200  H     0.97487   0.78462   0.69135   0.00000  Uiso   1.00
H1201  H     0.69183   0.88207   0.80859   0.00000  Uiso   1.00
H1202  H     0.91957   0.75532   0.91598   0.00000  Uiso   1.00
H1203  H     0.94963   0.76275   0.99183   0.00000  Uiso   1.00
H1204  H     0.76013   0.85548   0.56643   0.00000  Uiso   1.00
N1205  N     0.71426   0.83334   0.75001   0.00000  Uiso   1.00
N1206  N     0.95239   0.83331   0.75000   0.00000  Uiso   1.00
O1207  O     0.79512   0.89442   0.75000   0.00000  Uiso   1.00
O1208  O     0.76042   0.78534   0.62747   0.00000  Uiso   1.00
O1209  O     0.92851   0.92502   0.80445   0.00000  Uiso   1.00
O1210  O     0.90863   0.87922   0.87504   0.00000  Uiso   1.00
O1211  O     0.82730   0.90741   0.61590   0.00000  Uiso   1.00
O1212  O     0.83201   0.91623   0.52802   0.00000  Uiso   1.00
O1213  O     0.67798   0.88164   0.93607   0.00000  Uiso   1.00
O1214  O     0.68839   0.81653   0.89811   0.00000  Uiso   1.00
O1215  O     0.87157   0.89441   0.75000   0.00000  Uiso   1.00
O1216  O     0.77613   0.83333   0.82681   0.00000  Uiso   1.00
O1217  O     0.85258   0.83332   0.82681   0.00000  Uiso   1.00
O1218  O     0.79510   0.77226   0.74999   0.00000  Uiso   1.00
O1219  O     0.87154   0.77225   0.74999   0.00000  Uiso   1.00
O1220  O     0.81409   0.83335   0.67319   0.00000  Uiso   1.00
O1221  O     0.89053   0.83334   0.67319   0.00000  Uiso   1.00
O1222  O     0.73495   0.74008   0.69859   0.00000  Uiso   1.00
Zn1223 Zn    0.78229   0.83334   0.75000   0.00000  Uiso   1.00
Zn1224 Zn    0.88438   0.83333   0.75000   0.00000  Uiso   1.00
loop_
_geom_bond_atom_site_label_1
_geom_bond_atom_site_label_2
_geom_bond_distance
_geom_bond_site_symmetry_2
_ccdc_geom_bond_type
C1     C9      1.415   .     S
C1     O51     1.284   .     A
C1     O59     1.287   .     A
C2     C4      1.475   .     S
C2     C19     1.421   .     A
C2     C23     1.411   .     A
C3     C9      1.395   .     A
C3     H36     1.084   .     S
C3     C209    1.371   .     S
C4     O61     1.304   .     A
C4     O60     1.293   .     A
C5     C6      1.397   .     A
C5     H41     1.084   .     S
C5     C411    1.371   1_545 S
C6     C7      1.395   .     A
C6     C15     1.415   .     S
C7     H42     1.084   .     S
C7     C416    1.371   1_545 S
C8     H43     1.084   .     S
C8     C9      1.397   .     A
C8     C211    1.371   .     S
C10    H44     1.083   .     S
C10    N50     1.359   .     A
C10    C79     1.417   .     S
C11    C22     1.467   .     S
C11    N49     1.380   .     A
C11    C146    1.417   1_455 S
C12    C23     1.406   .     A
C12    C633    1.411   .     S
C12    C639    1.415   .     S
C13    H45     1.083   .     S
C13    N49     1.359   .     A
C13    C150    1.417   1_455 S
C14    N50     1.380   .     A
C14    C24     1.467   .     S
C14    C81     1.417   .     S
C15    O62     1.287   .     A
C15    O63     1.284   .     A
C16    O65     1.288   .     A
C16    C18     1.449   .     S
C16    O64     1.298   .     A
C17    C32     1.390   .     A
C17    C640    1.399   1_554 S
C17    H659    1.084   1_554 S
C18    C32     1.401   .     A
C18    C31     1.399   .     A
C19    C26     1.480   .     S
C19    C632    1.398   .     S
C20    H34     1.084   .     S
C20    C21     1.389   .     A
C20    C631    1.398   1_554 S
C21    H48     1.081   .     S
C21    C624    1.411   1_554 S
C22    O52     1.396   .     S
C22    O66     1.222   .     D
C23    C30     1.413   .     A
C24    O54     1.397   .     S
C24    O53     1.222   .     D
C25    C31     1.499   .     S
C25    O56     1.399   .     S
C25    O55     1.223   .     D
C26    O57     1.223   .     D
C26    O58     1.398   .     S
C27    C31     1.408   .     A
C27    C624    1.415   1_554 S
C27    C640    1.421   1_554 S
C28    C29     1.393   .     A
C28    C629    1.399   .     S
C28    C639    1.421   .     S
C29    H46     1.084   .     S
C29    C30     1.387   .     A
C30    H35     1.083   .     S
C32    H33     1.084   .     S
H37    O52     1.014   .     S
H38    O54     1.014   .     S
H39    O56     1.014   .     S
H40    O126    1.014   .     S
H47    C629    1.084   .     S
N49    Zn67    2.017   .     S
N50    Zn68    2.017   .     S
O51    Zn67    1.991   .     S
O58    H176    1.014   1_455 S
O59    Zn68    1.997   .     S
O60    Zn67    1.943   .     S
O61    Zn68    1.885   .     S
O62    Zn67    1.997   .     S
O63    Zn68    1.991   .     S
O64    Zn67    1.885   .     S
O65    Zn68    1.943   .     S
C69    C77     1.415   .     S
C69    O119    1.284   .     A
C69    O127    1.287   .     A
C70    C72     1.475   .     S
C70    C87     1.421   .     A
C70    C91     1.411   .     A
C71    C77     1.395   .     A
C71    H104    1.084   .     S
C71    C277    1.371   .     S
C72    O129    1.304   .     A
C72    O128    1.293   .     A
C73    C74     1.397   .     A
C73    H109    1.084   .     S
C73    C479    1.371   1_545 S
C74    C75     1.395   .     A
C74    C83     1.415   .     S
C75    H110    1.084   .     S
C75    C484    1.371   1_545 S
C76    H111    1.084   .     S
C76    C77     1.397   .     A
C76    C279    1.371   .     S
C78    H112    1.083   .     S
C78    N118    1.359   .     A
C78    C147    1.417   .     S
C79    C90     1.467   .     S
C79    N117    1.380   .     A
C80    C91     1.406   .     A
C80    C701    1.411   .     S
C80    C707    1.415   .     S
C81    H113    1.083   .     S
C81    N117    1.359   .     A
C82    N118    1.380   .     A
C82    C92     1.467   .     S
C82    C149    1.417   .     S
C83    O130    1.287   .     A
C83    O131    1.284   .     A
C84    O133    1.288   .     A
C84    C86     1.449   .     S
C84    O132    1.298   .     A
C85    C100    1.390   .     A
C85    C708    1.399   1_554 S
C85    H727    1.084   1_554 S
C86    C100    1.401   .     A
C86    C99     1.399   .     A
C87    C94     1.480   .     S
C87    C700    1.398   .     S
C88    H102    1.084   .     S
C88    C89     1.389   .     A
C88    C699    1.398   1_554 S
C89    H116    1.081   .     S
C89    C692    1.411   1_554 S
C90    O120    1.396   .     S
C90    O134    1.222   .     D
C91    C98     1.413   .     A
C92    O122    1.397   .     S
C92    O121    1.222   .     D
C93    C99     1.499   .     S
C93    O124    1.399   .     S
C93    O123    1.223   .     D
C94    O125    1.223   .     D
C94    O126    1.398   .     S
C95    C99     1.408   .     A
C95    C692    1.415   1_554 S
C95    C708    1.421   1_554 S
C96    C97     1.393   .     A
C96    C697    1.399   .     S
C96    C707    1.421   .     S
C97    H114    1.084   .     S
C97    C98     1.387   .     A
C98    H103    1.083   .     S
C100   H101    1.084   .     S
H105   O120    1.014   .     S
H106   O122    1.014   .     S
H107   O124    1.014   .     S
H108   O194    1.014   .     S
H115   C697    1.084   .     S
N117   Zn135   2.017   .     S
N118   Zn136   2.017   .     S
O119   Zn135   1.991   .     S
O127   Zn136   1.997   .     S
O128   Zn135   1.943   .     S
O129   Zn136   1.885   .     S
O130   Zn135   1.997   .     S
O131   Zn136   1.991   .     S
O132   Zn135   1.885   .     S
O133   Zn136   1.943   .     S
C137   C145    1.415   .     S
C137   O187    1.284   .     A
C137   O195    1.287   .     A
C138   C140    1.475   .     S
C138   C155    1.421   .     A
C138   C159    1.411   .     A
C139   C145    1.395   .     A
C139   H172    1.084   .     S
C139   C345    1.371   .     S
C140   O197    1.304   .     A
C140   O196    1.293   .     A
C141   C142    1.397   .     A
C141   H177    1.084   .     S
C141   C547    1.371   1_545 S
C142   C143    1.395   .     A
C142   C151    1.415   .     S
C143   H178    1.084   .     S
C143   C552    1.371   1_545 S
C144   H179    1.084   .     S
C144   C145    1.397   .     A
C144   C347    1.371   .     S
C146   H180    1.083   .     S
C146   N186    1.359   .     A
C146   C11     1.417   1_655 S
C147   C158    1.467   .     S
C147   N185    1.380   .     A
C148   C159    1.406   .     A
C148   C769    1.411   .     S
C148   C775    1.415   .     S
C149   H181    1.083   .     S
C149   N185    1.359   .     A
C150   N186    1.380   .     A
C150   C160    1.467   .     S
C150   C13     1.417   1_655 S
C151   O198    1.287   .     A
C151   O199    1.284   .     A
C152   O201    1.288   .     A
C152   C154    1.449   .     S
C152   O200    1.298   .     A
C153   C168    1.390   .     A
C153   C776    1.399   1_554 S
C153   H795    1.084   1_554 S
C154   C168    1.401   .     A
C154   C167    1.399   .     A
C155   C162    1.480   .     S
C155   C768    1.398   .     S
C156   H170    1.084   .     S
C156   C157    1.389   .     A
C156   C767    1.398   1_554 S
C157   H184    1.081   .     S
C157   C760    1.411   1_554 S
C158   O188    1.396   .     S
C158   O202    1.222   .     D
C159   C166    1.413   .     A
C160   O190    1.397   .     S
C160   O189    1.222   .     D
C161   C167    1.499   .     S
C161   O192    1.399   .     S
C161   O191    1.223   .     D
C162   O193    1.223   .     D
C162   O194    1.398   .     S
C163   C167    1.408   .     A
C163   C760    1.415   1_554 S
C163   C776    1.421   1_554 S
C164   C165    1.393   .     A
C164   C765    1.399   .     S
C164   C775    1.421   .     S
C165   H182    1.084   .     S
C165   C166    1.387   .     A
C166   H171    1.083   .     S
C168   H169    1.084   .     S
H173   O188    1.014   .     S
H174   O190    1.014   .     S
H175   O192    1.014   .     S
H176   O58     1.014   1_655 S
H183   C765    1.084   .     S
N185   Zn203   2.017   .     S
N186   Zn204   2.017   .     S
O187   Zn203   1.991   .     S
O195   Zn204   1.997   .     S
O196   Zn203   1.943   .     S
O197   Zn204   1.885   .     S
O198   Zn203   1.997   .     S
O199   Zn204   1.991   .     S
O200   Zn203   1.885   .     S
O201   Zn204   1.943   .     S
C205   C213    1.415   .     S
C205   O255    1.284   .     A
C205   O263    1.287   .     A
C206   C208    1.475   .     S
C206   C223    1.421   .     A
C206   C227    1.411   .     A
C207   C213    1.395   .     A
C207   H240    1.084   .     S
C207   C413    1.371   .     S
C208   O265    1.304   .     A
C208   O264    1.293   .     A
C209   C210    1.397   .     A
C209   H245    1.084   .     S
C210   C211    1.395   .     A
C210   C219    1.415   .     S
C211   H246    1.084   .     S
C212   H247    1.084   .     S
C212   C213    1.397   .     A
C212   C415    1.371   .     S
C214   H248    1.083   .     S
C214   N254    1.359   .     A
C214   C283    1.417   .     S
C215   C226    1.467   .     S
C215   N253    1.380   .     A
C215   C350    1.417   1_455 S
C216   C227    1.406   .     A
C216   C837    1.411   .     S
C216   C843    1.415   .     S
C217   H249    1.083   .     S
C217   N253    1.359   .     A
C217   C354    1.417   1_455 S
C218   N254    1.380   .     A
C218   C228    1.467   .     S
C218   C285    1.417   .     S
C219   O266    1.287   .     A
C219   O267    1.284   .     A
C220   O269    1.288   .     A
C220   C222    1.449   .     S
C220   O268    1.298   .     A
C221   C236    1.390   .     A
C221   C844    1.399   1_554 S
C221   H863    1.084   1_554 S
C222   C236    1.401   .     A
C222   C235    1.399   .     A
C223   C230    1.480   .     S
C223   C836    1.398   .     S
C224   H238    1.084   .     S
C224   C225    1.389   .     A
C224   C835    1.398   1_554 S
C225   H252    1.081   .     S
C225   C828    1.411   1_554 S
C226   O256    1.396   .     S
C226   O270    1.222   .     D
C227   C234    1.413   .     A
C228   O258    1.397   .     S
C228   O257    1.222   .     D
C229   C235    1.499   .     S
C229   O260    1.399   .     S
C229   O259    1.223   .     D
C230   O261    1.223   .     D
C230   O262    1.398   .     S
C231   C235    1.408   .     A
C231   C828    1.415   1_554 S
C231   C844    1.421   1_554 S
C232   C233    1.393   .     A
C232   C833    1.399   .     S
C232   C843    1.421   .     S
C233   H250    1.084   .     S
C233   C234    1.387   .     A
C234   H239    1.083   .     S
C236   H237    1.084   .     S
H241   O256    1.014   .     S
H242   O258    1.014   .     S
H243   O260    1.014   .     S
H244   O330    1.014   .     S
H251   C833    1.084   .     S
N253   Zn271   2.017   .     S
N254   Zn272   2.017   .     S
O255   Zn271   1.991   .     S
O262   H380    1.014   1_455 S
O263   Zn272   1.997   .     S
O264   Zn271   1.943   .     S
O265   Zn272   1.885   .     S
O266   Zn271   1.997   .     S
O267   Zn272   1.991   .     S
O268   Zn271   1.885   .     S
O269   Zn272   1.943   .     S
C273   C281    1.415   .     S
C273   O323    1.284   .     A
C273   O331    1.287   .     A
C274   C276    1.475   .     S
C274   C291    1.421   .     A
C274   C295    1.411   .     A
C275   C281    1.395   .     A
C275   H308    1.084   .     S
C275   C481    1.371   .     S
C276   O333    1.304   .     A
C276   O332    1.293   .     A
C277   C278    1.397   .     A
C277   H313    1.084   .     S
C278   C279    1.395   .     A
C278   C287    1.415   .     S
C279   H314    1.084   .     S
C280   H315    1.084   .     S
C280   C281    1.397   .     A
C280   C483    1.371   .     S
C282   H316    1.083   .     S
C282   N322    1.359   .     A
C282   C351    1.417   .     S
C283   C294    1.467   .     S
C283   N321    1.380   .     A
C284   C295    1.406   .     A
C284   C905    1.411   .     S
C284   C911    1.415   .     S
C285   H317    1.083   .     S
C285   N321    1.359   .     A
C286   N322    1.380   .     A
C286   C296    1.467   .     S
C286   C353    1.417   .     S
C287   O334    1.287   .     A
C287   O335    1.284   .     A
C288   O337    1.288   .     A
C288   C290    1.449   .     S
C288   O336    1.298   .     A
C289   C304    1.390   .     A
C289   C912    1.399   1_554 S
C289   H931    1.084   1_554 S
C290   C304    1.401   .     A
C290   C303    1.399   .     A
C291   C298    1.480   .     S
C291   C904    1.398   .     S
C292   H306    1.084   .     S
C292   C293    1.389   .     A
C292   C903    1.398   1_554 S
C293   H320    1.081   .     S
C293   C896    1.411   1_554 S
C294   O324    1.396   .     S
C294   O338    1.222   .     D
C295   C302    1.413   .     A
C296   O326    1.397   .     S
C296   O325    1.222   .     D
C297   C303    1.499   .     S
C297   O328    1.399   .     S
C297   O327    1.223   .     D
C298   O329    1.223   .     D
C298   O330    1.398   .     S
C299   C303    1.408   .     A
C299   C896    1.415   1_554 S
C299   C912    1.421   1_554 S
C300   C301    1.393   .     A
C300   C901    1.399   .     S
C300   C911    1.421   .     S
C301   H318    1.084   .     S
C301   C302    1.387   .     A
C302   H307    1.083   .     S
C304   H305    1.084   .     S
H309   O324    1.014   .     S
H310   O326    1.014   .     S
H311   O328    1.014   .     S
H312   O398    1.014   .     S
H319   C901    1.084   .     S
N321   Zn339   2.017   .     S
N322   Zn340   2.017   .     S
O323   Zn339   1.991   .     S
O331   Zn340   1.997   .     S
O332   Zn339   1.943   .     S
O333   Zn340   1.885   .     S
O334   Zn339   1.997   .     S
O335   Zn340   1.991   .     S
O336   Zn339   1.885   .     S
O337   Zn340   1.943   .     S
C341   C349    1.415   .     S
C341   O391    1.284   .     A
C341   O399    1.287   .     A
C342   C344    1.475   .     S
C342   C359    1.421   .     A
C342   C363    1.411   .     A
C343   C349    1.395   .     A
C343   H376    1.084   .     S
C343   C549    1.371   .     S
C344   O401    1.304   .     A
C344   O400    1.293   .     A
C345   C346    1.397   .     A
C345   H381    1.084   .     S
C346   C347    1.395   .     A
C346   C355    1.415   .     S
C347   H382    1.084   .     S
C348   H383    1.084   .     S
C348   C349    1.397   .     A
C348   C551    1.371   .     S
C350   H384    1.083   .     S
C350   N390    1.359   .     A
C350   C215    1.417   1_655 S
C351   C362    1.467   .     S
C351   N389    1.380   .     A
C352   C363    1.406   .     A
C352   C973    1.411   .     S
C352   C979    1.415   .     S
C353   H385    1.083   .     S
C353   N389    1.359   .     A
C354   N390    1.380   .     A
C354   C364    1.467   .     S
C354   C217    1.417   1_655 S
C355   O402    1.287   .     A
C355   O403    1.284   .     A
C356   O405    1.288   .     A
C356   C358    1.449   .     S
C356   O404    1.298   .     A
C357   C372    1.390   .     A
C357   C980    1.399   1_554 S
C357   H999    1.084   1_554 S
C358   C372    1.401   .     A
C358   C371    1.399   .     A
C359   C366    1.480   .     S
C359   C972    1.398   .     S
C360   H374    1.084   .     S
C360   C361    1.389   .     A
C360   C971    1.398   1_554 S
C361   H388    1.081   .     S
C361   C964    1.411   1_554 S
C362   O392    1.396   .     S
C362   O406    1.222   .     D
C363   C370    1.413   .     A
C364   O394    1.397   .     S
C364   O393    1.222   .     D
C365   C371    1.499   .     S
C365   O396    1.399   .     S
C365   O395    1.223   .     D
C366   O397    1.223   .     D
C366   O398    1.398   .     S
C367   C371    1.408   .     A
C367   C964    1.415   1_554 S
C367   C980    1.421   1_554 S
C368   C369    1.393   .     A
C368   C969    1.399   .     S
C368   C979    1.421   .     S
C369   H386    1.084   .     S
C369   C370    1.387   .     A
C370   H375    1.083   .     S
C372   H373    1.084   .     S
H377   O392    1.014   .     S
H378   O394    1.014   .     S
H379   O396    1.014   .     S
H380   O262    1.014   1_655 S
H387   C969    1.084   .     S
N389   Zn407   2.017   .     S
N390   Zn408   2.017   .     S
O391   Zn407   1.991   .     S
O399   Zn408   1.997   .     S
O400   Zn407   1.943   .     S
O401   Zn408   1.885   .     S
O402   Zn407   1.997   .     S
O403   Zn408   1.991   .     S
O404   Zn407   1.885   .     S
O405   Zn408   1.943   .     S
C409   C417    1.415   .     S
C409   O459    1.284   .     A
C409   O467    1.287   .     A
C410   C412    1.475   .     S
C410   C427    1.421   .     A
C410   C431    1.411   .     A
C411   C417    1.395   .     A
C411   H444    1.084   .     S
C411   C5      1.371   1_565 S
C412   O469    1.304   .     A
C412   O468    1.293   .     A
C413   C414    1.397   .     A
C413   H449    1.084   .     S
C414   C415    1.395   .     A
C414   C423    1.415   .     S
C415   H450    1.084   .     S
C416   H451    1.084   .     S
C416   C417    1.397   .     A
C416   C7      1.371   1_565 S
C418   H452    1.083   .     S
C418   N458    1.359   .     A
C418   C487    1.417   .     S
C419   C430    1.467   .     S
C419   N457    1.380   .     A
C419   C554    1.417   1_455 S
C420   C431    1.406   .     A
C420   C1041   1.411   .     S
C420   C1047   1.415   .     S
C421   H453    1.083   .     S
C421   N457    1.359   .     A
C421   C558    1.417   1_455 S
C422   N458    1.380   .     A
C422   C432    1.467   .     S
C422   C489    1.417   .     S
C423   O470    1.287   .     A
C423   O471    1.284   .     A
C424   O473    1.288   .     A
C424   C426    1.449   .     S
C424   O472    1.298   .     A
C425   C440    1.390   .     A
C425   C1048   1.399   1_554 S
C425   H1067   1.084   1_554 S
C426   C440    1.401   .     A
C426   C439    1.399   .     A
C427   C434    1.480   .     S
C427   C1040   1.398   .     S
C428   H442    1.084   .     S
C428   C429    1.389   .     A
C428   C1039   1.398   1_554 S
C429   H456    1.081   .     S
C429   C1032   1.411   1_554 S
C430   O460    1.396   .     S
C430   O474    1.222   .     D
C431   C438    1.413   .     A
C432   O462    1.397   .     S
C432   O461    1.222   .     D
C433   C439    1.499   .     S
C433   O464    1.399   .     S
C433   O463    1.223   .     D
C434   O465    1.223   .     D
C434   O466    1.398   .     S
C435   C439    1.408   .     A
C435   C1032   1.415   1_554 S
C435   C1048   1.421   1_554 S
C436   C437    1.393   .     A
C436   C1037   1.399   .     S
C436   C1047   1.421   .     S
C437   H454    1.084   .     S
C437   C438    1.387   .     A
C438   H443    1.083   .     S
C440   H441    1.084   .     S
H445   O460    1.014   .     S
H446   O462    1.014   .     S
H447   O464    1.014   .     S
H448   O534    1.014   .     S
H455   C1037   1.084   .     S
N457   Zn475   2.017   .     S
N458   Zn476   2.017   .     S
O459   Zn475   1.991   .     S
O466   H584    1.014   1_455 S
O467   Zn476   1.997   .     S
O468   Zn475   1.943   .     S
O469   Zn476   1.885   .     S
O470   Zn475   1.997   .     S
O471   Zn476   1.991   .     S
O472   Zn475   1.885   .     S
O473   Zn476   1.943   .     S
C477   C485    1.415   .     S
C477   O527    1.284   .     A
C477   O535    1.287   .     A
C478   C480    1.475   .     S
C478   C495    1.421   .     A
C478   C499    1.411   .     A
C479   C485    1.395   .     A
C479   H512    1.084   .     S
C479   C73     1.371   1_565 S
C480   O537    1.304   .     A
C480   O536    1.293   .     A
C481   C482    1.397   .     A
C481   H517    1.084   .     S
C482   C483    1.395   .     A
C482   C491    1.415   .     S
C483   H518    1.084   .     S
C484   H519    1.084   .     S
C484   C485    1.397   .     A
C484   C75     1.371   1_565 S
C486   H520    1.083   .     S
C486   N526    1.359   .     A
C486   C555    1.417   .     S
C487   C498    1.467   .     S
C487   N525    1.380   .     A
C488   C499    1.406   .     A
C488   C1109   1.411   .     S
C488   C1115   1.415   .     S
C489   H521    1.083   .     S
C489   N525    1.359   .     A
C490   N526    1.380   .     A
C490   C500    1.467   .     S
C490   C557    1.417   .     S
C491   O538    1.287   .     A
C491   O539    1.284   .     A
C492   O541    1.288   .     A
C492   C494    1.449   .     S
C492   O540    1.298   .     A
C493   C508    1.390   .     A
C493   C1116   1.399   1_554 S
C493   H1135   1.084   1_554 S
C494   C508    1.401   .     A
C494   C507    1.399   .     A
C495   C502    1.480   .     S
C495   C1108   1.398   .     S
C496   H510    1.084   .     S
C496   C497    1.389   .     A
C496   C1107   1.398   1_554 S
C497   H524    1.081   .     S
C497   C1100   1.411   1_554 S
C498   O528    1.396   .     S
C498   O542    1.222   .     D
C499   C506    1.413   .     A
C500   O530    1.397   .     S
C500   O529    1.222   .     D
C501   C507    1.499   .     S
C501   O532    1.399   .     S
C501   O531    1.223   .     D
C502   O533    1.223   .     D
C502   O534    1.398   .     S
C503   C507    1.408   .     A
C503   C1100   1.415   1_554 S
C503   C1116   1.421   1_554 S
C504   C505    1.393   .     A
C504   C1105   1.399   .     S
C504   C1115   1.421   .     S
C505   H522    1.084   .     S
C505   C506    1.387   .     A
C506   H511    1.083   .     S
C508   H509    1.084   .     S
H513   O528    1.014   .     S
H514   O530    1.014   .     S
H515   O532    1.014   .     S
H516   O602    1.014   .     S
H523   C1105   1.084   .     S
N525   Zn543   2.017   .     S
N526   Zn544   2.017   .     S
O527   Zn543   1.991   .     S
O535   Zn544   1.997   .     S
O536   Zn543   1.943   .     S
O537   Zn544   1.885   .     S
O538   Zn543   1.997   .     S
O539   Zn544   1.991   .     S
O540   Zn543   1.885   .     S
O541   Zn544   1.943   .     S
C545   C553    1.415   .     S
C545   O595    1.284   .     A
C545   O603    1.287   .     A
C546   C548    1.475   .     S
C546   C563    1.421   .     A
C546   C567    1.411   .     A
C547   C553    1.395   .     A
C547   H580    1.084   .     S
C547   C141    1.371   1_565 S
C548   O605    1.304   .     A
C548   O604    1.293   .     A
C549   C550    1.397   .     A
C549   H585    1.084   .     S
C550   C551    1.395   .     A
C550   C559    1.415   .     S
C551   H586    1.084   .     S
C552   H587    1.084   .     S
C552   C553    1.397   .     A
C552   C143    1.371   1_565 S
C554   H588    1.083   .     S
C554   N594    1.359   .     A
C554   C419    1.417   1_655 S
C555   C566    1.467   .     S
C555   N593    1.380   .     A
C556   C567    1.406   .     A
C556   C1177   1.411   .     S
C556   C1183   1.415   .     S
C557   H589    1.083   .     S
C557   N593    1.359   .     A
C558   N594    1.380   .     A
C558   C568    1.467   .     S
C558   C421    1.417   1_655 S
C559   O606    1.287   .     A
C559   O607    1.284   .     A
C560   O609    1.288   .     A
C560   C562    1.449   .     S
C560   O608    1.298   .     A
C561   C576    1.390   .     A
C561   C1184   1.399   1_554 S
C561   H1203   1.084   1_554 S
C562   C576    1.401   .     A
C562   C575    1.399   .     A
C563   C570    1.480   .     S
C563   C1176   1.398   .     S
C564   H578    1.084   .     S
C564   C565    1.389   .     A
C564   C1175   1.398   1_554 S
C565   H592    1.081   .     S
C565   C1168   1.411   1_554 S
C566   O596    1.396   .     S
C566   O610    1.222   .     D
C567   C574    1.413   .     A
C568   O598    1.397   .     S
C568   O597    1.222   .     D
C569   C575    1.499   .     S
C569   O600    1.399   .     S
C569   O599    1.223   .     D
C570   O601    1.223   .     D
C570   O602    1.398   .     S
C571   C575    1.408   .     A
C571   C1168   1.415   1_554 S
C571   C1184   1.421   1_554 S
C572   C573    1.393   .     A
C572   C1173   1.399   .     S
C572   C1183   1.421   .     S
C573   H590    1.084   .     S
C573   C574    1.387   .     A
C574   H579    1.083   .     S
C576   H577    1.084   .     S
H581   O596    1.014   .     S
H582   O598    1.014   .     S
H583   O600    1.014   .     S
H584   O466    1.014   1_655 S
H591   C1173   1.084   .     S
N593   Zn611   2.017   .     S
N594   Zn612   2.017   .     S
O595   Zn611   1.991   .     S
O603   Zn612   1.997   .     S
O604   Zn611   1.943   .     S
O605   Zn612   1.885   .     S
O606   Zn611   1.997   .     S
O607   Zn612   1.991   .     S
O608   Zn611   1.885   .     S
O609   Zn612   1.943   .     S
C613   C621    1.415   .     S
C613   O663    1.284   .     A
C613   O671    1.287   .     A
C614   C616    1.475   .     S
C614   C631    1.421   .     A
C614   C635    1.411   .     A
C615   C621    1.395   .     A
C615   H648    1.084   .     S
C615   C821    1.371   .     S
C616   O673    1.304   .     A
C616   O672    1.293   .     A
C617   C618    1.397   .     A
C617   H653    1.084   .     S
C617   C1023   1.371   1_545 S
C618   C619    1.395   .     A
C618   C627    1.415   .     S
C619   H654    1.084   .     S
C619   C1028   1.371   1_545 S
C620   H655    1.084   .     S
C620   C621    1.397   .     A
C620   C823    1.371   .     S
C622   H656    1.083   .     S
C622   N662    1.359   .     A
C622   C691    1.417   .     S
C623   C634    1.467   .     S
C623   N661    1.380   .     A
C623   C758    1.417   1_455 S
C624   C635    1.406   .     A
C624   C21     1.411   1_556 S
C624   C27     1.415   1_556 S
C625   H657    1.083   .     S
C625   N661    1.359   .     A
C625   C762    1.417   1_455 S
C626   N662    1.380   .     A
C626   C636    1.467   .     S
C626   C693    1.417   .     S
C627   O674    1.287   .     A
C627   O675    1.284   .     A
C628   O677    1.288   .     A
C628   C630    1.449   .     S
C628   O676    1.298   .     A
C629   C644    1.390   .     A
C630   C644    1.401   .     A
C630   C643    1.399   .     A
C631   C638    1.480   .     S
C631   C20     1.398   1_556 S
C632   H646    1.084   .     S
C632   C633    1.389   .     A
C633   H660    1.081   .     S
C634   O664    1.396   .     S
C634   O678    1.222   .     D
C635   C642    1.413   .     A
C636   O666    1.397   .     S
C636   O665    1.222   .     D
C637   C643    1.499   .     S
C637   O668    1.399   .     S
C637   O667    1.223   .     D
C638   O669    1.223   .     D
C638   O670    1.398   .     S
C639   C643    1.408   .     A
C640   C641    1.393   .     A
C640   C17     1.399   1_556 S
C640   C27     1.421   1_556 S
C641   H658    1.084   .     S
C641   C642    1.387   .     A
C642   H647    1.083   .     S
C644   H645    1.084   .     S
H649   O664    1.014   .     S
H650   O666    1.014   .     S
H651   O668    1.014   .     S
H652   O738    1.014   .     S
H659   C17     1.084   1_556 S
N661   Zn679   2.017   .     S
N662   Zn680   2.017   .     S
O663   Zn679   1.991   .     S
O670   H788    1.014   1_455 S
O671   Zn680   1.997   .     S
O672   Zn679   1.943   .     S
O673   Zn680   1.885   .     S
O674   Zn679   1.997   .     S
O675   Zn680   1.991   .     S
O676   Zn679   1.885   .     S
O677   Zn680   1.943   .     S
C681   C689    1.415   .     S
C681   O731    1.284   .     A
C681   O739    1.287   .     A
C682   C684    1.475   .     S
C682   C699    1.421   .     A
C682   C703    1.411   .     A
C683   C689    1.395   .     A
C683   H716    1.084   .     S
C683   C889    1.371   .     S
C684   O741    1.304   .     A
C684   O740    1.293   .     A
C685   C686    1.397   .     A
C685   H721    1.084   .     S
C685   C1091   1.371   1_545 S
C686   C687    1.395   .     A
C686   C695    1.415   .     S
C687   H722    1.084   .     S
C687   C1096   1.371   1_545 S
C688   H723    1.084   .     S
C688   C689    1.397   .     A
C688   C891    1.371   .     S
C690   H724    1.083   .     S
C690   N730    1.359   .     A
C690   C759    1.417   .     S
C691   C702    1.467   .     S
C691   N729    1.380   .     A
C692   C703    1.406   .     A
C692   C89     1.411   1_556 S
C692   C95     1.415   1_556 S
C693   H725    1.083   .     S
C693   N729    1.359   .     A
C694   N730    1.380   .     A
C694   C704    1.467   .     S
C694   C761    1.417   .     S
C695   O742    1.287   .     A
C695   O743    1.284   .     A
C696   O745    1.288   .     A
C696   C698    1.449   .     S
C696   O744    1.298   .     A
C697   C712    1.390   .     A
C698   C712    1.401   .     A
C698   C711    1.399   .     A
C699   C706    1.480   .     S
C699   C88     1.398   1_556 S
C700   H714    1.084   .     S
C700   C701    1.389   .     A
C701   H728    1.081   .     S
C702   O732    1.396   .     S
C702   O746    1.222   .     D
C703   C710    1.413   .     A
C704   O734    1.397   .     S
C704   O733    1.222   .     D
C705   C711    1.499   .     S
C705   O736    1.399   .     S
C705   O735    1.223   .     D
C706   O737    1.223   .     D
C706   O738    1.398   .     S
C707   C711    1.408   .     A
C708   C709    1.393   .     A
C708   C85     1.399   1_556 S
C708   C95     1.421   1_556 S
C709   H726    1.084   .     S
C709   C710    1.387   .     A
C710   H715    1.083   .     S
C712   H713    1.084   .     S
H717   O732    1.014   .     S
H718   O734    1.014   .     S
H719   O736    1.014   .     S
H720   O806    1.014   .     S
H727   C85     1.084   1_556 S
N729   Zn747   2.017   .     S
N730   Zn748   2.017   .     S
O731   Zn747   1.991   .     S
O739   Zn748   1.997   .     S
O740   Zn747   1.943   .     S
O741   Zn748   1.885   .     S
O742   Zn747   1.997   .     S
O743   Zn748   1.991   .     S
O744   Zn747   1.885   .     S
O745   Zn748   1.943   .     S
C749   C757    1.415   .     S
C749   O799    1.284   .     A
C749   O807    1.287   .     A
C750   C752    1.475   .     S
C750   C767    1.421   .     A
C750   C771    1.411   .     A
C751   C757    1.395   .     A
C751   H784    1.084   .     S
C751   C957    1.371   .     S
C752   O809    1.304   .     A
C752   O808    1.293   .     A
C753   C754    1.397   .     A
C753   H789    1.084   .     S
C753   C1159   1.371   1_545 S
C754   C755    1.395   .     A
C754   C763    1.415   .     S
C755   H790    1.084   .     S
C755   C1164   1.371   1_545 S
C756   H791    1.084   .     S
C756   C757    1.397   .     A
C756   C959    1.371   .     S
C758   H792    1.083   .     S
C758   N798    1.359   .     A
C758   C623    1.417   1_655 S
C759   C770    1.467   .     S
C759   N797    1.380   .     A
C760   C771    1.406   .     A
C760   C157    1.411   1_556 S
C760   C163    1.415   1_556 S
C761   H793    1.083   .     S
C761   N797    1.359   .     A
C762   N798    1.380   .     A
C762   C772    1.467   .     S
C762   C625    1.417   1_655 S
C763   O810    1.287   .     A
C763   O811    1.284   .     A
C764   O813    1.288   .     A
C764   C766    1.449   .     S
C764   O812    1.298   .     A
C765   C780    1.390   .     A
C766   C780    1.401   .     A
C766   C779    1.399   .     A
C767   C774    1.480   .     S
C767   C156    1.398   1_556 S
C768   H782    1.084   .     S
C768   C769    1.389   .     A
C769   H796    1.081   .     S
C770   O800    1.396   .     S
C770   O814    1.222   .     D
C771   C778    1.413   .     A
C772   O802    1.397   .     S
C772   O801    1.222   .     D
C773   C779    1.499   .     S
C773   O804    1.399   .     S
C773   O803    1.223   .     D
C774   O805    1.223   .     D
C774   O806    1.398   .     S
C775   C779    1.408   .     A
C776   C777    1.393   .     A
C776   C153    1.399   1_556 S
C776   C163    1.421   1_556 S
C777   H794    1.084   .     S
C777   C778    1.387   .     A
C778   H783    1.083   .     S
C780   H781    1.084   .     S
H785   O800    1.014   .     S
H786   O802    1.014   .     S
H787   O804    1.014   .     S
H788   O670    1.014   1_655 S
H795   C153    1.084   1_556 S
N797   Zn815   2.017   .     S
N798   Zn816   2.017   .     S
O799   Zn815   1.991   .     S
O807   Zn816   1.997   .     S
O808   Zn815   1.943   .     S
O809   Zn816   1.885   .     S
O810   Zn815   1.997   .     S
O811   Zn816   1.991   .     S
O812   Zn815   1.885   .     S
O813   Zn816   1.943   .     S
C817   C825    1.415   .     S
C817   O867    1.284   .     A
C817   O875    1.287   .     A
C818   C820    1.475   .     S
C818   C835    1.421   .     A
C818   C839    1.411   .     A
C819   C825    1.395   .     A
C819   H852    1.084   .     S
C819   C1025   1.371   .     S
C820   O877    1.304   .     A
C820   O876    1.293   .     A
C821   C822    1.397   .     A
C821   H857    1.084   .     S
C822   C823    1.395   .     A
C822   C831    1.415   .     S
C823   H858    1.084   .     S
C824   H859    1.084   .     S
C824   C825    1.397   .     A
C824   C1027   1.371   .     S
C826   H860    1.083   .     S
C826   N866    1.359   .     A
C826   C895    1.417   .     S
C827   C838    1.467   .     S
C827   N865    1.380   .     A
C827   C962    1.417   1_455 S
C828   C839    1.406   .     A
C828   C225    1.411   1_556 S
C828   C231    1.415   1_556 S
C829   H861    1.083   .     S
C829   N865    1.359   .     A
C829   C966    1.417   1_455 S
C830   N866    1.380   .     A
C830   C840    1.467   .     S
C830   C897    1.417   .     S
C831   O878    1.287   .     A
C831   O879    1.284   .     A
C832   O881    1.288   .     A
C832   C834    1.449   .     S
C832   O880    1.298   .     A
C833   C848    1.390   .     A
C834   C848    1.401   .     A
C834   C847    1.399   .     A
C835   C842    1.480   .     S
C835   C224    1.398   1_556 S
C836   H850    1.084   .     S
C836   C837    1.389   .     A
C837   H864    1.081   .     S
C838   O868    1.396   .     S
C838   O882    1.222   .     D
C839   C846    1.413   .     A
C840   O870    1.397   .     S
C840   O869    1.222   .     D
C841   C847    1.499   .     S
C841   O872    1.399   .     S
C841   O871    1.223   .     D
C842   O873    1.223   .     D
C842   O874    1.398   .     S
C843   C847    1.408   .     A
C844   C845    1.393   .     A
C844   C221    1.399   1_556 S
C844   C231    1.421   1_556 S
C845   H862    1.084   .     S
C845   C846    1.387   .     A
C846   H851    1.083   .     S
C848   H849    1.084   .     S
H853   O868    1.014   .     S
H854   O870    1.014   .     S
H855   O872    1.014   .     S
H856   O942    1.014   .     S
H863   C221    1.084   1_556 S
N865   Zn883   2.017   .     S
N866   Zn884   2.017   .     S
O867   Zn883   1.991   .     S
O874   H992    1.014   1_455 S
O875   Zn884   1.997   .     S
O876   Zn883   1.943   .     S
O877   Zn884   1.885   .     S
O878   Zn883   1.997   .     S
O879   Zn884   1.991   .     S
O880   Zn883   1.885   .     S
O881   Zn884   1.943   .     S
C885   C893    1.415   .     S
C885   O935    1.284   .     A
C885   O943    1.287   .     A
C886   C888    1.475   .     S
C886   C903    1.421   .     A
C886   C907    1.411   .     A
C887   C893    1.395   .     A
C887   H920    1.084   .     S
C887   C1093   1.371   .     S
C888   O945    1.304   .     A
C888   O944    1.293   .     A
C889   C890    1.397   .     A
C889   H925    1.084   .     S
C890   C891    1.395   .     A
C890   C899    1.415   .     S
C891   H926    1.084   .     S
C892   H927    1.084   .     S
C892   C893    1.397   .     A
C892   C1095   1.371   .     S
C894   H928    1.083   .     S
C894   N934    1.359   .     A
C894   C963    1.417   .     S
C895   C906    1.467   .     S
C895   N933    1.380   .     A
C896   C907    1.406   .     A
C896   C293    1.411   1_556 S
C896   C299    1.415   1_556 S
C897   H929    1.083   .     S
C897   N933    1.359   .     A
C898   N934    1.380   .     A
C898   C908    1.467   .     S
C898   C965    1.417   .     S
C899   O946    1.287   .     A
C899   O947    1.284   .     A
C900   O949    1.288   .     A
C900   C902    1.449   .     S
C900   O948    1.298   .     A
C901   C916    1.390   .     A
C902   C916    1.401   .     A
C902   C915    1.399   .     A
C903   C910    1.480   .     S
C903   C292    1.398   1_556 S
C904   H918    1.084   .     S
C904   C905    1.389   .     A
C905   H932    1.081   .     S
C906   O936    1.396   .     S
C906   O950    1.222   .     D
C907   C914    1.413   .     A
C908   O938    1.397   .     S
C908   O937    1.222   .     D
C909   C915    1.499   .     S
C909   O940    1.399   .     S
C909   O939    1.223   .     D
C910   O941    1.223   .     D
C910   O942    1.398   .     S
C911   C915    1.408   .     A
C912   C913    1.393   .     A
C912   C289    1.399   1_556 S
C912   C299    1.421   1_556 S
C913   H930    1.084   .     S
C913   C914    1.387   .     A
C914   H919    1.083   .     S
C916   H917    1.084   .     S
H921   O936    1.014   .     S
H922   O938    1.014   .     S
H923   O940    1.014   .     S
H924   O1010   1.014   .     S
H931   C289    1.084   1_556 S
N933   Zn951   2.017   .     S
N934   Zn952   2.017   .     S
O935   Zn951   1.991   .     S
O943   Zn952   1.997   .     S
O944   Zn951   1.943   .     S
O945   Zn952   1.885   .     S
O946   Zn951   1.997   .     S
O947   Zn952   1.991   .     S
O948   Zn951   1.885   .     S
O949   Zn952   1.943   .     S
C953   C961    1.415   .     S
C953   O1003   1.284   .     A
C953   O1011   1.287   .     A
C954   C956    1.475   .     S
C954   C971    1.421   .     A
C954   C975    1.411   .     A
C955   C961    1.395   .     A
C955   H988    1.084   .     S
C955   C1161   1.371   .     S
C956   O1013   1.304   .     A
C956   O1012   1.293   .     A
C957   C958    1.397   .     A
C957   H993    1.084   .     S
C958   C959    1.395   .     A
C958   C967    1.415   .     S
C959   H994    1.084   .     S
C960   H995    1.084   .     S
C960   C961    1.397   .     A
C960   C1163   1.371   .     S
C962   H996    1.083   .     S
C962   N1002   1.359   .     A
C962   C827    1.417   1_655 S
C963   C974    1.467   .     S
C963   N1001   1.380   .     A
C964   C975    1.406   .     A
C964   C361    1.411   1_556 S
C964   C367    1.415   1_556 S
C965   H997    1.083   .     S
C965   N1001   1.359   .     A
C966   N1002   1.380   .     A
C966   C976    1.467   .     S
C966   C829    1.417   1_655 S
C967   O1014   1.287   .     A
C967   O1015   1.284   .     A
C968   O1017   1.288   .     A
C968   C970    1.449   .     S
C968   O1016   1.298   .     A
C969   C984    1.390   .     A
C970   C984    1.401   .     A
C970   C983    1.399   .     A
C971   C978    1.480   .     S
C971   C360    1.398   1_556 S
C972   H986    1.084   .     S
C972   C973    1.389   .     A
C973   H1000   1.081   .     S
C974   O1004   1.396   .     S
C974   O1018   1.222   .     D
C975   C982    1.413   .     A
C976   O1006   1.397   .     S
C976   O1005   1.222   .     D
C977   C983    1.499   .     S
C977   O1008   1.399   .     S
C977   O1007   1.223   .     D
C978   O1009   1.223   .     D
C978   O1010   1.398   .     S
C979   C983    1.408   .     A
C980   C981    1.393   .     A
C980   C357    1.399   1_556 S
C980   C367    1.421   1_556 S
C981   H998    1.084   .     S
C981   C982    1.387   .     A
C982   H987    1.083   .     S
C984   H985    1.084   .     S
H989   O1004   1.014   .     S
H990   O1006   1.014   .     S
H991   O1008   1.014   .     S
H992   O874    1.014   1_655 S
H999   C357    1.084   1_556 S
N1001  Zn1019  2.017   .     S
N1002  Zn1020  2.017   .     S
O1003  Zn1019  1.991   .     S
O1011  Zn1020  1.997   .     S
O1012  Zn1019  1.943   .     S
O1013  Zn1020  1.885   .     S
O1014  Zn1019  1.997   .     S
O1015  Zn1020  1.991   .     S
O1016  Zn1019  1.885   .     S
O1017  Zn1020  1.943   .     S
C1021  C1029   1.415   .     S
C1021  O1071   1.284   .     A
C1021  O1079   1.287   .     A
C1022  C1024   1.475   .     S
C1022  C1039   1.421   .     A
C1022  C1043   1.411   .     A
C1023  C1029   1.395   .     A
C1023  H1056   1.084   .     S
C1023  C617    1.371   1_565 S
C1024  O1081   1.304   .     A
C1024  O1080   1.293   .     A
C1025  C1026   1.397   .     A
C1025  H1061   1.084   .     S
C1026  C1027   1.395   .     A
C1026  C1035   1.415   .     S
C1027  H1062   1.084   .     S
C1028  H1063   1.084   .     S
C1028  C1029   1.397   .     A
C1028  C619    1.371   1_565 S
C1030  H1064   1.083   .     S
C1030  N1070   1.359   .     A
C1030  C1099   1.417   .     S
C1031  C1042   1.467   .     S
C1031  N1069   1.380   .     A
C1031  C1166   1.417   1_455 S
C1032  C1043   1.406   .     A
C1032  C429    1.411   1_556 S
C1032  C435    1.415   1_556 S
C1033  H1065   1.083   .     S
C1033  N1069   1.359   .     A
C1033  C1170   1.417   1_455 S
C1034  N1070   1.380   .     A
C1034  C1044   1.467   .     S
C1034  C1101   1.417   .     S
C1035  O1082   1.287   .     A
C1035  O1083   1.284   .     A
C1036  O1085   1.288   .     A
C1036  C1038   1.449   .     S
C1036  O1084   1.298   .     A
C1037  C1052   1.390   .     A
C1038  C1052   1.401   .     A
C1038  C1051   1.399   .     A
C1039  C1046   1.480   .     S
C1039  C428    1.398   1_556 S
C1040  H1054   1.084   .     S
C1040  C1041   1.389   .     A
C1041  H1068   1.081   .     S
C1042  O1072   1.396   .     S
C1042  O1086   1.222   .     D
C1043  C1050   1.413   .     A
C1044  O1074   1.397   .     S
C1044  O1073   1.222   .     D
C1045  C1051   1.499   .     S
C1045  O1076   1.399   .     S
C1045  O1075   1.223   .     D
C1046  O1077   1.223   .     D
C1046  O1078   1.398   .     S
C1047  C1051   1.408   .     A
C1048  C1049   1.393   .     A
C1048  C425    1.399   1_556 S
C1048  C435    1.421   1_556 S
C1049  H1066   1.084   .     S
C1049  C1050   1.387   .     A
C1050  H1055   1.083   .     S
C1052  H1053   1.084   .     S
H1057  O1072   1.014   .     S
H1058  O1074   1.014   .     S
H1059  O1076   1.014   .     S
H1060  O1146   1.014   .     S
H1067  C425    1.084   1_556 S
N1069  Zn1087  2.017   .     S
N1070  Zn1088  2.017   .     S
O1071  Zn1087  1.991   .     S
O1078  H1196   1.014   1_455 S
O1079  Zn1088  1.997   .     S
O1080  Zn1087  1.943   .     S
O1081  Zn1088  1.885   .     S
O1082  Zn1087  1.997   .     S
O1083  Zn1088  1.991   .     S
O1084  Zn1087  1.885   .     S
O1085  Zn1088  1.943   .     S
C1089  C1097   1.415   .     S
C1089  O1139   1.284   .     A
C1089  O1147   1.287   .     A
C1090  C1092   1.475   .     S
C1090  C1107   1.421   .     A
C1090  C1111   1.411   .     A
C1091  C1097   1.395   .     A
C1091  H1124   1.084   .     S
C1091  C685    1.371   1_565 S
C1092  O1149   1.304   .     A
C1092  O1148   1.293   .     A
C1093  C1094   1.397   .     A
C1093  H1129   1.084   .     S
C1094  C1095   1.395   .     A
C1094  C1103   1.415   .     S
C1095  H1130   1.084   .     S
C1096  H1131   1.084   .     S
C1096  C1097   1.397   .     A
C1096  C687    1.371   1_565 S
C1098  H1132   1.083   .     S
C1098  N1138   1.359   .     A
C1098  C1167   1.417   .     S
C1099  C1110   1.467   .     S
C1099  N1137   1.380   .     A
C1100  C1111   1.406   .     A
C1100  C497    1.411   1_556 S
C1100  C503    1.415   1_556 S
C1101  H1133   1.083   .     S
C1101  N1137   1.359   .     A
C1102  N1138   1.380   .     A
C1102  C1112   1.467   .     S
C1102  C1169   1.417   .     S
C1103  O1150   1.287   .     A
C1103  O1151   1.284   .     A
C1104  O1153   1.288   .     A
C1104  C1106   1.449   .     S
C1104  O1152   1.298   .     A
C1105  C1120   1.390   .     A
C1106  C1120   1.401   .     A
C1106  C1119   1.399   .     A
C1107  C1114   1.480   .     S
C1107  C496    1.398   1_556 S
C1108  H1122   1.084   .     S
C1108  C1109   1.389   .     A
C1109  H1136   1.081   .     S
C1110  O1140   1.396   .     S
C1110  O1154   1.222   .     D
C1111  C1118   1.413   .     A
C1112  O1142   1.397   .     S
C1112  O1141   1.222   .     D
C1113  C1119   1.499   .     S
C1113  O1144   1.399   .     S
C1113  O1143   1.223   .     D
C1114  O1145   1.223   .     D
C1114  O1146   1.398   .     S
C1115  C1119   1.408   .     A
C1116  C1117   1.393   .     A
C1116  C493    1.399   1_556 S
C1116  C503    1.421   1_556 S
C1117  H1134   1.084   .     S
C1117  C1118   1.387   .     A
C1118  H1123   1.083   .     S
C1120  H1121   1.084   .     S
H1125  O1140   1.014   .     S
H1126  O1142   1.014   .     S
H1127  O1144   1.014   .     S
H1128  O1214   1.014   .     S
H1135  C493    1.084   1_556 S
N1137  Zn1155  2.017   .     S
N1138  Zn1156  2.017   .     S
O1139  Zn1155  1.991   .     S
O1147  Zn1156  1.997   .     S
O1148  Zn1155  1.943   .     S
O1149  Zn1156  1.885   .     S
O1150  Zn1155  1.997   .     S
O1151  Zn1156  1.991   .     S
O1152  Zn1155  1.885   .     S
O1153  Zn1156  1.943   .     S
C1157  C1165   1.415   .     S
C1157  O1207   1.284   .     A
C1157  O1215   1.287   .     A
C1158  C1160   1.475   .     S
C1158  C1175   1.421   .     A
C1158  C1179   1.411   .     A
C1159  C1165   1.395   .     A
C1159  H1192   1.084   .     S
C1159  C753    1.371   1_565 S
C1160  O1217   1.304   .     A
C1160  O1216   1.293   .     A
C1161  C1162   1.397   .     A
C1161  H1197   1.084   .     S
C1162  C1163   1.395   .     A
C1162  C1171   1.415   .     S
C1163  H1198   1.084   .     S
C1164  H1199   1.084   .     S
C1164  C1165   1.397   .     A
C1164  C755    1.371   1_565 S
C1166  H1200   1.083   .     S
C1166  N1206   1.359   .     A
C1166  C1031   1.417   1_655 S
C1167  C1178   1.467   .     S
C1167  N1205   1.380   .     A
C1168  C1179   1.406   .     A
C1168  C565    1.411   1_556 S
C1168  C571    1.415   1_556 S
C1169  H1201   1.083   .     S
C1169  N1205   1.359   .     A
C1170  N1206   1.380   .     A
C1170  C1180   1.467   .     S
C1170  C1033   1.417   1_655 S
C1171  O1218   1.287   .     A
C1171  O1219   1.284   .     A
C1172  O1221   1.288   .     A
C1172  C1174   1.449   .     S
C1172  O1220   1.298   .     A
C1173  C1188   1.390   .     A
C1174  C1188   1.401   .     A
C1174  C1187   1.399   .     A
C1175  C1182   1.480   .     S
C1175  C564    1.398   1_556 S
C1176  H1190   1.084   .     S
C1176  C1177   1.389   .     A
C1177  H1204   1.081   .     S
C1178  O1208   1.396   .     S
C1178  O1222   1.222   .     D
C1179  C1186   1.413   .     A
C1180  O1210   1.397   .     S
C1180  O1209   1.222   .     D
C1181  C1187   1.499   .     S
C1181  O1212   1.399   .     S
C1181  O1211   1.223   .     D
C1182  O1213   1.223   .     D
C1182  O1214   1.398   .     S
C1183  C1187   1.408   .     A
C1184  C1185   1.393   .     A
C1184  C561    1.399   1_556 S
C1184  C571    1.421   1_556 S
C1185  H1202   1.084   .     S
C1185  C1186   1.387   .     A
C1186  H1191   1.083   .     S
C1188  H1189   1.084   .     S
H1193  O1208   1.014   .     S
H1194  O1210   1.014   .     S
H1195  O1212   1.014   .     S
H1196  O1078   1.014   1_655 S
H1203  C561    1.084   1_556 S
N1205  Zn1223  2.017   .     S
N1206  Zn1224  2.017   .     S
O1207  Zn1223  1.991   .     S
O1215  Zn1224  1.997   .     S
O1216  Zn1223  1.943   .     S
O1217  Zn1224  1.885   .     S
O1218  Zn1223  1.997   .     S
O1219  Zn1224  1.991   .     S
O1220  Zn1223  1.885   .     S
O1221  Zn1224  1.943   .     S
