data_str_m2_o2_o10_pcu_sym.11
_audit_creation_date              2020-01-03
_audit_creation_method            'Materials Studio'
_symmetry_space_group_name_H-M    'P1'
_symmetry_Int_Tables_number       1
_symmetry_cell_setting            triclinic
loop_
_symmetry_equiv_pos_as_xyz
  x,y,z
_cell_length_a                    26.1180
_cell_length_b                    30.3119
_cell_length_c                    27.8756
_cell_angle_alpha                 89.4449
_cell_angle_beta                  96.9744
_cell_angle_gamma                 92.0600
loop_
_atom_site_label
_atom_site_type_symbol
_atom_site_fract_x
_atom_site_fract_y
_atom_site_fract_z
_atom_site_U_iso_or_equiv
_atom_site_adp_type
_atom_site_occupancy
O1     O     0.16667   0.18573   0.29071   0.00000  Uiso   1.00
O2     O     0.16666   0.31428   0.20928   0.00000  Uiso   1.00
O3     O     0.16667   0.18573   0.20928   0.00000  Uiso   1.00
O4     O     0.16666   0.31427   0.29072   0.00000  Uiso   1.00
C5     C     0.16684   0.16513   0.25021   0.00000  Uiso   1.00
C6     C     0.16221   0.33499   0.24904   0.00000  Uiso   1.00
O7     O     0.09161   0.25000   0.28132   0.00000  Uiso   1.00
O8     O     0.24172   0.25001   0.21868   0.00000  Uiso   1.00
O9     O     0.09161   0.25000   0.19988   0.00000  Uiso   1.00
O10    O     0.24172   0.25000   0.30011   0.00000  Uiso   1.00
C11    C     0.06807   0.24957   0.23789   0.00000  Uiso   1.00
C12    C     0.26531   0.25041   0.26225   0.00000  Uiso   1.00
Cu13   Cu    0.16667   0.25000   0.29821   0.00000  Uiso   1.00
Cu14   Cu    0.16667   0.25001   0.20178   0.00000  Uiso   1.00
C15    C     0.01299   0.24725   0.23152   0.00000  Uiso   1.00
C16    C     0.32050   0.25177   0.26922   0.00000  Uiso   1.00
H17    H     0.32691   0.24073   0.19566   0.00000  Uiso   1.00
H18    H     0.00664   0.25691   0.30559   0.00000  Uiso   1.00
C19    C     0.20313   0.04744   0.27758   0.00000  Uiso   1.00
C20    C     0.15946   0.45382   0.20341   0.00000  Uiso   1.00
H21    H     0.23249   0.02909   0.29931   0.00000  Uiso   1.00
H22    H     0.16011   0.47265   0.17020   0.00000  Uiso   1.00
C23    C     0.20475   0.09357   0.27887   0.00000  Uiso   1.00
C24    C     0.15410   0.40775   0.20201   0.00000  Uiso   1.00
C25    C     0.16570   0.11686   0.25025   0.00000  Uiso   1.00
C26    C     0.15500   0.38362   0.24670   0.00000  Uiso   1.00
C27    C     0.12671   0.09343   0.21978   0.00000  Uiso   1.00
C28    C     0.15083   0.40767   0.28968   0.00000  Uiso   1.00
C29    C     0.12747   0.04752   0.21813   0.00000  Uiso   1.00
C30    C     0.15777   0.45352   0.28961   0.00000  Uiso   1.00
H31    H     0.09737   0.02924   0.19555   0.00000  Uiso   1.00
H32    H     0.15555   0.47208   0.32233   0.00000  Uiso   1.00
C33    C     0.16499   0.02462   0.24718   0.00000  Uiso   1.00
C34    C     0.16286   0.47640   0.24695   0.00000  Uiso   1.00
C35    C     0.20808   0.25932   0.05640   0.00000  Uiso   1.00
C36    C     0.14854   0.21412   0.44528   0.00000  Uiso   1.00
H37    H     0.24297   0.26633   0.03991   0.00000  Uiso   1.00
H38    H     0.13641   0.18441   0.46333   0.00000  Uiso   1.00
C39    C     0.20903   0.26337   0.10671   0.00000  Uiso   1.00
C40    C     0.14709   0.21438   0.39477   0.00000  Uiso   1.00
N41    N     0.16667   0.25001   0.12934   0.00000  Uiso   1.00
N42    N     0.16667   0.24999   0.37065   0.00000  Uiso   1.00
C43    C     0.12221   0.23705   0.10103   0.00000  Uiso   1.00
C44    C     0.18394   0.28673   0.39674   0.00000  Uiso   1.00
H45    H     0.08887   0.22663   0.11814   0.00000  Uiso   1.00
H46    H     0.19911   0.31474   0.37805   0.00000  Uiso   1.00
C47    C     0.11776   0.23872   0.04969   0.00000  Uiso   1.00
C48    C     0.18122   0.28951   0.44738   0.00000  Uiso   1.00
C49    C     0.16235   0.24978   0.02665   0.00000  Uiso   1.00
C50    C     0.16342   0.25180   0.47247   0.00000  Uiso   1.00
C51    C     0.25032   0.11658   0.30854   0.00000  Uiso   1.00
C52    C     0.29020   0.13334   0.27630   0.00000  Uiso   1.00
H53    H     0.27284   0.15627   0.24815   0.00000  Uiso   1.00
H54    H     0.32238   0.15113   0.29858   0.00000  Uiso   1.00
H55    H     0.30602   0.10516   0.25836   0.00000  Uiso   1.00
H56    H     0.23780   0.14408   0.32976   0.00000  Uiso   1.00
H57    H     0.26959   0.09344   0.33558   0.00000  Uiso   1.00
C58    C     0.14367   0.38725   0.15190   0.00000  Uiso   1.00
C59    C     0.08886   0.36712   0.14231   0.00000  Uiso   1.00
H60    H     0.08322   0.35158   0.10604   0.00000  Uiso   1.00
H61    H     0.08136   0.34158   0.16957   0.00000  Uiso   1.00
H62    H     0.06031   0.39332   0.14311   0.00000  Uiso   1.00
H63    H     0.14741   0.41260   0.12330   0.00000  Uiso   1.00
H64    H     0.17265   0.36304   0.14568   0.00000  Uiso   1.00
C65    C     0.08345   0.11547   0.19060   0.00000  Uiso   1.00
O66    O     0.06670   0.10124   0.15059   0.00000  Uiso   1.00
O67    O     0.06047   0.15132   0.20939   0.00000  Uiso   1.00
H68    H     0.03066   0.16257   0.18637   0.00000  Uiso   1.00
C69    C     0.13255   0.38784   0.33365   0.00000  Uiso   1.00
O70    O     0.09917   0.35829   0.33023   0.00000  Uiso   1.00
O71    O     0.14996   0.40602   0.37880   0.00000  Uiso   1.00
H72    H     0.13045   0.39323   0.40517   0.00000  Uiso   1.00
C73    C     0.25574   0.28622   0.13163   0.00000  Uiso   1.00
O74    O     0.29810   0.27867   0.11962   0.00000  Uiso   1.00
O75    O     0.25155   0.31951   0.16498   0.00000  Uiso   1.00
H76    H     0.28626   0.33338   0.17818   0.00000  Uiso   1.00
C77    C     0.12079   0.17595   0.36966   0.00000  Uiso   1.00
O78    O     0.08241   0.18082   0.34067   0.00000  Uiso   1.00
O79    O     0.13829   0.13363   0.38106   0.00000  Uiso   1.00
H80    H     0.11705   0.10983   0.36161   0.00000  Uiso   1.00
C81    C     0.06482   0.23003   0.02176   0.00000  Uiso   1.00
C82    C     0.04317   0.27178   0.49719   0.00000  Uiso   1.00
H83    H     0.04466   0.29907   0.02370   0.00000  Uiso   1.00
H84    H     0.06514   0.28195   0.46707   0.00000  Uiso   1.00
H85    H     0.00231   0.26526   0.48200   0.00000  Uiso   1.00
H86    H     0.06568   0.20369   0.49470   0.00000  Uiso   1.00
H87    H     0.03703   0.21780   0.04648   0.00000  Uiso   1.00
C88    C     0.19732   0.33301   0.47253   0.00000  Uiso   1.00
C89    C     0.15382   0.35286   0.49660   0.00000  Uiso   1.00
H90    H     0.11687   0.35090   0.47235   0.00000  Uiso   1.00
H91    H     0.14852   0.33576   0.03105   0.00000  Uiso   1.00
H92    H     0.16369   0.38809   0.00510   0.00000  Uiso   1.00
H93    H     0.23159   0.32913   0.49955   0.00000  Uiso   1.00
H94    H     0.20966   0.35762   0.44608   0.00000  Uiso   1.00
O95    O     0.50000   0.18573   0.29071   0.00000  Uiso   1.00
O96    O     0.50000   0.31428   0.20928   0.00000  Uiso   1.00
O97    O     0.50000   0.18573   0.20928   0.00000  Uiso   1.00
O98    O     0.50000   0.31427   0.29072   0.00000  Uiso   1.00
C99    C     0.50017   0.16513   0.25021   0.00000  Uiso   1.00
C100   C     0.49554   0.33499   0.24904   0.00000  Uiso   1.00
O101   O     0.42495   0.25000   0.28132   0.00000  Uiso   1.00
O102   O     0.57505   0.25001   0.21868   0.00000  Uiso   1.00
O103   O     0.42495   0.25000   0.19988   0.00000  Uiso   1.00
O104   O     0.57505   0.25000   0.30011   0.00000  Uiso   1.00
C105   C     0.40141   0.24957   0.23789   0.00000  Uiso   1.00
C106   C     0.59864   0.25041   0.26225   0.00000  Uiso   1.00
Cu107  Cu    0.50000   0.25000   0.29821   0.00000  Uiso   1.00
Cu108  Cu    0.50000   0.25001   0.20178   0.00000  Uiso   1.00
C109   C     0.34633   0.24725   0.23152   0.00000  Uiso   1.00
C110   C     0.65384   0.25177   0.26922   0.00000  Uiso   1.00
H111   H     0.66024   0.24073   0.19566   0.00000  Uiso   1.00
H112   H     0.33997   0.25691   0.30559   0.00000  Uiso   1.00
C113   C     0.53647   0.04744   0.27758   0.00000  Uiso   1.00
C114   C     0.49279   0.45382   0.20341   0.00000  Uiso   1.00
H115   H     0.56582   0.02909   0.29931   0.00000  Uiso   1.00
H116   H     0.49344   0.47265   0.17020   0.00000  Uiso   1.00
C117   C     0.53808   0.09357   0.27887   0.00000  Uiso   1.00
C118   C     0.48744   0.40775   0.20201   0.00000  Uiso   1.00
C119   C     0.49903   0.11686   0.25025   0.00000  Uiso   1.00
C120   C     0.48834   0.38362   0.24670   0.00000  Uiso   1.00
C121   C     0.46004   0.09343   0.21978   0.00000  Uiso   1.00
C122   C     0.48416   0.40767   0.28968   0.00000  Uiso   1.00
C123   C     0.46081   0.04752   0.21813   0.00000  Uiso   1.00
C124   C     0.49110   0.45352   0.28961   0.00000  Uiso   1.00
H125   H     0.43070   0.02924   0.19555   0.00000  Uiso   1.00
H126   H     0.48888   0.47208   0.32233   0.00000  Uiso   1.00
C127   C     0.49832   0.02462   0.24718   0.00000  Uiso   1.00
C128   C     0.49620   0.47640   0.24695   0.00000  Uiso   1.00
C129   C     0.54141   0.25932   0.05640   0.00000  Uiso   1.00
C130   C     0.48187   0.21412   0.44528   0.00000  Uiso   1.00
H131   H     0.57631   0.26633   0.03991   0.00000  Uiso   1.00
H132   H     0.46974   0.18441   0.46333   0.00000  Uiso   1.00
C133   C     0.54236   0.26337   0.10671   0.00000  Uiso   1.00
C134   C     0.48043   0.21438   0.39477   0.00000  Uiso   1.00
N135   N     0.50000   0.25001   0.12934   0.00000  Uiso   1.00
N136   N     0.50000   0.24999   0.37065   0.00000  Uiso   1.00
C137   C     0.45554   0.23705   0.10103   0.00000  Uiso   1.00
C138   C     0.51727   0.28673   0.39674   0.00000  Uiso   1.00
H139   H     0.42220   0.22663   0.11814   0.00000  Uiso   1.00
H140   H     0.53244   0.31474   0.37805   0.00000  Uiso   1.00
C141   C     0.45109   0.23872   0.04969   0.00000  Uiso   1.00
C142   C     0.51455   0.28951   0.44738   0.00000  Uiso   1.00
C143   C     0.49568   0.24978   0.02665   0.00000  Uiso   1.00
C144   C     0.49675   0.25180   0.47247   0.00000  Uiso   1.00
C145   C     0.58365   0.11658   0.30854   0.00000  Uiso   1.00
C146   C     0.62354   0.13334   0.27630   0.00000  Uiso   1.00
H147   H     0.60617   0.15627   0.24815   0.00000  Uiso   1.00
H148   H     0.65572   0.15113   0.29858   0.00000  Uiso   1.00
H149   H     0.63936   0.10516   0.25836   0.00000  Uiso   1.00
H150   H     0.57113   0.14408   0.32976   0.00000  Uiso   1.00
H151   H     0.60293   0.09344   0.33558   0.00000  Uiso   1.00
C152   C     0.47700   0.38725   0.15190   0.00000  Uiso   1.00
C153   C     0.42219   0.36712   0.14231   0.00000  Uiso   1.00
H154   H     0.41655   0.35158   0.10604   0.00000  Uiso   1.00
H155   H     0.41469   0.34158   0.16957   0.00000  Uiso   1.00
H156   H     0.39364   0.39332   0.14311   0.00000  Uiso   1.00
H157   H     0.48074   0.41260   0.12330   0.00000  Uiso   1.00
H158   H     0.50599   0.36304   0.14568   0.00000  Uiso   1.00
C159   C     0.41678   0.11547   0.19060   0.00000  Uiso   1.00
O160   O     0.40004   0.10124   0.15059   0.00000  Uiso   1.00
O161   O     0.39381   0.15132   0.20939   0.00000  Uiso   1.00
H162   H     0.36399   0.16257   0.18637   0.00000  Uiso   1.00
C163   C     0.46589   0.38784   0.33365   0.00000  Uiso   1.00
O164   O     0.43250   0.35829   0.33023   0.00000  Uiso   1.00
O165   O     0.48330   0.40602   0.37880   0.00000  Uiso   1.00
H166   H     0.46378   0.39323   0.40517   0.00000  Uiso   1.00
C167   C     0.58907   0.28622   0.13163   0.00000  Uiso   1.00
O168   O     0.63143   0.27867   0.11962   0.00000  Uiso   1.00
O169   O     0.58488   0.31951   0.16498   0.00000  Uiso   1.00
H170   H     0.61959   0.33338   0.17818   0.00000  Uiso   1.00
C171   C     0.45412   0.17595   0.36966   0.00000  Uiso   1.00
O172   O     0.41575   0.18082   0.34067   0.00000  Uiso   1.00
O173   O     0.47162   0.13363   0.38106   0.00000  Uiso   1.00
H174   H     0.45038   0.10983   0.36161   0.00000  Uiso   1.00
C175   C     0.39815   0.23003   0.02176   0.00000  Uiso   1.00
C176   C     0.37651   0.27178   0.49719   0.00000  Uiso   1.00
H177   H     0.37799   0.29907   0.02370   0.00000  Uiso   1.00
H178   H     0.39848   0.28195   0.46707   0.00000  Uiso   1.00
H179   H     0.33565   0.26526   0.48200   0.00000  Uiso   1.00
H180   H     0.39901   0.20369   0.49470   0.00000  Uiso   1.00
H181   H     0.37036   0.21780   0.04648   0.00000  Uiso   1.00
C182   C     0.53065   0.33301   0.47253   0.00000  Uiso   1.00
C183   C     0.48715   0.35286   0.49660   0.00000  Uiso   1.00
H184   H     0.45020   0.35090   0.47235   0.00000  Uiso   1.00
H185   H     0.48186   0.33576   0.03105   0.00000  Uiso   1.00
H186   H     0.49702   0.38809   0.00510   0.00000  Uiso   1.00
H187   H     0.56493   0.32913   0.49955   0.00000  Uiso   1.00
H188   H     0.54300   0.35762   0.44608   0.00000  Uiso   1.00
O189   O     0.83334   0.18573   0.29071   0.00000  Uiso   1.00
O190   O     0.83333   0.31428   0.20928   0.00000  Uiso   1.00
O191   O     0.83334   0.18573   0.20928   0.00000  Uiso   1.00
O192   O     0.83333   0.31427   0.29072   0.00000  Uiso   1.00
C193   C     0.83350   0.16513   0.25021   0.00000  Uiso   1.00
C194   C     0.82888   0.33499   0.24904   0.00000  Uiso   1.00
O195   O     0.75828   0.25000   0.28132   0.00000  Uiso   1.00
O196   O     0.90839   0.25001   0.21868   0.00000  Uiso   1.00
O197   O     0.75828   0.25000   0.19988   0.00000  Uiso   1.00
O198   O     0.90839   0.25000   0.30011   0.00000  Uiso   1.00
C199   C     0.73474   0.24957   0.23789   0.00000  Uiso   1.00
C200   C     0.93198   0.25041   0.26225   0.00000  Uiso   1.00
Cu201  Cu    0.83333   0.25000   0.29821   0.00000  Uiso   1.00
Cu202  Cu    0.83333   0.25001   0.20178   0.00000  Uiso   1.00
C203   C     0.67966   0.24725   0.23152   0.00000  Uiso   1.00
C204   C     0.98717   0.25177   0.26922   0.00000  Uiso   1.00
H205   H     0.99358   0.24073   0.19566   0.00000  Uiso   1.00
H206   H     0.67330   0.25691   0.30559   0.00000  Uiso   1.00
C207   C     0.86980   0.04744   0.27758   0.00000  Uiso   1.00
C208   C     0.82612   0.45382   0.20341   0.00000  Uiso   1.00
H209   H     0.89916   0.02909   0.29931   0.00000  Uiso   1.00
H210   H     0.82677   0.47265   0.17020   0.00000  Uiso   1.00
C211   C     0.87141   0.09357   0.27887   0.00000  Uiso   1.00
C212   C     0.82077   0.40775   0.20201   0.00000  Uiso   1.00
C213   C     0.83236   0.11686   0.25025   0.00000  Uiso   1.00
C214   C     0.82167   0.38362   0.24670   0.00000  Uiso   1.00
C215   C     0.79338   0.09343   0.21978   0.00000  Uiso   1.00
C216   C     0.81749   0.40767   0.28968   0.00000  Uiso   1.00
C217   C     0.79414   0.04752   0.21813   0.00000  Uiso   1.00
C218   C     0.82444   0.45352   0.28961   0.00000  Uiso   1.00
H219   H     0.76403   0.02924   0.19555   0.00000  Uiso   1.00
H220   H     0.82221   0.47208   0.32233   0.00000  Uiso   1.00
C221   C     0.83166   0.02462   0.24718   0.00000  Uiso   1.00
C222   C     0.82953   0.47640   0.24695   0.00000  Uiso   1.00
C223   C     0.87474   0.25932   0.05640   0.00000  Uiso   1.00
C224   C     0.81521   0.21412   0.44528   0.00000  Uiso   1.00
H225   H     0.90964   0.26633   0.03991   0.00000  Uiso   1.00
H226   H     0.80308   0.18441   0.46333   0.00000  Uiso   1.00
C227   C     0.87570   0.26337   0.10671   0.00000  Uiso   1.00
C228   C     0.81376   0.21438   0.39477   0.00000  Uiso   1.00
N229   N     0.83333   0.25001   0.12934   0.00000  Uiso   1.00
N230   N     0.83333   0.24999   0.37065   0.00000  Uiso   1.00
C231   C     0.78888   0.23705   0.10103   0.00000  Uiso   1.00
C232   C     0.85060   0.28673   0.39674   0.00000  Uiso   1.00
H233   H     0.75553   0.22663   0.11814   0.00000  Uiso   1.00
H234   H     0.86577   0.31474   0.37805   0.00000  Uiso   1.00
C235   C     0.78442   0.23872   0.04969   0.00000  Uiso   1.00
C236   C     0.84788   0.28951   0.44738   0.00000  Uiso   1.00
C237   C     0.82901   0.24978   0.02665   0.00000  Uiso   1.00
C238   C     0.83009   0.25180   0.47247   0.00000  Uiso   1.00
C239   C     0.91698   0.11658   0.30854   0.00000  Uiso   1.00
C240   C     0.95687   0.13334   0.27630   0.00000  Uiso   1.00
H241   H     0.93951   0.15627   0.24815   0.00000  Uiso   1.00
H242   H     0.98905   0.15113   0.29858   0.00000  Uiso   1.00
H243   H     0.97269   0.10516   0.25836   0.00000  Uiso   1.00
H244   H     0.90446   0.14408   0.32976   0.00000  Uiso   1.00
H245   H     0.93626   0.09344   0.33558   0.00000  Uiso   1.00
C246   C     0.81033   0.38725   0.15190   0.00000  Uiso   1.00
C247   C     0.75552   0.36712   0.14231   0.00000  Uiso   1.00
H248   H     0.74989   0.35158   0.10604   0.00000  Uiso   1.00
H249   H     0.74803   0.34158   0.16957   0.00000  Uiso   1.00
H250   H     0.72698   0.39332   0.14311   0.00000  Uiso   1.00
H251   H     0.81407   0.41260   0.12330   0.00000  Uiso   1.00
H252   H     0.83932   0.36304   0.14568   0.00000  Uiso   1.00
C253   C     0.75012   0.11547   0.19060   0.00000  Uiso   1.00
O254   O     0.73337   0.10124   0.15059   0.00000  Uiso   1.00
O255   O     0.72714   0.15132   0.20939   0.00000  Uiso   1.00
H256   H     0.69733   0.16257   0.18637   0.00000  Uiso   1.00
C257   C     0.79922   0.38784   0.33365   0.00000  Uiso   1.00
O258   O     0.76584   0.35829   0.33023   0.00000  Uiso   1.00
O259   O     0.81663   0.40602   0.37880   0.00000  Uiso   1.00
H260   H     0.79712   0.39323   0.40517   0.00000  Uiso   1.00
C261   C     0.92240   0.28622   0.13163   0.00000  Uiso   1.00
O262   O     0.96476   0.27867   0.11962   0.00000  Uiso   1.00
O263   O     0.91821   0.31951   0.16498   0.00000  Uiso   1.00
H264   H     0.95292   0.33338   0.17818   0.00000  Uiso   1.00
C265   C     0.78745   0.17595   0.36966   0.00000  Uiso   1.00
O266   O     0.74908   0.18082   0.34067   0.00000  Uiso   1.00
O267   O     0.80495   0.13363   0.38106   0.00000  Uiso   1.00
H268   H     0.78372   0.10983   0.36161   0.00000  Uiso   1.00
C269   C     0.73149   0.23003   0.02176   0.00000  Uiso   1.00
C270   C     0.70984   0.27178   0.49719   0.00000  Uiso   1.00
H271   H     0.71132   0.29907   0.02370   0.00000  Uiso   1.00
H272   H     0.73181   0.28195   0.46707   0.00000  Uiso   1.00
H273   H     0.66898   0.26526   0.48200   0.00000  Uiso   1.00
H274   H     0.73235   0.20369   0.49470   0.00000  Uiso   1.00
H275   H     0.70369   0.21780   0.04648   0.00000  Uiso   1.00
C276   C     0.86399   0.33301   0.47253   0.00000  Uiso   1.00
C277   C     0.82049   0.35286   0.49660   0.00000  Uiso   1.00
H278   H     0.78353   0.35090   0.47235   0.00000  Uiso   1.00
H279   H     0.81519   0.33576   0.03105   0.00000  Uiso   1.00
H280   H     0.83036   0.38809   0.00510   0.00000  Uiso   1.00
H281   H     0.89826   0.32913   0.49955   0.00000  Uiso   1.00
H282   H     0.87633   0.35762   0.44608   0.00000  Uiso   1.00
O283   O     0.16667   0.68573   0.29071   0.00000  Uiso   1.00
O284   O     0.16666   0.81428   0.20928   0.00000  Uiso   1.00
O285   O     0.16667   0.68573   0.20928   0.00000  Uiso   1.00
O286   O     0.16666   0.81427   0.29072   0.00000  Uiso   1.00
C287   C     0.16684   0.66513   0.25021   0.00000  Uiso   1.00
C288   C     0.16221   0.83499   0.24904   0.00000  Uiso   1.00
O289   O     0.09161   0.75000   0.28132   0.00000  Uiso   1.00
O290   O     0.24172   0.75001   0.21868   0.00000  Uiso   1.00
O291   O     0.09161   0.75000   0.19988   0.00000  Uiso   1.00
O292   O     0.24172   0.75000   0.30011   0.00000  Uiso   1.00
C293   C     0.06807   0.74957   0.23789   0.00000  Uiso   1.00
C294   C     0.26531   0.75041   0.26225   0.00000  Uiso   1.00
Cu295  Cu    0.16667   0.75000   0.29821   0.00000  Uiso   1.00
Cu296  Cu    0.16667   0.75001   0.20178   0.00000  Uiso   1.00
C297   C     0.01299   0.74725   0.23152   0.00000  Uiso   1.00
C298   C     0.32050   0.75177   0.26922   0.00000  Uiso   1.00
H299   H     0.32691   0.74073   0.19566   0.00000  Uiso   1.00
H300   H     0.00664   0.75691   0.30559   0.00000  Uiso   1.00
C301   C     0.20313   0.54744   0.27758   0.00000  Uiso   1.00
C302   C     0.15946   0.95382   0.20341   0.00000  Uiso   1.00
H303   H     0.23249   0.52909   0.29931   0.00000  Uiso   1.00
H304   H     0.16011   0.97265   0.17020   0.00000  Uiso   1.00
C305   C     0.20475   0.59357   0.27887   0.00000  Uiso   1.00
C306   C     0.15410   0.90775   0.20201   0.00000  Uiso   1.00
C307   C     0.16570   0.61686   0.25025   0.00000  Uiso   1.00
C308   C     0.15500   0.88362   0.24670   0.00000  Uiso   1.00
C309   C     0.12671   0.59343   0.21978   0.00000  Uiso   1.00
C310   C     0.15083   0.90767   0.28968   0.00000  Uiso   1.00
C311   C     0.12747   0.54752   0.21813   0.00000  Uiso   1.00
C312   C     0.15777   0.95352   0.28961   0.00000  Uiso   1.00
H313   H     0.09737   0.52924   0.19555   0.00000  Uiso   1.00
H314   H     0.15555   0.97208   0.32233   0.00000  Uiso   1.00
C315   C     0.16499   0.52462   0.24718   0.00000  Uiso   1.00
C316   C     0.16286   0.97640   0.24695   0.00000  Uiso   1.00
C317   C     0.20808   0.75932   0.05640   0.00000  Uiso   1.00
C318   C     0.14854   0.71412   0.44528   0.00000  Uiso   1.00
H319   H     0.24297   0.76633   0.03991   0.00000  Uiso   1.00
H320   H     0.13641   0.68441   0.46333   0.00000  Uiso   1.00
C321   C     0.20903   0.76337   0.10671   0.00000  Uiso   1.00
C322   C     0.14709   0.71438   0.39477   0.00000  Uiso   1.00
N323   N     0.16667   0.75001   0.12934   0.00000  Uiso   1.00
N324   N     0.16667   0.74999   0.37065   0.00000  Uiso   1.00
C325   C     0.12221   0.73705   0.10103   0.00000  Uiso   1.00
C326   C     0.18394   0.78673   0.39674   0.00000  Uiso   1.00
H327   H     0.08887   0.72663   0.11814   0.00000  Uiso   1.00
H328   H     0.19911   0.81474   0.37805   0.00000  Uiso   1.00
C329   C     0.11776   0.73872   0.04969   0.00000  Uiso   1.00
C330   C     0.18122   0.78951   0.44738   0.00000  Uiso   1.00
C331   C     0.16235   0.74978   0.02665   0.00000  Uiso   1.00
C332   C     0.16342   0.75180   0.47247   0.00000  Uiso   1.00
C333   C     0.25032   0.61658   0.30854   0.00000  Uiso   1.00
C334   C     0.29020   0.63334   0.27630   0.00000  Uiso   1.00
H335   H     0.27284   0.65627   0.24815   0.00000  Uiso   1.00
H336   H     0.32238   0.65113   0.29858   0.00000  Uiso   1.00
H337   H     0.30602   0.60516   0.25836   0.00000  Uiso   1.00
H338   H     0.23780   0.64408   0.32976   0.00000  Uiso   1.00
H339   H     0.26959   0.59344   0.33558   0.00000  Uiso   1.00
C340   C     0.14367   0.88725   0.15190   0.00000  Uiso   1.00
C341   C     0.08886   0.86712   0.14231   0.00000  Uiso   1.00
H342   H     0.08322   0.85158   0.10604   0.00000  Uiso   1.00
H343   H     0.08136   0.84158   0.16957   0.00000  Uiso   1.00
H344   H     0.06031   0.89332   0.14311   0.00000  Uiso   1.00
H345   H     0.14741   0.91260   0.12330   0.00000  Uiso   1.00
H346   H     0.17265   0.86304   0.14568   0.00000  Uiso   1.00
C347   C     0.08345   0.61547   0.19060   0.00000  Uiso   1.00
O348   O     0.06670   0.60124   0.15059   0.00000  Uiso   1.00
O349   O     0.06047   0.65132   0.20939   0.00000  Uiso   1.00
H350   H     0.03066   0.66257   0.18637   0.00000  Uiso   1.00
C351   C     0.13255   0.88784   0.33365   0.00000  Uiso   1.00
O352   O     0.09917   0.85829   0.33023   0.00000  Uiso   1.00
O353   O     0.14996   0.90602   0.37880   0.00000  Uiso   1.00
H354   H     0.13045   0.89323   0.40517   0.00000  Uiso   1.00
C355   C     0.25574   0.78622   0.13163   0.00000  Uiso   1.00
O356   O     0.29810   0.77867   0.11962   0.00000  Uiso   1.00
O357   O     0.25155   0.81951   0.16498   0.00000  Uiso   1.00
H358   H     0.28626   0.83338   0.17818   0.00000  Uiso   1.00
C359   C     0.12079   0.67595   0.36966   0.00000  Uiso   1.00
O360   O     0.08241   0.68082   0.34067   0.00000  Uiso   1.00
O361   O     0.13829   0.63363   0.38106   0.00000  Uiso   1.00
H362   H     0.11705   0.60983   0.36161   0.00000  Uiso   1.00
C363   C     0.06482   0.73003   0.02176   0.00000  Uiso   1.00
C364   C     0.04317   0.77178   0.49719   0.00000  Uiso   1.00
H365   H     0.04466   0.79907   0.02370   0.00000  Uiso   1.00
H366   H     0.06514   0.78195   0.46707   0.00000  Uiso   1.00
H367   H     0.00231   0.76526   0.48200   0.00000  Uiso   1.00
H368   H     0.06568   0.70369   0.49470   0.00000  Uiso   1.00
H369   H     0.03703   0.71780   0.04648   0.00000  Uiso   1.00
C370   C     0.19732   0.83301   0.47253   0.00000  Uiso   1.00
C371   C     0.15382   0.85286   0.49660   0.00000  Uiso   1.00
H372   H     0.11687   0.85090   0.47235   0.00000  Uiso   1.00
H373   H     0.14852   0.83576   0.03105   0.00000  Uiso   1.00
H374   H     0.16369   0.88809   0.00510   0.00000  Uiso   1.00
H375   H     0.23159   0.82913   0.49955   0.00000  Uiso   1.00
H376   H     0.20966   0.85762   0.44608   0.00000  Uiso   1.00
O377   O     0.50000   0.68573   0.29071   0.00000  Uiso   1.00
O378   O     0.50000   0.81428   0.20928   0.00000  Uiso   1.00
O379   O     0.50000   0.68573   0.20928   0.00000  Uiso   1.00
O380   O     0.50000   0.81427   0.29072   0.00000  Uiso   1.00
C381   C     0.50017   0.66513   0.25021   0.00000  Uiso   1.00
C382   C     0.49554   0.83499   0.24904   0.00000  Uiso   1.00
O383   O     0.42495   0.75000   0.28132   0.00000  Uiso   1.00
O384   O     0.57505   0.75001   0.21868   0.00000  Uiso   1.00
O385   O     0.42495   0.75000   0.19988   0.00000  Uiso   1.00
O386   O     0.57505   0.75000   0.30011   0.00000  Uiso   1.00
C387   C     0.40141   0.74957   0.23789   0.00000  Uiso   1.00
C388   C     0.59864   0.75041   0.26225   0.00000  Uiso   1.00
Cu389  Cu    0.50000   0.75000   0.29821   0.00000  Uiso   1.00
Cu390  Cu    0.50000   0.75001   0.20178   0.00000  Uiso   1.00
C391   C     0.34633   0.74725   0.23152   0.00000  Uiso   1.00
C392   C     0.65384   0.75177   0.26922   0.00000  Uiso   1.00
H393   H     0.66024   0.74073   0.19566   0.00000  Uiso   1.00
H394   H     0.33997   0.75691   0.30559   0.00000  Uiso   1.00
C395   C     0.53647   0.54744   0.27758   0.00000  Uiso   1.00
C396   C     0.49279   0.95382   0.20341   0.00000  Uiso   1.00
H397   H     0.56582   0.52909   0.29931   0.00000  Uiso   1.00
H398   H     0.49344   0.97265   0.17020   0.00000  Uiso   1.00
C399   C     0.53808   0.59357   0.27887   0.00000  Uiso   1.00
C400   C     0.48744   0.90775   0.20201   0.00000  Uiso   1.00
C401   C     0.49903   0.61686   0.25025   0.00000  Uiso   1.00
C402   C     0.48834   0.88362   0.24670   0.00000  Uiso   1.00
C403   C     0.46004   0.59343   0.21978   0.00000  Uiso   1.00
C404   C     0.48416   0.90767   0.28968   0.00000  Uiso   1.00
C405   C     0.46081   0.54752   0.21813   0.00000  Uiso   1.00
C406   C     0.49110   0.95352   0.28961   0.00000  Uiso   1.00
H407   H     0.43070   0.52924   0.19555   0.00000  Uiso   1.00
H408   H     0.48888   0.97208   0.32233   0.00000  Uiso   1.00
C409   C     0.49832   0.52462   0.24718   0.00000  Uiso   1.00
C410   C     0.49620   0.97640   0.24695   0.00000  Uiso   1.00
C411   C     0.54141   0.75932   0.05640   0.00000  Uiso   1.00
C412   C     0.48187   0.71412   0.44528   0.00000  Uiso   1.00
H413   H     0.57631   0.76633   0.03991   0.00000  Uiso   1.00
H414   H     0.46974   0.68441   0.46333   0.00000  Uiso   1.00
C415   C     0.54236   0.76337   0.10671   0.00000  Uiso   1.00
C416   C     0.48043   0.71438   0.39477   0.00000  Uiso   1.00
N417   N     0.50000   0.75001   0.12934   0.00000  Uiso   1.00
N418   N     0.50000   0.74999   0.37065   0.00000  Uiso   1.00
C419   C     0.45554   0.73705   0.10103   0.00000  Uiso   1.00
C420   C     0.51727   0.78673   0.39674   0.00000  Uiso   1.00
H421   H     0.42220   0.72663   0.11814   0.00000  Uiso   1.00
H422   H     0.53244   0.81474   0.37805   0.00000  Uiso   1.00
C423   C     0.45109   0.73872   0.04969   0.00000  Uiso   1.00
C424   C     0.51455   0.78951   0.44738   0.00000  Uiso   1.00
C425   C     0.49568   0.74978   0.02665   0.00000  Uiso   1.00
C426   C     0.49675   0.75180   0.47247   0.00000  Uiso   1.00
C427   C     0.58365   0.61658   0.30854   0.00000  Uiso   1.00
C428   C     0.62354   0.63334   0.27630   0.00000  Uiso   1.00
H429   H     0.60617   0.65627   0.24815   0.00000  Uiso   1.00
H430   H     0.65572   0.65113   0.29858   0.00000  Uiso   1.00
H431   H     0.63936   0.60516   0.25836   0.00000  Uiso   1.00
H432   H     0.57113   0.64408   0.32976   0.00000  Uiso   1.00
H433   H     0.60293   0.59344   0.33558   0.00000  Uiso   1.00
C434   C     0.47700   0.88725   0.15190   0.00000  Uiso   1.00
C435   C     0.42219   0.86712   0.14231   0.00000  Uiso   1.00
H436   H     0.41655   0.85158   0.10604   0.00000  Uiso   1.00
H437   H     0.41469   0.84158   0.16957   0.00000  Uiso   1.00
H438   H     0.39364   0.89332   0.14311   0.00000  Uiso   1.00
H439   H     0.48074   0.91260   0.12330   0.00000  Uiso   1.00
H440   H     0.50599   0.86304   0.14568   0.00000  Uiso   1.00
C441   C     0.41678   0.61547   0.19060   0.00000  Uiso   1.00
O442   O     0.40004   0.60124   0.15059   0.00000  Uiso   1.00
O443   O     0.39381   0.65132   0.20939   0.00000  Uiso   1.00
H444   H     0.36399   0.66257   0.18637   0.00000  Uiso   1.00
C445   C     0.46589   0.88784   0.33365   0.00000  Uiso   1.00
O446   O     0.43250   0.85829   0.33023   0.00000  Uiso   1.00
O447   O     0.48330   0.90602   0.37880   0.00000  Uiso   1.00
H448   H     0.46378   0.89323   0.40517   0.00000  Uiso   1.00
C449   C     0.58907   0.78622   0.13163   0.00000  Uiso   1.00
O450   O     0.63143   0.77867   0.11962   0.00000  Uiso   1.00
O451   O     0.58488   0.81951   0.16498   0.00000  Uiso   1.00
H452   H     0.61959   0.83338   0.17818   0.00000  Uiso   1.00
C453   C     0.45412   0.67595   0.36966   0.00000  Uiso   1.00
O454   O     0.41575   0.68082   0.34067   0.00000  Uiso   1.00
O455   O     0.47162   0.63363   0.38106   0.00000  Uiso   1.00
H456   H     0.45038   0.60983   0.36161   0.00000  Uiso   1.00
C457   C     0.39815   0.73003   0.02176   0.00000  Uiso   1.00
C458   C     0.37651   0.77178   0.49719   0.00000  Uiso   1.00
H459   H     0.37799   0.79907   0.02370   0.00000  Uiso   1.00
H460   H     0.39848   0.78195   0.46707   0.00000  Uiso   1.00
H461   H     0.33565   0.76526   0.48200   0.00000  Uiso   1.00
H462   H     0.39901   0.70369   0.49470   0.00000  Uiso   1.00
H463   H     0.37036   0.71780   0.04648   0.00000  Uiso   1.00
C464   C     0.53065   0.83301   0.47253   0.00000  Uiso   1.00
C465   C     0.48715   0.85286   0.49660   0.00000  Uiso   1.00
H466   H     0.45020   0.85090   0.47235   0.00000  Uiso   1.00
H467   H     0.48186   0.83576   0.03105   0.00000  Uiso   1.00
H468   H     0.49702   0.88809   0.00510   0.00000  Uiso   1.00
H469   H     0.56493   0.82913   0.49955   0.00000  Uiso   1.00
H470   H     0.54300   0.85762   0.44608   0.00000  Uiso   1.00
O471   O     0.83334   0.68573   0.29071   0.00000  Uiso   1.00
O472   O     0.83333   0.81428   0.20928   0.00000  Uiso   1.00
O473   O     0.83334   0.68573   0.20928   0.00000  Uiso   1.00
O474   O     0.83333   0.81427   0.29072   0.00000  Uiso   1.00
C475   C     0.83350   0.66513   0.25021   0.00000  Uiso   1.00
C476   C     0.82888   0.83499   0.24904   0.00000  Uiso   1.00
O477   O     0.75828   0.75000   0.28132   0.00000  Uiso   1.00
O478   O     0.90839   0.75001   0.21868   0.00000  Uiso   1.00
O479   O     0.75828   0.75000   0.19988   0.00000  Uiso   1.00
O480   O     0.90839   0.75000   0.30011   0.00000  Uiso   1.00
C481   C     0.73474   0.74957   0.23789   0.00000  Uiso   1.00
C482   C     0.93198   0.75041   0.26225   0.00000  Uiso   1.00
Cu483  Cu    0.83333   0.75000   0.29821   0.00000  Uiso   1.00
Cu484  Cu    0.83333   0.75001   0.20178   0.00000  Uiso   1.00
C485   C     0.67966   0.74725   0.23152   0.00000  Uiso   1.00
C486   C     0.98717   0.75177   0.26922   0.00000  Uiso   1.00
H487   H     0.99358   0.74073   0.19566   0.00000  Uiso   1.00
H488   H     0.67330   0.75691   0.30559   0.00000  Uiso   1.00
C489   C     0.86980   0.54744   0.27758   0.00000  Uiso   1.00
C490   C     0.82612   0.95382   0.20341   0.00000  Uiso   1.00
H491   H     0.89916   0.52909   0.29931   0.00000  Uiso   1.00
H492   H     0.82677   0.97265   0.17020   0.00000  Uiso   1.00
C493   C     0.87141   0.59357   0.27887   0.00000  Uiso   1.00
C494   C     0.82077   0.90775   0.20201   0.00000  Uiso   1.00
C495   C     0.83236   0.61686   0.25025   0.00000  Uiso   1.00
C496   C     0.82167   0.88362   0.24670   0.00000  Uiso   1.00
C497   C     0.79338   0.59343   0.21978   0.00000  Uiso   1.00
C498   C     0.81749   0.90767   0.28968   0.00000  Uiso   1.00
C499   C     0.79414   0.54752   0.21813   0.00000  Uiso   1.00
C500   C     0.82444   0.95352   0.28961   0.00000  Uiso   1.00
H501   H     0.76403   0.52924   0.19555   0.00000  Uiso   1.00
H502   H     0.82221   0.97208   0.32233   0.00000  Uiso   1.00
C503   C     0.83166   0.52462   0.24718   0.00000  Uiso   1.00
C504   C     0.82953   0.97640   0.24695   0.00000  Uiso   1.00
C505   C     0.87474   0.75932   0.05640   0.00000  Uiso   1.00
C506   C     0.81521   0.71412   0.44528   0.00000  Uiso   1.00
H507   H     0.90964   0.76633   0.03991   0.00000  Uiso   1.00
H508   H     0.80308   0.68441   0.46333   0.00000  Uiso   1.00
C509   C     0.87570   0.76337   0.10671   0.00000  Uiso   1.00
C510   C     0.81376   0.71438   0.39477   0.00000  Uiso   1.00
N511   N     0.83333   0.75001   0.12934   0.00000  Uiso   1.00
N512   N     0.83333   0.74999   0.37065   0.00000  Uiso   1.00
C513   C     0.78888   0.73705   0.10103   0.00000  Uiso   1.00
C514   C     0.85060   0.78673   0.39674   0.00000  Uiso   1.00
H515   H     0.75553   0.72663   0.11814   0.00000  Uiso   1.00
H516   H     0.86577   0.81474   0.37805   0.00000  Uiso   1.00
C517   C     0.78442   0.73872   0.04969   0.00000  Uiso   1.00
C518   C     0.84788   0.78951   0.44738   0.00000  Uiso   1.00
C519   C     0.82901   0.74978   0.02665   0.00000  Uiso   1.00
C520   C     0.83009   0.75180   0.47247   0.00000  Uiso   1.00
C521   C     0.91698   0.61658   0.30854   0.00000  Uiso   1.00
C522   C     0.95687   0.63334   0.27630   0.00000  Uiso   1.00
H523   H     0.93951   0.65627   0.24815   0.00000  Uiso   1.00
H524   H     0.98905   0.65113   0.29858   0.00000  Uiso   1.00
H525   H     0.97269   0.60516   0.25836   0.00000  Uiso   1.00
H526   H     0.90446   0.64408   0.32976   0.00000  Uiso   1.00
H527   H     0.93626   0.59344   0.33558   0.00000  Uiso   1.00
C528   C     0.81033   0.88725   0.15190   0.00000  Uiso   1.00
C529   C     0.75552   0.86712   0.14231   0.00000  Uiso   1.00
H530   H     0.74989   0.85158   0.10604   0.00000  Uiso   1.00
H531   H     0.74803   0.84158   0.16957   0.00000  Uiso   1.00
H532   H     0.72698   0.89332   0.14311   0.00000  Uiso   1.00
H533   H     0.81407   0.91260   0.12330   0.00000  Uiso   1.00
H534   H     0.83932   0.86304   0.14568   0.00000  Uiso   1.00
C535   C     0.75012   0.61547   0.19060   0.00000  Uiso   1.00
O536   O     0.73337   0.60124   0.15059   0.00000  Uiso   1.00
O537   O     0.72714   0.65132   0.20939   0.00000  Uiso   1.00
H538   H     0.69733   0.66257   0.18637   0.00000  Uiso   1.00
C539   C     0.79922   0.88784   0.33365   0.00000  Uiso   1.00
O540   O     0.76584   0.85829   0.33023   0.00000  Uiso   1.00
O541   O     0.81663   0.90602   0.37880   0.00000  Uiso   1.00
H542   H     0.79712   0.89323   0.40517   0.00000  Uiso   1.00
C543   C     0.92240   0.78622   0.13163   0.00000  Uiso   1.00
O544   O     0.96476   0.77867   0.11962   0.00000  Uiso   1.00
O545   O     0.91821   0.81951   0.16498   0.00000  Uiso   1.00
H546   H     0.95292   0.83338   0.17818   0.00000  Uiso   1.00
C547   C     0.78745   0.67595   0.36966   0.00000  Uiso   1.00
O548   O     0.74908   0.68082   0.34067   0.00000  Uiso   1.00
O549   O     0.80495   0.63363   0.38106   0.00000  Uiso   1.00
H550   H     0.78372   0.60983   0.36161   0.00000  Uiso   1.00
C551   C     0.73149   0.73003   0.02176   0.00000  Uiso   1.00
C552   C     0.70984   0.77178   0.49719   0.00000  Uiso   1.00
H553   H     0.71132   0.79907   0.02370   0.00000  Uiso   1.00
H554   H     0.73181   0.78195   0.46707   0.00000  Uiso   1.00
H555   H     0.66898   0.76526   0.48200   0.00000  Uiso   1.00
H556   H     0.73235   0.70369   0.49470   0.00000  Uiso   1.00
H557   H     0.70369   0.71780   0.04648   0.00000  Uiso   1.00
C558   C     0.86399   0.83301   0.47253   0.00000  Uiso   1.00
C559   C     0.82049   0.85286   0.49660   0.00000  Uiso   1.00
H560   H     0.78353   0.85090   0.47235   0.00000  Uiso   1.00
H561   H     0.81519   0.83576   0.03105   0.00000  Uiso   1.00
H562   H     0.83036   0.88809   0.00510   0.00000  Uiso   1.00
H563   H     0.89826   0.82913   0.49955   0.00000  Uiso   1.00
H564   H     0.87633   0.85762   0.44608   0.00000  Uiso   1.00
O565   O     0.16667   0.18573   0.79071   0.00000  Uiso   1.00
O566   O     0.16666   0.31428   0.70928   0.00000  Uiso   1.00
O567   O     0.16667   0.18573   0.70928   0.00000  Uiso   1.00
O568   O     0.16666   0.31427   0.79072   0.00000  Uiso   1.00
C569   C     0.16684   0.16513   0.75021   0.00000  Uiso   1.00
C570   C     0.16221   0.33499   0.74904   0.00000  Uiso   1.00
O571   O     0.09161   0.25000   0.78132   0.00000  Uiso   1.00
O572   O     0.24172   0.25001   0.71868   0.00000  Uiso   1.00
O573   O     0.09161   0.25000   0.69988   0.00000  Uiso   1.00
O574   O     0.24172   0.25000   0.80011   0.00000  Uiso   1.00
C575   C     0.06807   0.24957   0.73789   0.00000  Uiso   1.00
C576   C     0.26531   0.25041   0.76225   0.00000  Uiso   1.00
Cu577  Cu    0.16667   0.25000   0.79821   0.00000  Uiso   1.00
Cu578  Cu    0.16667   0.25001   0.70178   0.00000  Uiso   1.00
C579   C     0.01299   0.24725   0.73152   0.00000  Uiso   1.00
C580   C     0.32050   0.25177   0.76922   0.00000  Uiso   1.00
H581   H     0.32691   0.24073   0.69566   0.00000  Uiso   1.00
H582   H     0.00664   0.25691   0.80559   0.00000  Uiso   1.00
C583   C     0.20313   0.04744   0.77758   0.00000  Uiso   1.00
C584   C     0.15946   0.45382   0.70341   0.00000  Uiso   1.00
H585   H     0.23249   0.02909   0.79931   0.00000  Uiso   1.00
H586   H     0.16011   0.47265   0.67020   0.00000  Uiso   1.00
C587   C     0.20475   0.09357   0.77887   0.00000  Uiso   1.00
C588   C     0.15410   0.40775   0.70201   0.00000  Uiso   1.00
C589   C     0.16570   0.11686   0.75025   0.00000  Uiso   1.00
C590   C     0.15500   0.38362   0.74670   0.00000  Uiso   1.00
C591   C     0.12671   0.09343   0.71978   0.00000  Uiso   1.00
C592   C     0.15083   0.40767   0.78968   0.00000  Uiso   1.00
C593   C     0.12747   0.04752   0.71813   0.00000  Uiso   1.00
C594   C     0.15777   0.45352   0.78961   0.00000  Uiso   1.00
H595   H     0.09737   0.02924   0.69555   0.00000  Uiso   1.00
H596   H     0.15555   0.47208   0.82233   0.00000  Uiso   1.00
C597   C     0.16499   0.02462   0.74718   0.00000  Uiso   1.00
C598   C     0.16286   0.47640   0.74695   0.00000  Uiso   1.00
C599   C     0.20808   0.25932   0.55640   0.00000  Uiso   1.00
C600   C     0.14854   0.21412   0.94528   0.00000  Uiso   1.00
H601   H     0.24297   0.26633   0.53991   0.00000  Uiso   1.00
H602   H     0.13641   0.18441   0.96333   0.00000  Uiso   1.00
C603   C     0.20903   0.26337   0.60671   0.00000  Uiso   1.00
C604   C     0.14709   0.21438   0.89477   0.00000  Uiso   1.00
N605   N     0.16667   0.25001   0.62934   0.00000  Uiso   1.00
N606   N     0.16667   0.24999   0.87065   0.00000  Uiso   1.00
C607   C     0.12221   0.23705   0.60103   0.00000  Uiso   1.00
C608   C     0.18394   0.28673   0.89674   0.00000  Uiso   1.00
H609   H     0.08887   0.22663   0.61814   0.00000  Uiso   1.00
H610   H     0.19911   0.31474   0.87805   0.00000  Uiso   1.00
C611   C     0.11776   0.23872   0.54969   0.00000  Uiso   1.00
C612   C     0.18122   0.28951   0.94738   0.00000  Uiso   1.00
C613   C     0.16235   0.24978   0.52665   0.00000  Uiso   1.00
C614   C     0.16342   0.25180   0.97247   0.00000  Uiso   1.00
C615   C     0.25032   0.11658   0.80854   0.00000  Uiso   1.00
C616   C     0.29020   0.13334   0.77630   0.00000  Uiso   1.00
H617   H     0.27284   0.15627   0.74815   0.00000  Uiso   1.00
H618   H     0.32238   0.15113   0.79858   0.00000  Uiso   1.00
H619   H     0.30602   0.10516   0.75836   0.00000  Uiso   1.00
H620   H     0.23780   0.14408   0.82976   0.00000  Uiso   1.00
H621   H     0.26959   0.09344   0.83558   0.00000  Uiso   1.00
C622   C     0.14367   0.38725   0.65190   0.00000  Uiso   1.00
C623   C     0.08886   0.36712   0.64231   0.00000  Uiso   1.00
H624   H     0.08322   0.35158   0.60604   0.00000  Uiso   1.00
H625   H     0.08136   0.34158   0.66957   0.00000  Uiso   1.00
H626   H     0.06031   0.39332   0.64311   0.00000  Uiso   1.00
H627   H     0.14741   0.41260   0.62330   0.00000  Uiso   1.00
H628   H     0.17265   0.36304   0.64568   0.00000  Uiso   1.00
C629   C     0.08345   0.11547   0.69060   0.00000  Uiso   1.00
O630   O     0.06670   0.10124   0.65059   0.00000  Uiso   1.00
O631   O     0.06047   0.15132   0.70939   0.00000  Uiso   1.00
H632   H     0.03066   0.16257   0.68637   0.00000  Uiso   1.00
C633   C     0.13255   0.38784   0.83365   0.00000  Uiso   1.00
O634   O     0.09917   0.35829   0.83023   0.00000  Uiso   1.00
O635   O     0.14996   0.40602   0.87880   0.00000  Uiso   1.00
H636   H     0.13045   0.39323   0.90517   0.00000  Uiso   1.00
C637   C     0.25574   0.28622   0.63163   0.00000  Uiso   1.00
O638   O     0.29810   0.27867   0.61962   0.00000  Uiso   1.00
O639   O     0.25155   0.31951   0.66498   0.00000  Uiso   1.00
H640   H     0.28626   0.33338   0.67818   0.00000  Uiso   1.00
C641   C     0.12079   0.17595   0.86966   0.00000  Uiso   1.00
O642   O     0.08241   0.18082   0.84067   0.00000  Uiso   1.00
O643   O     0.13829   0.13363   0.88106   0.00000  Uiso   1.00
H644   H     0.11705   0.10983   0.86161   0.00000  Uiso   1.00
C645   C     0.06482   0.23003   0.52176   0.00000  Uiso   1.00
C646   C     0.04317   0.27178   0.99719   0.00000  Uiso   1.00
H647   H     0.04466   0.29907   0.52370   0.00000  Uiso   1.00
H648   H     0.06514   0.28195   0.96707   0.00000  Uiso   1.00
H649   H     0.00231   0.26526   0.98200   0.00000  Uiso   1.00
H650   H     0.06568   0.20369   0.99470   0.00000  Uiso   1.00
H651   H     0.03703   0.21780   0.54648   0.00000  Uiso   1.00
C652   C     0.19732   0.33301   0.97253   0.00000  Uiso   1.00
C653   C     0.15382   0.35286   0.99660   0.00000  Uiso   1.00
H654   H     0.11687   0.35090   0.97235   0.00000  Uiso   1.00
H655   H     0.14852   0.33576   0.53105   0.00000  Uiso   1.00
H656   H     0.16369   0.38809   0.50510   0.00000  Uiso   1.00
H657   H     0.23159   0.32913   0.99955   0.00000  Uiso   1.00
H658   H     0.20966   0.35762   0.94608   0.00000  Uiso   1.00
O659   O     0.50000   0.18573   0.79071   0.00000  Uiso   1.00
O660   O     0.50000   0.31428   0.70928   0.00000  Uiso   1.00
O661   O     0.50000   0.18573   0.70928   0.00000  Uiso   1.00
O662   O     0.50000   0.31427   0.79072   0.00000  Uiso   1.00
C663   C     0.50017   0.16513   0.75021   0.00000  Uiso   1.00
C664   C     0.49554   0.33499   0.74904   0.00000  Uiso   1.00
O665   O     0.42495   0.25000   0.78132   0.00000  Uiso   1.00
O666   O     0.57505   0.25001   0.71868   0.00000  Uiso   1.00
O667   O     0.42495   0.25000   0.69988   0.00000  Uiso   1.00
O668   O     0.57505   0.25000   0.80011   0.00000  Uiso   1.00
C669   C     0.40141   0.24957   0.73789   0.00000  Uiso   1.00
C670   C     0.59864   0.25041   0.76225   0.00000  Uiso   1.00
Cu671  Cu    0.50000   0.25000   0.79821   0.00000  Uiso   1.00
Cu672  Cu    0.50000   0.25001   0.70178   0.00000  Uiso   1.00
C673   C     0.34633   0.24725   0.73152   0.00000  Uiso   1.00
C674   C     0.65384   0.25177   0.76922   0.00000  Uiso   1.00
H675   H     0.66024   0.24073   0.69566   0.00000  Uiso   1.00
H676   H     0.33997   0.25691   0.80559   0.00000  Uiso   1.00
C677   C     0.53647   0.04744   0.77758   0.00000  Uiso   1.00
C678   C     0.49279   0.45382   0.70341   0.00000  Uiso   1.00
H679   H     0.56582   0.02909   0.79931   0.00000  Uiso   1.00
H680   H     0.49344   0.47265   0.67020   0.00000  Uiso   1.00
C681   C     0.53808   0.09357   0.77887   0.00000  Uiso   1.00
C682   C     0.48744   0.40775   0.70201   0.00000  Uiso   1.00
C683   C     0.49903   0.11686   0.75025   0.00000  Uiso   1.00
C684   C     0.48834   0.38362   0.74670   0.00000  Uiso   1.00
C685   C     0.46004   0.09343   0.71978   0.00000  Uiso   1.00
C686   C     0.48416   0.40767   0.78968   0.00000  Uiso   1.00
C687   C     0.46081   0.04752   0.71813   0.00000  Uiso   1.00
C688   C     0.49110   0.45352   0.78961   0.00000  Uiso   1.00
H689   H     0.43070   0.02924   0.69555   0.00000  Uiso   1.00
H690   H     0.48888   0.47208   0.82233   0.00000  Uiso   1.00
C691   C     0.49832   0.02462   0.74718   0.00000  Uiso   1.00
C692   C     0.49620   0.47640   0.74695   0.00000  Uiso   1.00
C693   C     0.54141   0.25932   0.55640   0.00000  Uiso   1.00
C694   C     0.48187   0.21412   0.94528   0.00000  Uiso   1.00
H695   H     0.57631   0.26633   0.53991   0.00000  Uiso   1.00
H696   H     0.46974   0.18441   0.96333   0.00000  Uiso   1.00
C697   C     0.54236   0.26337   0.60671   0.00000  Uiso   1.00
C698   C     0.48043   0.21438   0.89477   0.00000  Uiso   1.00
N699   N     0.50000   0.25001   0.62934   0.00000  Uiso   1.00
N700   N     0.50000   0.24999   0.87065   0.00000  Uiso   1.00
C701   C     0.45554   0.23705   0.60103   0.00000  Uiso   1.00
C702   C     0.51727   0.28673   0.89674   0.00000  Uiso   1.00
H703   H     0.42220   0.22663   0.61814   0.00000  Uiso   1.00
H704   H     0.53244   0.31474   0.87805   0.00000  Uiso   1.00
C705   C     0.45109   0.23872   0.54969   0.00000  Uiso   1.00
C706   C     0.51455   0.28951   0.94738   0.00000  Uiso   1.00
C707   C     0.49568   0.24978   0.52665   0.00000  Uiso   1.00
C708   C     0.49675   0.25180   0.97247   0.00000  Uiso   1.00
C709   C     0.58365   0.11658   0.80854   0.00000  Uiso   1.00
C710   C     0.62354   0.13334   0.77630   0.00000  Uiso   1.00
H711   H     0.60617   0.15627   0.74815   0.00000  Uiso   1.00
H712   H     0.65572   0.15113   0.79858   0.00000  Uiso   1.00
H713   H     0.63936   0.10516   0.75836   0.00000  Uiso   1.00
H714   H     0.57113   0.14408   0.82976   0.00000  Uiso   1.00
H715   H     0.60293   0.09344   0.83558   0.00000  Uiso   1.00
C716   C     0.47700   0.38725   0.65190   0.00000  Uiso   1.00
C717   C     0.42219   0.36712   0.64231   0.00000  Uiso   1.00
H718   H     0.41655   0.35158   0.60604   0.00000  Uiso   1.00
H719   H     0.41469   0.34158   0.66957   0.00000  Uiso   1.00
H720   H     0.39364   0.39332   0.64311   0.00000  Uiso   1.00
H721   H     0.48074   0.41260   0.62330   0.00000  Uiso   1.00
H722   H     0.50599   0.36304   0.64568   0.00000  Uiso   1.00
C723   C     0.41678   0.11547   0.69060   0.00000  Uiso   1.00
O724   O     0.40004   0.10124   0.65059   0.00000  Uiso   1.00
O725   O     0.39381   0.15132   0.70939   0.00000  Uiso   1.00
H726   H     0.36399   0.16257   0.68637   0.00000  Uiso   1.00
C727   C     0.46589   0.38784   0.83365   0.00000  Uiso   1.00
O728   O     0.43250   0.35829   0.83023   0.00000  Uiso   1.00
O729   O     0.48330   0.40602   0.87880   0.00000  Uiso   1.00
H730   H     0.46378   0.39323   0.90517   0.00000  Uiso   1.00
C731   C     0.58907   0.28622   0.63163   0.00000  Uiso   1.00
O732   O     0.63143   0.27867   0.61962   0.00000  Uiso   1.00
O733   O     0.58488   0.31951   0.66498   0.00000  Uiso   1.00
H734   H     0.61959   0.33338   0.67818   0.00000  Uiso   1.00
C735   C     0.45412   0.17595   0.86966   0.00000  Uiso   1.00
O736   O     0.41575   0.18082   0.84067   0.00000  Uiso   1.00
O737   O     0.47162   0.13363   0.88106   0.00000  Uiso   1.00
H738   H     0.45038   0.10983   0.86161   0.00000  Uiso   1.00
C739   C     0.39815   0.23003   0.52176   0.00000  Uiso   1.00
C740   C     0.37651   0.27178   0.99719   0.00000  Uiso   1.00
H741   H     0.37799   0.29907   0.52370   0.00000  Uiso   1.00
H742   H     0.39848   0.28195   0.96707   0.00000  Uiso   1.00
H743   H     0.33565   0.26526   0.98200   0.00000  Uiso   1.00
H744   H     0.39901   0.20369   0.99470   0.00000  Uiso   1.00
H745   H     0.37036   0.21780   0.54648   0.00000  Uiso   1.00
C746   C     0.53065   0.33301   0.97253   0.00000  Uiso   1.00
C747   C     0.48715   0.35286   0.99660   0.00000  Uiso   1.00
H748   H     0.45020   0.35090   0.97235   0.00000  Uiso   1.00
H749   H     0.48186   0.33576   0.53105   0.00000  Uiso   1.00
H750   H     0.49702   0.38809   0.50510   0.00000  Uiso   1.00
H751   H     0.56493   0.32913   0.99955   0.00000  Uiso   1.00
H752   H     0.54300   0.35762   0.94608   0.00000  Uiso   1.00
O753   O     0.83334   0.18573   0.79071   0.00000  Uiso   1.00
O754   O     0.83333   0.31428   0.70928   0.00000  Uiso   1.00
O755   O     0.83334   0.18573   0.70928   0.00000  Uiso   1.00
O756   O     0.83333   0.31427   0.79072   0.00000  Uiso   1.00
C757   C     0.83350   0.16513   0.75021   0.00000  Uiso   1.00
C758   C     0.82888   0.33499   0.74904   0.00000  Uiso   1.00
O759   O     0.75828   0.25000   0.78132   0.00000  Uiso   1.00
O760   O     0.90839   0.25001   0.71868   0.00000  Uiso   1.00
O761   O     0.75828   0.25000   0.69988   0.00000  Uiso   1.00
O762   O     0.90839   0.25000   0.80011   0.00000  Uiso   1.00
C763   C     0.73474   0.24957   0.73789   0.00000  Uiso   1.00
C764   C     0.93198   0.25041   0.76225   0.00000  Uiso   1.00
Cu765  Cu    0.83333   0.25000   0.79821   0.00000  Uiso   1.00
Cu766  Cu    0.83333   0.25001   0.70178   0.00000  Uiso   1.00
C767   C     0.67966   0.24725   0.73152   0.00000  Uiso   1.00
C768   C     0.98717   0.25177   0.76922   0.00000  Uiso   1.00
H769   H     0.99358   0.24073   0.69566   0.00000  Uiso   1.00
H770   H     0.67330   0.25691   0.80559   0.00000  Uiso   1.00
C771   C     0.86980   0.04744   0.77758   0.00000  Uiso   1.00
C772   C     0.82612   0.45382   0.70341   0.00000  Uiso   1.00
H773   H     0.89916   0.02909   0.79931   0.00000  Uiso   1.00
H774   H     0.82677   0.47265   0.67020   0.00000  Uiso   1.00
C775   C     0.87141   0.09357   0.77887   0.00000  Uiso   1.00
C776   C     0.82077   0.40775   0.70201   0.00000  Uiso   1.00
C777   C     0.83236   0.11686   0.75025   0.00000  Uiso   1.00
C778   C     0.82167   0.38362   0.74670   0.00000  Uiso   1.00
C779   C     0.79338   0.09343   0.71978   0.00000  Uiso   1.00
C780   C     0.81749   0.40767   0.78968   0.00000  Uiso   1.00
C781   C     0.79414   0.04752   0.71813   0.00000  Uiso   1.00
C782   C     0.82444   0.45352   0.78961   0.00000  Uiso   1.00
H783   H     0.76403   0.02924   0.69555   0.00000  Uiso   1.00
H784   H     0.82221   0.47208   0.82233   0.00000  Uiso   1.00
C785   C     0.83166   0.02462   0.74718   0.00000  Uiso   1.00
C786   C     0.82953   0.47640   0.74695   0.00000  Uiso   1.00
C787   C     0.87474   0.25932   0.55640   0.00000  Uiso   1.00
C788   C     0.81521   0.21412   0.94528   0.00000  Uiso   1.00
H789   H     0.90964   0.26633   0.53991   0.00000  Uiso   1.00
H790   H     0.80308   0.18441   0.96333   0.00000  Uiso   1.00
C791   C     0.87570   0.26337   0.60671   0.00000  Uiso   1.00
C792   C     0.81376   0.21438   0.89477   0.00000  Uiso   1.00
N793   N     0.83333   0.25001   0.62934   0.00000  Uiso   1.00
N794   N     0.83333   0.24999   0.87065   0.00000  Uiso   1.00
C795   C     0.78888   0.23705   0.60103   0.00000  Uiso   1.00
C796   C     0.85060   0.28673   0.89674   0.00000  Uiso   1.00
H797   H     0.75553   0.22663   0.61814   0.00000  Uiso   1.00
H798   H     0.86577   0.31474   0.87805   0.00000  Uiso   1.00
C799   C     0.78442   0.23872   0.54969   0.00000  Uiso   1.00
C800   C     0.84788   0.28951   0.94738   0.00000  Uiso   1.00
C801   C     0.82901   0.24978   0.52665   0.00000  Uiso   1.00
C802   C     0.83009   0.25180   0.97247   0.00000  Uiso   1.00
C803   C     0.91698   0.11658   0.80854   0.00000  Uiso   1.00
C804   C     0.95687   0.13334   0.77630   0.00000  Uiso   1.00
H805   H     0.93951   0.15627   0.74815   0.00000  Uiso   1.00
H806   H     0.98905   0.15113   0.79858   0.00000  Uiso   1.00
H807   H     0.97269   0.10516   0.75836   0.00000  Uiso   1.00
H808   H     0.90446   0.14408   0.82976   0.00000  Uiso   1.00
H809   H     0.93626   0.09344   0.83558   0.00000  Uiso   1.00
C810   C     0.81033   0.38725   0.65190   0.00000  Uiso   1.00
C811   C     0.75552   0.36712   0.64231   0.00000  Uiso   1.00
H812   H     0.74989   0.35158   0.60604   0.00000  Uiso   1.00
H813   H     0.74803   0.34158   0.66957   0.00000  Uiso   1.00
H814   H     0.72698   0.39332   0.64311   0.00000  Uiso   1.00
H815   H     0.81407   0.41260   0.62330   0.00000  Uiso   1.00
H816   H     0.83932   0.36304   0.64568   0.00000  Uiso   1.00
C817   C     0.75012   0.11547   0.69060   0.00000  Uiso   1.00
O818   O     0.73337   0.10124   0.65059   0.00000  Uiso   1.00
O819   O     0.72714   0.15132   0.70939   0.00000  Uiso   1.00
H820   H     0.69733   0.16257   0.68637   0.00000  Uiso   1.00
C821   C     0.79922   0.38784   0.83365   0.00000  Uiso   1.00
O822   O     0.76584   0.35829   0.83023   0.00000  Uiso   1.00
O823   O     0.81663   0.40602   0.87880   0.00000  Uiso   1.00
H824   H     0.79712   0.39323   0.90517   0.00000  Uiso   1.00
C825   C     0.92240   0.28622   0.63163   0.00000  Uiso   1.00
O826   O     0.96476   0.27867   0.61962   0.00000  Uiso   1.00
O827   O     0.91821   0.31951   0.66498   0.00000  Uiso   1.00
H828   H     0.95292   0.33338   0.67818   0.00000  Uiso   1.00
C829   C     0.78745   0.17595   0.86966   0.00000  Uiso   1.00
O830   O     0.74908   0.18082   0.84067   0.00000  Uiso   1.00
O831   O     0.80495   0.13363   0.88106   0.00000  Uiso   1.00
H832   H     0.78372   0.10983   0.86161   0.00000  Uiso   1.00
C833   C     0.73149   0.23003   0.52176   0.00000  Uiso   1.00
C834   C     0.70984   0.27178   0.99719   0.00000  Uiso   1.00
H835   H     0.71132   0.29907   0.52370   0.00000  Uiso   1.00
H836   H     0.73181   0.28195   0.96707   0.00000  Uiso   1.00
H837   H     0.66898   0.26526   0.98200   0.00000  Uiso   1.00
H838   H     0.73235   0.20369   0.99470   0.00000  Uiso   1.00
H839   H     0.70369   0.21780   0.54648   0.00000  Uiso   1.00
C840   C     0.86399   0.33301   0.97253   0.00000  Uiso   1.00
C841   C     0.82049   0.35286   0.99660   0.00000  Uiso   1.00
H842   H     0.78353   0.35090   0.97235   0.00000  Uiso   1.00
H843   H     0.81519   0.33576   0.53105   0.00000  Uiso   1.00
H844   H     0.83036   0.38809   0.50510   0.00000  Uiso   1.00
H845   H     0.89826   0.32913   0.99955   0.00000  Uiso   1.00
H846   H     0.87633   0.35762   0.94608   0.00000  Uiso   1.00
O847   O     0.16667   0.68573   0.79071   0.00000  Uiso   1.00
O848   O     0.16666   0.81428   0.70928   0.00000  Uiso   1.00
O849   O     0.16667   0.68573   0.70928   0.00000  Uiso   1.00
O850   O     0.16666   0.81427   0.79072   0.00000  Uiso   1.00
C851   C     0.16684   0.66513   0.75021   0.00000  Uiso   1.00
C852   C     0.16221   0.83499   0.74904   0.00000  Uiso   1.00
O853   O     0.09161   0.75000   0.78132   0.00000  Uiso   1.00
O854   O     0.24172   0.75001   0.71868   0.00000  Uiso   1.00
O855   O     0.09161   0.75000   0.69988   0.00000  Uiso   1.00
O856   O     0.24172   0.75000   0.80011   0.00000  Uiso   1.00
C857   C     0.06807   0.74957   0.73789   0.00000  Uiso   1.00
C858   C     0.26531   0.75041   0.76225   0.00000  Uiso   1.00
Cu859  Cu    0.16667   0.75000   0.79821   0.00000  Uiso   1.00
Cu860  Cu    0.16667   0.75001   0.70178   0.00000  Uiso   1.00
C861   C     0.01299   0.74725   0.73152   0.00000  Uiso   1.00
C862   C     0.32050   0.75177   0.76922   0.00000  Uiso   1.00
H863   H     0.32691   0.74073   0.69566   0.00000  Uiso   1.00
H864   H     0.00664   0.75691   0.80559   0.00000  Uiso   1.00
C865   C     0.20313   0.54744   0.77758   0.00000  Uiso   1.00
C866   C     0.15946   0.95382   0.70341   0.00000  Uiso   1.00
H867   H     0.23249   0.52909   0.79931   0.00000  Uiso   1.00
H868   H     0.16011   0.97265   0.67020   0.00000  Uiso   1.00
C869   C     0.20475   0.59357   0.77887   0.00000  Uiso   1.00
C870   C     0.15410   0.90775   0.70201   0.00000  Uiso   1.00
C871   C     0.16570   0.61686   0.75025   0.00000  Uiso   1.00
C872   C     0.15500   0.88362   0.74670   0.00000  Uiso   1.00
C873   C     0.12671   0.59343   0.71978   0.00000  Uiso   1.00
C874   C     0.15083   0.90767   0.78968   0.00000  Uiso   1.00
C875   C     0.12747   0.54752   0.71813   0.00000  Uiso   1.00
C876   C     0.15777   0.95352   0.78961   0.00000  Uiso   1.00
H877   H     0.09737   0.52924   0.69555   0.00000  Uiso   1.00
H878   H     0.15555   0.97208   0.82233   0.00000  Uiso   1.00
C879   C     0.16499   0.52462   0.74718   0.00000  Uiso   1.00
C880   C     0.16286   0.97640   0.74695   0.00000  Uiso   1.00
C881   C     0.20808   0.75932   0.55640   0.00000  Uiso   1.00
C882   C     0.14854   0.71412   0.94528   0.00000  Uiso   1.00
H883   H     0.24297   0.76633   0.53991   0.00000  Uiso   1.00
H884   H     0.13641   0.68441   0.96333   0.00000  Uiso   1.00
C885   C     0.20903   0.76337   0.60671   0.00000  Uiso   1.00
C886   C     0.14709   0.71438   0.89477   0.00000  Uiso   1.00
N887   N     0.16667   0.75001   0.62934   0.00000  Uiso   1.00
N888   N     0.16667   0.74999   0.87065   0.00000  Uiso   1.00
C889   C     0.12221   0.73705   0.60103   0.00000  Uiso   1.00
C890   C     0.18394   0.78673   0.89674   0.00000  Uiso   1.00
H891   H     0.08887   0.72663   0.61814   0.00000  Uiso   1.00
H892   H     0.19911   0.81474   0.87805   0.00000  Uiso   1.00
C893   C     0.11776   0.73872   0.54969   0.00000  Uiso   1.00
C894   C     0.18122   0.78951   0.94738   0.00000  Uiso   1.00
C895   C     0.16235   0.74978   0.52665   0.00000  Uiso   1.00
C896   C     0.16342   0.75180   0.97247   0.00000  Uiso   1.00
C897   C     0.25032   0.61658   0.80854   0.00000  Uiso   1.00
C898   C     0.29020   0.63334   0.77630   0.00000  Uiso   1.00
H899   H     0.27284   0.65627   0.74815   0.00000  Uiso   1.00
H900   H     0.32238   0.65113   0.79858   0.00000  Uiso   1.00
H901   H     0.30602   0.60516   0.75836   0.00000  Uiso   1.00
H902   H     0.23780   0.64408   0.82976   0.00000  Uiso   1.00
H903   H     0.26959   0.59344   0.83558   0.00000  Uiso   1.00
C904   C     0.14367   0.88725   0.65190   0.00000  Uiso   1.00
C905   C     0.08886   0.86712   0.64231   0.00000  Uiso   1.00
H906   H     0.08322   0.85158   0.60604   0.00000  Uiso   1.00
H907   H     0.08136   0.84158   0.66957   0.00000  Uiso   1.00
H908   H     0.06031   0.89332   0.64311   0.00000  Uiso   1.00
H909   H     0.14741   0.91260   0.62330   0.00000  Uiso   1.00
H910   H     0.17265   0.86304   0.64568   0.00000  Uiso   1.00
C911   C     0.08345   0.61547   0.69060   0.00000  Uiso   1.00
O912   O     0.06670   0.60124   0.65059   0.00000  Uiso   1.00
O913   O     0.06047   0.65132   0.70939   0.00000  Uiso   1.00
H914   H     0.03066   0.66257   0.68637   0.00000  Uiso   1.00
C915   C     0.13255   0.88784   0.83365   0.00000  Uiso   1.00
O916   O     0.09917   0.85829   0.83023   0.00000  Uiso   1.00
O917   O     0.14996   0.90602   0.87880   0.00000  Uiso   1.00
H918   H     0.13045   0.89323   0.90517   0.00000  Uiso   1.00
C919   C     0.25574   0.78622   0.63163   0.00000  Uiso   1.00
O920   O     0.29810   0.77867   0.61962   0.00000  Uiso   1.00
O921   O     0.25155   0.81951   0.66498   0.00000  Uiso   1.00
H922   H     0.28626   0.83338   0.67818   0.00000  Uiso   1.00
C923   C     0.12079   0.67595   0.86966   0.00000  Uiso   1.00
O924   O     0.08241   0.68082   0.84067   0.00000  Uiso   1.00
O925   O     0.13829   0.63363   0.88106   0.00000  Uiso   1.00
H926   H     0.11705   0.60983   0.86161   0.00000  Uiso   1.00
C927   C     0.06482   0.73003   0.52176   0.00000  Uiso   1.00
C928   C     0.04317   0.77178   0.99719   0.00000  Uiso   1.00
H929   H     0.04466   0.79907   0.52370   0.00000  Uiso   1.00
H930   H     0.06514   0.78195   0.96707   0.00000  Uiso   1.00
H931   H     0.00231   0.76526   0.98200   0.00000  Uiso   1.00
H932   H     0.06568   0.70369   0.99470   0.00000  Uiso   1.00
H933   H     0.03703   0.71780   0.54648   0.00000  Uiso   1.00
C934   C     0.19732   0.83301   0.97253   0.00000  Uiso   1.00
C935   C     0.15382   0.85286   0.99660   0.00000  Uiso   1.00
H936   H     0.11687   0.85090   0.97235   0.00000  Uiso   1.00
H937   H     0.14852   0.83576   0.53105   0.00000  Uiso   1.00
H938   H     0.16369   0.88809   0.50510   0.00000  Uiso   1.00
H939   H     0.23159   0.82913   0.99955   0.00000  Uiso   1.00
H940   H     0.20966   0.85762   0.94608   0.00000  Uiso   1.00
O941   O     0.50000   0.68573   0.79071   0.00000  Uiso   1.00
O942   O     0.50000   0.81428   0.70928   0.00000  Uiso   1.00
O943   O     0.50000   0.68573   0.70928   0.00000  Uiso   1.00
O944   O     0.50000   0.81427   0.79072   0.00000  Uiso   1.00
C945   C     0.50017   0.66513   0.75021   0.00000  Uiso   1.00
C946   C     0.49554   0.83499   0.74904   0.00000  Uiso   1.00
O947   O     0.42495   0.75000   0.78132   0.00000  Uiso   1.00
O948   O     0.57505   0.75001   0.71868   0.00000  Uiso   1.00
O949   O     0.42495   0.75000   0.69988   0.00000  Uiso   1.00
O950   O     0.57505   0.75000   0.80011   0.00000  Uiso   1.00
C951   C     0.40141   0.74957   0.73789   0.00000  Uiso   1.00
C952   C     0.59864   0.75041   0.76225   0.00000  Uiso   1.00
Cu953  Cu    0.50000   0.75000   0.79821   0.00000  Uiso   1.00
Cu954  Cu    0.50000   0.75001   0.70178   0.00000  Uiso   1.00
C955   C     0.34633   0.74725   0.73152   0.00000  Uiso   1.00
C956   C     0.65384   0.75177   0.76922   0.00000  Uiso   1.00
H957   H     0.66024   0.74073   0.69566   0.00000  Uiso   1.00
H958   H     0.33997   0.75691   0.80559   0.00000  Uiso   1.00
C959   C     0.53647   0.54744   0.77758   0.00000  Uiso   1.00
C960   C     0.49279   0.95382   0.70341   0.00000  Uiso   1.00
H961   H     0.56582   0.52909   0.79931   0.00000  Uiso   1.00
H962   H     0.49344   0.97265   0.67020   0.00000  Uiso   1.00
C963   C     0.53808   0.59357   0.77887   0.00000  Uiso   1.00
C964   C     0.48744   0.90775   0.70201   0.00000  Uiso   1.00
C965   C     0.49903   0.61686   0.75025   0.00000  Uiso   1.00
C966   C     0.48834   0.88362   0.74670   0.00000  Uiso   1.00
C967   C     0.46004   0.59343   0.71978   0.00000  Uiso   1.00
C968   C     0.48416   0.90767   0.78968   0.00000  Uiso   1.00
C969   C     0.46081   0.54752   0.71813   0.00000  Uiso   1.00
C970   C     0.49110   0.95352   0.78961   0.00000  Uiso   1.00
H971   H     0.43070   0.52924   0.69555   0.00000  Uiso   1.00
H972   H     0.48888   0.97208   0.82233   0.00000  Uiso   1.00
C973   C     0.49832   0.52462   0.74718   0.00000  Uiso   1.00
C974   C     0.49620   0.97640   0.74695   0.00000  Uiso   1.00
C975   C     0.54141   0.75932   0.55640   0.00000  Uiso   1.00
C976   C     0.48187   0.71412   0.94528   0.00000  Uiso   1.00
H977   H     0.57631   0.76633   0.53991   0.00000  Uiso   1.00
H978   H     0.46974   0.68441   0.96333   0.00000  Uiso   1.00
C979   C     0.54236   0.76337   0.60671   0.00000  Uiso   1.00
C980   C     0.48043   0.71438   0.89477   0.00000  Uiso   1.00
N981   N     0.50000   0.75001   0.62934   0.00000  Uiso   1.00
N982   N     0.50000   0.74999   0.87065   0.00000  Uiso   1.00
C983   C     0.45554   0.73705   0.60103   0.00000  Uiso   1.00
C984   C     0.51727   0.78673   0.89674   0.00000  Uiso   1.00
H985   H     0.42220   0.72663   0.61814   0.00000  Uiso   1.00
H986   H     0.53244   0.81474   0.87805   0.00000  Uiso   1.00
C987   C     0.45109   0.73872   0.54969   0.00000  Uiso   1.00
C988   C     0.51455   0.78951   0.94738   0.00000  Uiso   1.00
C989   C     0.49568   0.74978   0.52665   0.00000  Uiso   1.00
C990   C     0.49675   0.75180   0.97247   0.00000  Uiso   1.00
C991   C     0.58365   0.61658   0.80854   0.00000  Uiso   1.00
C992   C     0.62354   0.63334   0.77630   0.00000  Uiso   1.00
H993   H     0.60617   0.65627   0.74815   0.00000  Uiso   1.00
H994   H     0.65572   0.65113   0.79858   0.00000  Uiso   1.00
H995   H     0.63936   0.60516   0.75836   0.00000  Uiso   1.00
H996   H     0.57113   0.64408   0.82976   0.00000  Uiso   1.00
H997   H     0.60293   0.59344   0.83558   0.00000  Uiso   1.00
C998   C     0.47700   0.88725   0.65190   0.00000  Uiso   1.00
C999   C     0.42219   0.86712   0.64231   0.00000  Uiso   1.00
H1000  H     0.41655   0.85158   0.60604   0.00000  Uiso   1.00
H1001  H     0.41469   0.84158   0.66957   0.00000  Uiso   1.00
H1002  H     0.39364   0.89332   0.64311   0.00000  Uiso   1.00
H1003  H     0.48074   0.91260   0.62330   0.00000  Uiso   1.00
H1004  H     0.50599   0.86304   0.64568   0.00000  Uiso   1.00
C1005  C     0.41678   0.61547   0.69060   0.00000  Uiso   1.00
O1006  O     0.40004   0.60124   0.65059   0.00000  Uiso   1.00
O1007  O     0.39381   0.65132   0.70939   0.00000  Uiso   1.00
H1008  H     0.36399   0.66257   0.68637   0.00000  Uiso   1.00
C1009  C     0.46589   0.88784   0.83365   0.00000  Uiso   1.00
O1010  O     0.43250   0.85829   0.83023   0.00000  Uiso   1.00
O1011  O     0.48330   0.90602   0.87880   0.00000  Uiso   1.00
H1012  H     0.46378   0.89323   0.90517   0.00000  Uiso   1.00
C1013  C     0.58907   0.78622   0.63163   0.00000  Uiso   1.00
O1014  O     0.63143   0.77867   0.61962   0.00000  Uiso   1.00
O1015  O     0.58488   0.81951   0.66498   0.00000  Uiso   1.00
H1016  H     0.61959   0.83338   0.67818   0.00000  Uiso   1.00
C1017  C     0.45412   0.67595   0.86966   0.00000  Uiso   1.00
O1018  O     0.41575   0.68082   0.84067   0.00000  Uiso   1.00
O1019  O     0.47162   0.63363   0.88106   0.00000  Uiso   1.00
H1020  H     0.45038   0.60983   0.86161   0.00000  Uiso   1.00
C1021  C     0.39815   0.73003   0.52176   0.00000  Uiso   1.00
C1022  C     0.37651   0.77178   0.99719   0.00000  Uiso   1.00
H1023  H     0.37799   0.79907   0.52370   0.00000  Uiso   1.00
H1024  H     0.39848   0.78195   0.96707   0.00000  Uiso   1.00
H1025  H     0.33565   0.76526   0.98200   0.00000  Uiso   1.00
H1026  H     0.39901   0.70369   0.99470   0.00000  Uiso   1.00
H1027  H     0.37036   0.71780   0.54648   0.00000  Uiso   1.00
C1028  C     0.53065   0.83301   0.97253   0.00000  Uiso   1.00
C1029  C     0.48715   0.85286   0.99660   0.00000  Uiso   1.00
H1030  H     0.45020   0.85090   0.97235   0.00000  Uiso   1.00
H1031  H     0.48186   0.83576   0.53105   0.00000  Uiso   1.00
H1032  H     0.49702   0.88809   0.50510   0.00000  Uiso   1.00
H1033  H     0.56493   0.82913   0.99955   0.00000  Uiso   1.00
H1034  H     0.54300   0.85762   0.94608   0.00000  Uiso   1.00
O1035  O     0.83334   0.68573   0.79071   0.00000  Uiso   1.00
O1036  O     0.83333   0.81428   0.70928   0.00000  Uiso   1.00
O1037  O     0.83334   0.68573   0.70928   0.00000  Uiso   1.00
O1038  O     0.83333   0.81427   0.79072   0.00000  Uiso   1.00
C1039  C     0.83350   0.66513   0.75021   0.00000  Uiso   1.00
C1040  C     0.82888   0.83499   0.74904   0.00000  Uiso   1.00
O1041  O     0.75828   0.75000   0.78132   0.00000  Uiso   1.00
O1042  O     0.90839   0.75001   0.71868   0.00000  Uiso   1.00
O1043  O     0.75828   0.75000   0.69988   0.00000  Uiso   1.00
O1044  O     0.90839   0.75000   0.80011   0.00000  Uiso   1.00
C1045  C     0.73474   0.74957   0.73789   0.00000  Uiso   1.00
C1046  C     0.93198   0.75041   0.76225   0.00000  Uiso   1.00
Cu1047 Cu    0.83333   0.75000   0.79821   0.00000  Uiso   1.00
Cu1048 Cu    0.83333   0.75001   0.70178   0.00000  Uiso   1.00
C1049  C     0.67966   0.74725   0.73152   0.00000  Uiso   1.00
C1050  C     0.98717   0.75177   0.76922   0.00000  Uiso   1.00
H1051  H     0.99358   0.74073   0.69566   0.00000  Uiso   1.00
H1052  H     0.67330   0.75691   0.80559   0.00000  Uiso   1.00
C1053  C     0.86980   0.54744   0.77758   0.00000  Uiso   1.00
C1054  C     0.82612   0.95382   0.70341   0.00000  Uiso   1.00
H1055  H     0.89916   0.52909   0.79931   0.00000  Uiso   1.00
H1056  H     0.82677   0.97265   0.67020   0.00000  Uiso   1.00
C1057  C     0.87141   0.59357   0.77887   0.00000  Uiso   1.00
C1058  C     0.82077   0.90775   0.70201   0.00000  Uiso   1.00
C1059  C     0.83236   0.61686   0.75025   0.00000  Uiso   1.00
C1060  C     0.82167   0.88362   0.74670   0.00000  Uiso   1.00
C1061  C     0.79338   0.59343   0.71978   0.00000  Uiso   1.00
C1062  C     0.81749   0.90767   0.78968   0.00000  Uiso   1.00
C1063  C     0.79414   0.54752   0.71813   0.00000  Uiso   1.00
C1064  C     0.82444   0.95352   0.78961   0.00000  Uiso   1.00
H1065  H     0.76403   0.52924   0.69555   0.00000  Uiso   1.00
H1066  H     0.82221   0.97208   0.82233   0.00000  Uiso   1.00
C1067  C     0.83166   0.52462   0.74718   0.00000  Uiso   1.00
C1068  C     0.82953   0.97640   0.74695   0.00000  Uiso   1.00
C1069  C     0.87474   0.75932   0.55640   0.00000  Uiso   1.00
C1070  C     0.81521   0.71412   0.94528   0.00000  Uiso   1.00
H1071  H     0.90964   0.76633   0.53991   0.00000  Uiso   1.00
H1072  H     0.80308   0.68441   0.96333   0.00000  Uiso   1.00
C1073  C     0.87570   0.76337   0.60671   0.00000  Uiso   1.00
C1074  C     0.81376   0.71438   0.89477   0.00000  Uiso   1.00
N1075  N     0.83333   0.75001   0.62934   0.00000  Uiso   1.00
N1076  N     0.83333   0.74999   0.87065   0.00000  Uiso   1.00
C1077  C     0.78888   0.73705   0.60103   0.00000  Uiso   1.00
C1078  C     0.85060   0.78673   0.89674   0.00000  Uiso   1.00
H1079  H     0.75553   0.72663   0.61814   0.00000  Uiso   1.00
H1080  H     0.86577   0.81474   0.87805   0.00000  Uiso   1.00
C1081  C     0.78442   0.73872   0.54969   0.00000  Uiso   1.00
C1082  C     0.84788   0.78951   0.94738   0.00000  Uiso   1.00
C1083  C     0.82901   0.74978   0.52665   0.00000  Uiso   1.00
C1084  C     0.83009   0.75180   0.97247   0.00000  Uiso   1.00
C1085  C     0.91698   0.61658   0.80854   0.00000  Uiso   1.00
C1086  C     0.95687   0.63334   0.77630   0.00000  Uiso   1.00
H1087  H     0.93951   0.65627   0.74815   0.00000  Uiso   1.00
H1088  H     0.98905   0.65113   0.79858   0.00000  Uiso   1.00
H1089  H     0.97269   0.60516   0.75836   0.00000  Uiso   1.00
H1090  H     0.90446   0.64408   0.82976   0.00000  Uiso   1.00
H1091  H     0.93626   0.59344   0.83558   0.00000  Uiso   1.00
C1092  C     0.81033   0.88725   0.65190   0.00000  Uiso   1.00
C1093  C     0.75552   0.86712   0.64231   0.00000  Uiso   1.00
H1094  H     0.74989   0.85158   0.60604   0.00000  Uiso   1.00
H1095  H     0.74803   0.84158   0.66957   0.00000  Uiso   1.00
H1096  H     0.72698   0.89332   0.64311   0.00000  Uiso   1.00
H1097  H     0.81407   0.91260   0.62330   0.00000  Uiso   1.00
H1098  H     0.83932   0.86304   0.64568   0.00000  Uiso   1.00
C1099  C     0.75012   0.61547   0.69060   0.00000  Uiso   1.00
O1100  O     0.73337   0.60124   0.65059   0.00000  Uiso   1.00
O1101  O     0.72714   0.65132   0.70939   0.00000  Uiso   1.00
H1102  H     0.69733   0.66257   0.68637   0.00000  Uiso   1.00
C1103  C     0.79922   0.88784   0.83365   0.00000  Uiso   1.00
O1104  O     0.76584   0.85829   0.83023   0.00000  Uiso   1.00
O1105  O     0.81663   0.90602   0.87880   0.00000  Uiso   1.00
H1106  H     0.79712   0.89323   0.90517   0.00000  Uiso   1.00
C1107  C     0.92240   0.78622   0.63163   0.00000  Uiso   1.00
O1108  O     0.96476   0.77867   0.61962   0.00000  Uiso   1.00
O1109  O     0.91821   0.81951   0.66498   0.00000  Uiso   1.00
H1110  H     0.95292   0.83338   0.67818   0.00000  Uiso   1.00
C1111  C     0.78745   0.67595   0.86966   0.00000  Uiso   1.00
O1112  O     0.74908   0.68082   0.84067   0.00000  Uiso   1.00
O1113  O     0.80495   0.63363   0.88106   0.00000  Uiso   1.00
H1114  H     0.78372   0.60983   0.86161   0.00000  Uiso   1.00
C1115  C     0.73149   0.73003   0.52176   0.00000  Uiso   1.00
C1116  C     0.70984   0.77178   0.99719   0.00000  Uiso   1.00
H1117  H     0.71132   0.79907   0.52370   0.00000  Uiso   1.00
H1118  H     0.73181   0.78195   0.96707   0.00000  Uiso   1.00
H1119  H     0.66898   0.76526   0.98200   0.00000  Uiso   1.00
H1120  H     0.73235   0.70369   0.99470   0.00000  Uiso   1.00
H1121  H     0.70369   0.71780   0.54648   0.00000  Uiso   1.00
C1122  C     0.86399   0.83301   0.97253   0.00000  Uiso   1.00
C1123  C     0.82049   0.85286   0.99660   0.00000  Uiso   1.00
H1124  H     0.78353   0.85090   0.97235   0.00000  Uiso   1.00
H1125  H     0.81519   0.83576   0.53105   0.00000  Uiso   1.00
H1126  H     0.83036   0.88809   0.50510   0.00000  Uiso   1.00
H1127  H     0.89826   0.82913   0.99955   0.00000  Uiso   1.00
H1128  H     0.87633   0.85762   0.94608   0.00000  Uiso   1.00
loop_
_geom_bond_atom_site_label_1
_geom_bond_atom_site_label_2
_geom_bond_distance
_geom_bond_site_symmetry_2
_ccdc_geom_bond_type
O1     C5      1.296   .     A
O1     Cu13    1.961   .     S
O2     C6      1.298   .     A
O2     Cu14    1.961   .     S
O3     Cu14    1.957   .     S
O3     C5      1.295   .     A
O4     Cu13    1.957   .     S
O4     C6      1.310   .     A
C5     C25     1.462   .     S
C6     C26     1.492   .     S
O7     C11     1.290   .     A
O7     Cu13    1.960   .     S
O8     C12     1.294   .     A
O8     Cu14    1.960   .     S
O9     Cu14    1.955   .     S
O9     C11     1.288   .     A
O10    C12     1.285   .     A
O10    Cu13    1.955   .     S
C11    C15     1.427   .     S
C12    C16     1.430   .     S
Cu13   Cu14    2.688   .     S
Cu13   N42     2.019   .     S
Cu14   N41     2.019   .     S
C15    C204    1.327   1_455 S
C15    H205    1.081   1_455 S
C16    C109    1.327   .     S
C16    H112    1.088   .     S
H17    C109    1.081   .     S
H18    C204    1.088   1_455 S
C19    C33     1.395   .     A
C19    C23     1.398   .     A
C19    H21     1.084   .     S
C20    C24     1.399   .     A
C20    C34     1.391   .     A
C20    H22     1.084   .     S
C23    C51     1.516   .     S
C23    C25     1.421   .     A
C24    C26     1.437   .     A
C24    C58     1.524   .     S
C25    C27     1.418   .     A
C26    C28     1.426   .     A
C27    C29     1.394   .     A
C27    C65     1.485   .     S
C28    C69     1.483   .     S
C28    C30     1.395   .     A
C29    C33     1.394   .     A
C29    H31     1.085   .     S
C30    C34     1.389   .     A
C30    H32     1.085   .     S
C33    C316    1.461   1_545 S
C34    C315    1.461   .     S
C35    C39     1.406   .     A
C35    H37     1.083   .     S
C35    C49     1.392   .     A
C36    C40     1.404   .     A
C36    H38     1.084   .     S
C36    C50     1.394   .     A
C39    C73     1.481   .     S
C39    N41     1.385   .     A
C40    N42     1.381   .     A
C40    C77     1.470   .     S
N41    C43     1.370   .     A
N42    C44     1.369   .     A
C43    H45     1.079   .     S
C43    C47     1.422   .     A
C44    H46     1.080   .     S
C44    C48     1.425   .     A
C47    C49     1.425   .     A
C47    C81     1.518   .     S
C48    C88     1.521   .     S
C48    C50     1.427   .     A
C49    C614    1.515   1_554 S
C50    C613    1.515   .     S
C51    H56     1.108   .     S
C51    H57     1.112   .     S
C51    C52     1.527   .     S
C52    H55     1.111   .     S
C52    H54     1.109   .     S
C52    H53     1.109   .     S
C58    H64     1.103   .     S
C58    C59     1.530   .     S
C58    H63     1.112   .     S
C59    H60     1.111   .     S
C59    H61     1.109   .     S
C59    H62     1.111   .     S
C65    O67     1.396   .     S
C65    O66     1.224   .     D
O67    H68     1.014   .     S
C69    O71     1.397   .     S
C69    O70     1.223   .     D
O71    H72     1.011   .     S
C73    O75     1.395   .     S
C73    O74     1.224   .     D
O75    H76     1.014   .     S
C77    O78     1.221   .     D
C77    O79     1.398   .     S
O79    H80     1.014   .     S
C81    H87     1.112   .     S
C81    C646    1.527   1_554 S
C81    H650    1.106   1_554 S
C82    H84     1.108   .     S
C82    H85     1.111   .     S
C82    C645    1.527   .     S
C82    H647    1.111   .     S
H83    C646    1.111   1_554 S
H86    C645    1.106   .     S
C88    H94     1.111   .     S
C88    H93     1.107   .     S
C88    C89     1.531   .     S
C89    H90     1.109   .     S
C89    H655    1.108   .     S
C89    H656    1.110   .     S
H91    C653    1.108   1_554 S
H92    C653    1.110   1_554 S
O95    C99     1.296   .     A
O95    Cu107   1.961   .     S
O96    C100    1.298   .     A
O96    Cu108   1.961   .     S
O97    Cu108   1.957   .     S
O97    C99     1.295   .     A
O98    Cu107   1.957   .     S
O98    C100    1.310   .     A
C99    C119    1.462   .     S
C100   C120    1.492   .     S
O101   C105    1.290   .     A
O101   Cu107   1.960   .     S
O102   C106    1.294   .     A
O102   Cu108   1.960   .     S
O103   Cu108   1.955   .     S
O103   C105    1.288   .     A
O104   C106    1.285   .     A
O104   Cu107   1.955   .     S
C105   C109    1.427   .     S
C106   C110    1.430   .     S
Cu107  Cu108   2.688   .     S
Cu107  N136    2.019   .     S
Cu108  N135    2.019   .     S
C110   C203    1.327   .     S
C110   H206    1.088   .     S
H111   C203    1.081   .     S
C113   C127    1.395   .     A
C113   C117    1.398   .     A
C113   H115    1.084   .     S
C114   C118    1.399   .     A
C114   C128    1.391   .     A
C114   H116    1.084   .     S
C117   C145    1.516   .     S
C117   C119    1.421   .     A
C118   C120    1.437   .     A
C118   C152    1.524   .     S
C119   C121    1.418   .     A
C120   C122    1.426   .     A
C121   C123    1.394   .     A
C121   C159    1.485   .     S
C122   C163    1.483   .     S
C122   C124    1.395   .     A
C123   C127    1.394   .     A
C123   H125    1.085   .     S
C124   C128    1.389   .     A
C124   H126    1.085   .     S
C127   C410    1.461   1_545 S
C128   C409    1.461   .     S
C129   C133    1.406   .     A
C129   H131    1.083   .     S
C129   C143    1.392   .     A
C130   C134    1.404   .     A
C130   H132    1.084   .     S
C130   C144    1.394   .     A
C133   C167    1.481   .     S
C133   N135    1.385   .     A
C134   N136    1.381   .     A
C134   C171    1.470   .     S
N135   C137    1.370   .     A
N136   C138    1.369   .     A
C137   H139    1.079   .     S
C137   C141    1.422   .     A
C138   H140    1.080   .     S
C138   C142    1.425   .     A
C141   C143    1.425   .     A
C141   C175    1.518   .     S
C142   C182    1.521   .     S
C142   C144    1.427   .     A
C143   C708    1.515   1_554 S
C144   C707    1.515   .     S
C145   H150    1.108   .     S
C145   H151    1.112   .     S
C145   C146    1.527   .     S
C146   H149    1.111   .     S
C146   H148    1.109   .     S
C146   H147    1.109   .     S
C152   H158    1.103   .     S
C152   C153    1.530   .     S
C152   H157    1.112   .     S
C153   H154    1.111   .     S
C153   H155    1.109   .     S
C153   H156    1.111   .     S
C159   O161    1.396   .     S
C159   O160    1.224   .     D
O161   H162    1.014   .     S
C163   O165    1.397   .     S
C163   O164    1.223   .     D
O165   H166    1.011   .     S
C167   O169    1.395   .     S
C167   O168    1.224   .     D
O169   H170    1.014   .     S
C171   O172    1.221   .     D
C171   O173    1.398   .     S
O173   H174    1.014   .     S
C175   H181    1.112   .     S
C175   C740    1.527   1_554 S
C175   H744    1.106   1_554 S
C176   H178    1.108   .     S
C176   H179    1.111   .     S
C176   C739    1.527   .     S
C176   H741    1.111   .     S
H177   C740    1.111   1_554 S
H180   C739    1.106   .     S
C182   H188    1.111   .     S
C182   H187    1.107   .     S
C182   C183    1.531   .     S
C183   H184    1.109   .     S
C183   H749    1.108   .     S
C183   H750    1.110   .     S
H185   C747    1.108   1_554 S
H186   C747    1.110   1_554 S
O189   C193    1.296   .     A
O189   Cu201   1.961   .     S
O190   C194    1.298   .     A
O190   Cu202   1.961   .     S
O191   Cu202   1.957   .     S
O191   C193    1.295   .     A
O192   Cu201   1.957   .     S
O192   C194    1.310   .     A
C193   C213    1.462   .     S
C194   C214    1.492   .     S
O195   C199    1.290   .     A
O195   Cu201   1.960   .     S
O196   C200    1.294   .     A
O196   Cu202   1.960   .     S
O197   Cu202   1.955   .     S
O197   C199    1.288   .     A
O198   C200    1.285   .     A
O198   Cu201   1.955   .     S
C199   C203    1.427   .     S
C200   C204    1.430   .     S
Cu201  Cu202   2.688   .     S
Cu201  N230    2.019   .     S
Cu202  N229    2.019   .     S
C204   C15     1.327   1_655 S
C204   H18     1.088   1_655 S
H205   C15     1.081   1_655 S
C207   C221    1.395   .     A
C207   C211    1.398   .     A
C207   H209    1.084   .     S
C208   C212    1.399   .     A
C208   C222    1.391   .     A
C208   H210    1.084   .     S
C211   C239    1.516   .     S
C211   C213    1.421   .     A
C212   C214    1.437   .     A
C212   C246    1.524   .     S
C213   C215    1.418   .     A
C214   C216    1.426   .     A
C215   C217    1.394   .     A
C215   C253    1.485   .     S
C216   C257    1.483   .     S
C216   C218    1.395   .     A
C217   C221    1.394   .     A
C217   H219    1.085   .     S
C218   C222    1.389   .     A
C218   H220    1.085   .     S
C221   C504    1.461   1_545 S
C222   C503    1.461   .     S
C223   C227    1.406   .     A
C223   H225    1.083   .     S
C223   C237    1.392   .     A
C224   C228    1.404   .     A
C224   H226    1.084   .     S
C224   C238    1.394   .     A
C227   C261    1.481   .     S
C227   N229    1.385   .     A
C228   N230    1.381   .     A
C228   C265    1.470   .     S
N229   C231    1.370   .     A
N230   C232    1.369   .     A
C231   H233    1.079   .     S
C231   C235    1.422   .     A
C232   H234    1.080   .     S
C232   C236    1.425   .     A
C235   C237    1.425   .     A
C235   C269    1.518   .     S
C236   C276    1.521   .     S
C236   C238    1.427   .     A
C237   C802    1.515   1_554 S
C238   C801    1.515   .     S
C239   H244    1.108   .     S
C239   H245    1.112   .     S
C239   C240    1.527   .     S
C240   H243    1.111   .     S
C240   H242    1.109   .     S
C240   H241    1.109   .     S
C246   H252    1.103   .     S
C246   C247    1.530   .     S
C246   H251    1.112   .     S
C247   H248    1.111   .     S
C247   H249    1.109   .     S
C247   H250    1.111   .     S
C253   O255    1.396   .     S
C253   O254    1.224   .     D
O255   H256    1.014   .     S
C257   O259    1.397   .     S
C257   O258    1.223   .     D
O259   H260    1.011   .     S
C261   O263    1.395   .     S
C261   O262    1.224   .     D
O263   H264    1.014   .     S
C265   O266    1.221   .     D
C265   O267    1.398   .     S
O267   H268    1.014   .     S
C269   H275    1.112   .     S
C269   C834    1.527   1_554 S
C269   H838    1.106   1_554 S
C270   H272    1.108   .     S
C270   H273    1.111   .     S
C270   C833    1.527   .     S
C270   H835    1.111   .     S
H271   C834    1.111   1_554 S
H274   C833    1.106   .     S
C276   H282    1.111   .     S
C276   H281    1.107   .     S
C276   C277    1.531   .     S
C277   H278    1.109   .     S
C277   H843    1.108   .     S
C277   H844    1.110   .     S
H279   C841    1.108   1_554 S
H280   C841    1.110   1_554 S
O283   C287    1.296   .     A
O283   Cu295   1.961   .     S
O284   C288    1.298   .     A
O284   Cu296   1.961   .     S
O285   Cu296   1.957   .     S
O285   C287    1.295   .     A
O286   Cu295   1.957   .     S
O286   C288    1.310   .     A
C287   C307    1.462   .     S
C288   C308    1.492   .     S
O289   C293    1.290   .     A
O289   Cu295   1.960   .     S
O290   C294    1.294   .     A
O290   Cu296   1.960   .     S
O291   Cu296   1.955   .     S
O291   C293    1.288   .     A
O292   C294    1.285   .     A
O292   Cu295   1.955   .     S
C293   C297    1.427   .     S
C294   C298    1.430   .     S
Cu295  Cu296   2.688   .     S
Cu295  N324    2.019   .     S
Cu296  N323    2.019   .     S
C297   C486    1.327   1_455 S
C297   H487    1.081   1_455 S
C298   C391    1.327   .     S
C298   H394    1.088   .     S
H299   C391    1.081   .     S
H300   C486    1.088   1_455 S
C301   C315    1.395   .     A
C301   C305    1.398   .     A
C301   H303    1.084   .     S
C302   C306    1.399   .     A
C302   C316    1.391   .     A
C302   H304    1.084   .     S
C305   C333    1.516   .     S
C305   C307    1.421   .     A
C306   C308    1.437   .     A
C306   C340    1.524   .     S
C307   C309    1.418   .     A
C308   C310    1.426   .     A
C309   C311    1.394   .     A
C309   C347    1.485   .     S
C310   C351    1.483   .     S
C310   C312    1.395   .     A
C311   C315    1.394   .     A
C311   H313    1.085   .     S
C312   C316    1.389   .     A
C312   H314    1.085   .     S
C316   C33     1.461   1_565 S
C317   C321    1.406   .     A
C317   H319    1.083   .     S
C317   C331    1.392   .     A
C318   C322    1.404   .     A
C318   H320    1.084   .     S
C318   C332    1.394   .     A
C321   C355    1.481   .     S
C321   N323    1.385   .     A
C322   N324    1.381   .     A
C322   C359    1.470   .     S
N323   C325    1.370   .     A
N324   C326    1.369   .     A
C325   H327    1.079   .     S
C325   C329    1.422   .     A
C326   H328    1.080   .     S
C326   C330    1.425   .     A
C329   C331    1.425   .     A
C329   C363    1.518   .     S
C330   C370    1.521   .     S
C330   C332    1.427   .     A
C331   C896    1.515   1_554 S
C332   C895    1.515   .     S
C333   H338    1.108   .     S
C333   H339    1.112   .     S
C333   C334    1.527   .     S
C334   H337    1.111   .     S
C334   H336    1.109   .     S
C334   H335    1.109   .     S
C340   H346    1.103   .     S
C340   C341    1.530   .     S
C340   H345    1.112   .     S
C341   H342    1.111   .     S
C341   H343    1.109   .     S
C341   H344    1.111   .     S
C347   O349    1.396   .     S
C347   O348    1.224   .     D
O349   H350    1.014   .     S
C351   O353    1.397   .     S
C351   O352    1.223   .     D
O353   H354    1.011   .     S
C355   O357    1.395   .     S
C355   O356    1.224   .     D
O357   H358    1.014   .     S
C359   O360    1.221   .     D
C359   O361    1.398   .     S
O361   H362    1.014   .     S
C363   H369    1.112   .     S
C363   C928    1.527   1_554 S
C363   H932    1.106   1_554 S
C364   H366    1.108   .     S
C364   H367    1.111   .     S
C364   C927    1.527   .     S
C364   H929    1.111   .     S
H365   C928    1.111   1_554 S
H368   C927    1.106   .     S
C370   H376    1.111   .     S
C370   H375    1.107   .     S
C370   C371    1.531   .     S
C371   H372    1.109   .     S
C371   H937    1.108   .     S
C371   H938    1.110   .     S
H373   C935    1.108   1_554 S
H374   C935    1.110   1_554 S
O377   C381    1.296   .     A
O377   Cu389   1.961   .     S
O378   C382    1.298   .     A
O378   Cu390   1.961   .     S
O379   Cu390   1.957   .     S
O379   C381    1.295   .     A
O380   Cu389   1.957   .     S
O380   C382    1.310   .     A
C381   C401    1.462   .     S
C382   C402    1.492   .     S
O383   C387    1.290   .     A
O383   Cu389   1.960   .     S
O384   C388    1.294   .     A
O384   Cu390   1.960   .     S
O385   Cu390   1.955   .     S
O385   C387    1.288   .     A
O386   C388    1.285   .     A
O386   Cu389   1.955   .     S
C387   C391    1.427   .     S
C388   C392    1.430   .     S
Cu389  Cu390   2.688   .     S
Cu389  N418    2.019   .     S
Cu390  N417    2.019   .     S
C392   C485    1.327   .     S
C392   H488    1.088   .     S
H393   C485    1.081   .     S
C395   C409    1.395   .     A
C395   C399    1.398   .     A
C395   H397    1.084   .     S
C396   C400    1.399   .     A
C396   C410    1.391   .     A
C396   H398    1.084   .     S
C399   C427    1.516   .     S
C399   C401    1.421   .     A
C400   C402    1.437   .     A
C400   C434    1.524   .     S
C401   C403    1.418   .     A
C402   C404    1.426   .     A
C403   C405    1.394   .     A
C403   C441    1.485   .     S
C404   C445    1.483   .     S
C404   C406    1.395   .     A
C405   C409    1.394   .     A
C405   H407    1.085   .     S
C406   C410    1.389   .     A
C406   H408    1.085   .     S
C410   C127    1.461   1_565 S
C411   C415    1.406   .     A
C411   H413    1.083   .     S
C411   C425    1.392   .     A
C412   C416    1.404   .     A
C412   H414    1.084   .     S
C412   C426    1.394   .     A
C415   C449    1.481   .     S
C415   N417    1.385   .     A
C416   N418    1.381   .     A
C416   C453    1.470   .     S
N417   C419    1.370   .     A
N418   C420    1.369   .     A
C419   H421    1.079   .     S
C419   C423    1.422   .     A
C420   H422    1.080   .     S
C420   C424    1.425   .     A
C423   C425    1.425   .     A
C423   C457    1.518   .     S
C424   C464    1.521   .     S
C424   C426    1.427   .     A
C425   C990    1.515   1_554 S
C426   C989    1.515   .     S
C427   H432    1.108   .     S
C427   H433    1.112   .     S
C427   C428    1.527   .     S
C428   H431    1.111   .     S
C428   H430    1.109   .     S
C428   H429    1.109   .     S
C434   H440    1.103   .     S
C434   C435    1.530   .     S
C434   H439    1.112   .     S
C435   H436    1.111   .     S
C435   H437    1.109   .     S
C435   H438    1.111   .     S
C441   O443    1.396   .     S
C441   O442    1.224   .     D
O443   H444    1.014   .     S
C445   O447    1.397   .     S
C445   O446    1.223   .     D
O447   H448    1.011   .     S
C449   O451    1.395   .     S
C449   O450    1.224   .     D
O451   H452    1.014   .     S
C453   O454    1.221   .     D
C453   O455    1.398   .     S
O455   H456    1.014   .     S
C457   H463    1.112   .     S
C457   C1022   1.527   1_554 S
C457   H1026   1.106   1_554 S
C458   H460    1.108   .     S
C458   H461    1.111   .     S
C458   C1021   1.527   .     S
C458   H1023   1.111   .     S
H459   C1022   1.111   1_554 S
H462   C1021   1.106   .     S
C464   H470    1.111   .     S
C464   H469    1.107   .     S
C464   C465    1.531   .     S
C465   H466    1.109   .     S
C465   H1031   1.108   .     S
C465   H1032   1.110   .     S
H467   C1029   1.108   1_554 S
H468   C1029   1.110   1_554 S
O471   C475    1.296   .     A
O471   Cu483   1.961   .     S
O472   C476    1.298   .     A
O472   Cu484   1.961   .     S
O473   Cu484   1.957   .     S
O473   C475    1.295   .     A
O474   Cu483   1.957   .     S
O474   C476    1.310   .     A
C475   C495    1.462   .     S
C476   C496    1.492   .     S
O477   C481    1.290   .     A
O477   Cu483   1.960   .     S
O478   C482    1.294   .     A
O478   Cu484   1.960   .     S
O479   Cu484   1.955   .     S
O479   C481    1.288   .     A
O480   C482    1.285   .     A
O480   Cu483   1.955   .     S
C481   C485    1.427   .     S
C482   C486    1.430   .     S
Cu483  Cu484   2.688   .     S
Cu483  N512    2.019   .     S
Cu484  N511    2.019   .     S
C486   C297    1.327   1_655 S
C486   H300    1.088   1_655 S
H487   C297    1.081   1_655 S
C489   C503    1.395   .     A
C489   C493    1.398   .     A
C489   H491    1.084   .     S
C490   C494    1.399   .     A
C490   C504    1.391   .     A
C490   H492    1.084   .     S
C493   C521    1.516   .     S
C493   C495    1.421   .     A
C494   C496    1.437   .     A
C494   C528    1.524   .     S
C495   C497    1.418   .     A
C496   C498    1.426   .     A
C497   C499    1.394   .     A
C497   C535    1.485   .     S
C498   C539    1.483   .     S
C498   C500    1.395   .     A
C499   C503    1.394   .     A
C499   H501    1.085   .     S
C500   C504    1.389   .     A
C500   H502    1.085   .     S
C504   C221    1.461   1_565 S
C505   C509    1.406   .     A
C505   H507    1.083   .     S
C505   C519    1.392   .     A
C506   C510    1.404   .     A
C506   H508    1.084   .     S
C506   C520    1.394   .     A
C509   C543    1.481   .     S
C509   N511    1.385   .     A
C510   N512    1.381   .     A
C510   C547    1.470   .     S
N511   C513    1.370   .     A
N512   C514    1.369   .     A
C513   H515    1.079   .     S
C513   C517    1.422   .     A
C514   H516    1.080   .     S
C514   C518    1.425   .     A
C517   C519    1.425   .     A
C517   C551    1.518   .     S
C518   C558    1.521   .     S
C518   C520    1.427   .     A
C519   C1084   1.515   1_554 S
C520   C1083   1.515   .     S
C521   H526    1.108   .     S
C521   H527    1.112   .     S
C521   C522    1.527   .     S
C522   H525    1.111   .     S
C522   H524    1.109   .     S
C522   H523    1.109   .     S
C528   H534    1.103   .     S
C528   C529    1.530   .     S
C528   H533    1.112   .     S
C529   H530    1.111   .     S
C529   H531    1.109   .     S
C529   H532    1.111   .     S
C535   O537    1.396   .     S
C535   O536    1.224   .     D
O537   H538    1.014   .     S
C539   O541    1.397   .     S
C539   O540    1.223   .     D
O541   H542    1.011   .     S
C543   O545    1.395   .     S
C543   O544    1.224   .     D
O545   H546    1.014   .     S
C547   O548    1.221   .     D
C547   O549    1.398   .     S
O549   H550    1.014   .     S
C551   H557    1.112   .     S
C551   C1116   1.527   1_554 S
C551   H1120   1.106   1_554 S
C552   H554    1.108   .     S
C552   H555    1.111   .     S
C552   C1115   1.527   .     S
C552   H1117   1.111   .     S
H553   C1116   1.111   1_554 S
H556   C1115   1.106   .     S
C558   H564    1.111   .     S
C558   H563    1.107   .     S
C558   C559    1.531   .     S
C559   H560    1.109   .     S
C559   H1125   1.108   .     S
C559   H1126   1.110   .     S
H561   C1123   1.108   1_554 S
H562   C1123   1.110   1_554 S
O565   C569    1.296   .     A
O565   Cu577   1.961   .     S
O566   C570    1.298   .     A
O566   Cu578   1.961   .     S
O567   Cu578   1.957   .     S
O567   C569    1.295   .     A
O568   Cu577   1.957   .     S
O568   C570    1.310   .     A
C569   C589    1.462   .     S
C570   C590    1.492   .     S
O571   C575    1.290   .     A
O571   Cu577   1.960   .     S
O572   C576    1.294   .     A
O572   Cu578   1.960   .     S
O573   Cu578   1.955   .     S
O573   C575    1.288   .     A
O574   C576    1.285   .     A
O574   Cu577   1.955   .     S
C575   C579    1.427   .     S
C576   C580    1.430   .     S
Cu577  Cu578   2.688   .     S
Cu577  N606    2.019   .     S
Cu578  N605    2.019   .     S
C579   C768    1.327   1_455 S
C579   H769    1.081   1_455 S
C580   C673    1.327   .     S
C580   H676    1.088   .     S
H581   C673    1.081   .     S
H582   C768    1.088   1_455 S
C583   C597    1.395   .     A
C583   C587    1.398   .     A
C583   H585    1.084   .     S
C584   C588    1.399   .     A
C584   C598    1.391   .     A
C584   H586    1.084   .     S
C587   C615    1.516   .     S
C587   C589    1.421   .     A
C588   C590    1.437   .     A
C588   C622    1.524   .     S
C589   C591    1.418   .     A
C590   C592    1.426   .     A
C591   C593    1.394   .     A
C591   C629    1.485   .     S
C592   C633    1.483   .     S
C592   C594    1.395   .     A
C593   C597    1.394   .     A
C593   H595    1.085   .     S
C594   C598    1.389   .     A
C594   H596    1.085   .     S
C597   C880    1.461   1_545 S
C598   C879    1.461   .     S
C599   C603    1.406   .     A
C599   H601    1.083   .     S
C599   C613    1.392   .     A
C600   C604    1.404   .     A
C600   H602    1.084   .     S
C600   C614    1.394   .     A
C603   C637    1.481   .     S
C603   N605    1.385   .     A
C604   N606    1.381   .     A
C604   C641    1.470   .     S
N605   C607    1.370   .     A
N606   C608    1.369   .     A
C607   H609    1.079   .     S
C607   C611    1.422   .     A
C608   H610    1.080   .     S
C608   C612    1.425   .     A
C611   C613    1.425   .     A
C611   C645    1.518   .     S
C612   C652    1.521   .     S
C612   C614    1.427   .     A
C614   C49     1.515   1_556 S
C615   H620    1.108   .     S
C615   H621    1.112   .     S
C615   C616    1.527   .     S
C616   H619    1.111   .     S
C616   H618    1.109   .     S
C616   H617    1.109   .     S
C622   H628    1.103   .     S
C622   C623    1.530   .     S
C622   H627    1.112   .     S
C623   H624    1.111   .     S
C623   H625    1.109   .     S
C623   H626    1.111   .     S
C629   O631    1.396   .     S
C629   O630    1.224   .     D
O631   H632    1.014   .     S
C633   O635    1.397   .     S
C633   O634    1.223   .     D
O635   H636    1.011   .     S
C637   O639    1.395   .     S
C637   O638    1.224   .     D
O639   H640    1.014   .     S
C641   O642    1.221   .     D
C641   O643    1.398   .     S
O643   H644    1.014   .     S
C645   H651    1.112   .     S
C646   H648    1.108   .     S
C646   H649    1.111   .     S
C646   C81     1.527   1_556 S
C646   H83     1.111   1_556 S
H650   C81     1.106   1_556 S
C652   H658    1.111   .     S
C652   H657    1.107   .     S
C652   C653    1.531   .     S
C653   H654    1.109   .     S
C653   H91     1.108   1_556 S
C653   H92     1.110   1_556 S
O659   C663    1.296   .     A
O659   Cu671   1.961   .     S
O660   C664    1.298   .     A
O660   Cu672   1.961   .     S
O661   Cu672   1.957   .     S
O661   C663    1.295   .     A
O662   Cu671   1.957   .     S
O662   C664    1.310   .     A
C663   C683    1.462   .     S
C664   C684    1.492   .     S
O665   C669    1.290   .     A
O665   Cu671   1.960   .     S
O666   C670    1.294   .     A
O666   Cu672   1.960   .     S
O667   Cu672   1.955   .     S
O667   C669    1.288   .     A
O668   C670    1.285   .     A
O668   Cu671   1.955   .     S
C669   C673    1.427   .     S
C670   C674    1.430   .     S
Cu671  Cu672   2.688   .     S
Cu671  N700    2.019   .     S
Cu672  N699    2.019   .     S
C674   C767    1.327   .     S
C674   H770    1.088   .     S
H675   C767    1.081   .     S
C677   C691    1.395   .     A
C677   C681    1.398   .     A
C677   H679    1.084   .     S
C678   C682    1.399   .     A
C678   C692    1.391   .     A
C678   H680    1.084   .     S
C681   C709    1.516   .     S
C681   C683    1.421   .     A
C682   C684    1.437   .     A
C682   C716    1.524   .     S
C683   C685    1.418   .     A
C684   C686    1.426   .     A
C685   C687    1.394   .     A
C685   C723    1.485   .     S
C686   C727    1.483   .     S
C686   C688    1.395   .     A
C687   C691    1.394   .     A
C687   H689    1.085   .     S
C688   C692    1.389   .     A
C688   H690    1.085   .     S
C691   C974    1.461   1_545 S
C692   C973    1.461   .     S
C693   C697    1.406   .     A
C693   H695    1.083   .     S
C693   C707    1.392   .     A
C694   C698    1.404   .     A
C694   H696    1.084   .     S
C694   C708    1.394   .     A
C697   C731    1.481   .     S
C697   N699    1.385   .     A
C698   N700    1.381   .     A
C698   C735    1.470   .     S
N699   C701    1.370   .     A
N700   C702    1.369   .     A
C701   H703    1.079   .     S
C701   C705    1.422   .     A
C702   H704    1.080   .     S
C702   C706    1.425   .     A
C705   C707    1.425   .     A
C705   C739    1.518   .     S
C706   C746    1.521   .     S
C706   C708    1.427   .     A
C708   C143    1.515   1_556 S
C709   H714    1.108   .     S
C709   H715    1.112   .     S
C709   C710    1.527   .     S
C710   H713    1.111   .     S
C710   H712    1.109   .     S
C710   H711    1.109   .     S
C716   H722    1.103   .     S
C716   C717    1.530   .     S
C716   H721    1.112   .     S
C717   H718    1.111   .     S
C717   H719    1.109   .     S
C717   H720    1.111   .     S
C723   O725    1.396   .     S
C723   O724    1.224   .     D
O725   H726    1.014   .     S
C727   O729    1.397   .     S
C727   O728    1.223   .     D
O729   H730    1.011   .     S
C731   O733    1.395   .     S
C731   O732    1.224   .     D
O733   H734    1.014   .     S
C735   O736    1.221   .     D
C735   O737    1.398   .     S
O737   H738    1.014   .     S
C739   H745    1.112   .     S
C740   H742    1.108   .     S
C740   H743    1.111   .     S
C740   C175    1.527   1_556 S
C740   H177    1.111   1_556 S
H744   C175    1.106   1_556 S
C746   H752    1.111   .     S
C746   H751    1.107   .     S
C746   C747    1.531   .     S
C747   H748    1.109   .     S
C747   H185    1.108   1_556 S
C747   H186    1.110   1_556 S
O753   C757    1.296   .     A
O753   Cu765   1.961   .     S
O754   C758    1.298   .     A
O754   Cu766   1.961   .     S
O755   Cu766   1.957   .     S
O755   C757    1.295   .     A
O756   Cu765   1.957   .     S
O756   C758    1.310   .     A
C757   C777    1.462   .     S
C758   C778    1.492   .     S
O759   C763    1.290   .     A
O759   Cu765   1.960   .     S
O760   C764    1.294   .     A
O760   Cu766   1.960   .     S
O761   Cu766   1.955   .     S
O761   C763    1.288   .     A
O762   C764    1.285   .     A
O762   Cu765   1.955   .     S
C763   C767    1.427   .     S
C764   C768    1.430   .     S
Cu765  Cu766   2.688   .     S
Cu765  N794    2.019   .     S
Cu766  N793    2.019   .     S
C768   C579    1.327   1_655 S
C768   H582    1.088   1_655 S
H769   C579    1.081   1_655 S
C771   C785    1.395   .     A
C771   C775    1.398   .     A
C771   H773    1.084   .     S
C772   C776    1.399   .     A
C772   C786    1.391   .     A
C772   H774    1.084   .     S
C775   C803    1.516   .     S
C775   C777    1.421   .     A
C776   C778    1.437   .     A
C776   C810    1.524   .     S
C777   C779    1.418   .     A
C778   C780    1.426   .     A
C779   C781    1.394   .     A
C779   C817    1.485   .     S
C780   C821    1.483   .     S
C780   C782    1.395   .     A
C781   C785    1.394   .     A
C781   H783    1.085   .     S
C782   C786    1.389   .     A
C782   H784    1.085   .     S
C785   C1068   1.461   1_545 S
C786   C1067   1.461   .     S
C787   C791    1.406   .     A
C787   H789    1.083   .     S
C787   C801    1.392   .     A
C788   C792    1.404   .     A
C788   H790    1.084   .     S
C788   C802    1.394   .     A
C791   C825    1.481   .     S
C791   N793    1.385   .     A
C792   N794    1.381   .     A
C792   C829    1.470   .     S
N793   C795    1.370   .     A
N794   C796    1.369   .     A
C795   H797    1.079   .     S
C795   C799    1.422   .     A
C796   H798    1.080   .     S
C796   C800    1.425   .     A
C799   C801    1.425   .     A
C799   C833    1.518   .     S
C800   C840    1.521   .     S
C800   C802    1.427   .     A
C802   C237    1.515   1_556 S
C803   H808    1.108   .     S
C803   H809    1.112   .     S
C803   C804    1.527   .     S
C804   H807    1.111   .     S
C804   H806    1.109   .     S
C804   H805    1.109   .     S
C810   H816    1.103   .     S
C810   C811    1.530   .     S
C810   H815    1.112   .     S
C811   H812    1.111   .     S
C811   H813    1.109   .     S
C811   H814    1.111   .     S
C817   O819    1.396   .     S
C817   O818    1.224   .     D
O819   H820    1.014   .     S
C821   O823    1.397   .     S
C821   O822    1.223   .     D
O823   H824    1.011   .     S
C825   O827    1.395   .     S
C825   O826    1.224   .     D
O827   H828    1.014   .     S
C829   O830    1.221   .     D
C829   O831    1.398   .     S
O831   H832    1.014   .     S
C833   H839    1.112   .     S
C834   H836    1.108   .     S
C834   H837    1.111   .     S
C834   C269    1.527   1_556 S
C834   H271    1.111   1_556 S
H838   C269    1.106   1_556 S
C840   H846    1.111   .     S
C840   H845    1.107   .     S
C840   C841    1.531   .     S
C841   H842    1.109   .     S
C841   H279    1.108   1_556 S
C841   H280    1.110   1_556 S
O847   C851    1.296   .     A
O847   Cu859   1.961   .     S
O848   C852    1.298   .     A
O848   Cu860   1.961   .     S
O849   Cu860   1.957   .     S
O849   C851    1.295   .     A
O850   Cu859   1.957   .     S
O850   C852    1.310   .     A
C851   C871    1.462   .     S
C852   C872    1.492   .     S
O853   C857    1.290   .     A
O853   Cu859   1.960   .     S
O854   C858    1.294   .     A
O854   Cu860   1.960   .     S
O855   Cu860   1.955   .     S
O855   C857    1.288   .     A
O856   C858    1.285   .     A
O856   Cu859   1.955   .     S
C857   C861    1.427   .     S
C858   C862    1.430   .     S
Cu859  Cu860   2.688   .     S
Cu859  N888    2.019   .     S
Cu860  N887    2.019   .     S
C861   C1050   1.327   1_455 S
C861   H1051   1.081   1_455 S
C862   C955    1.327   .     S
C862   H958    1.088   .     S
H863   C955    1.081   .     S
H864   C1050   1.088   1_455 S
C865   C879    1.395   .     A
C865   C869    1.398   .     A
C865   H867    1.084   .     S
C866   C870    1.399   .     A
C866   C880    1.391   .     A
C866   H868    1.084   .     S
C869   C897    1.516   .     S
C869   C871    1.421   .     A
C870   C872    1.437   .     A
C870   C904    1.524   .     S
C871   C873    1.418   .     A
C872   C874    1.426   .     A
C873   C875    1.394   .     A
C873   C911    1.485   .     S
C874   C915    1.483   .     S
C874   C876    1.395   .     A
C875   C879    1.394   .     A
C875   H877    1.085   .     S
C876   C880    1.389   .     A
C876   H878    1.085   .     S
C880   C597    1.461   1_565 S
C881   C885    1.406   .     A
C881   H883    1.083   .     S
C881   C895    1.392   .     A
C882   C886    1.404   .     A
C882   H884    1.084   .     S
C882   C896    1.394   .     A
C885   C919    1.481   .     S
C885   N887    1.385   .     A
C886   N888    1.381   .     A
C886   C923    1.470   .     S
N887   C889    1.370   .     A
N888   C890    1.369   .     A
C889   H891    1.079   .     S
C889   C893    1.422   .     A
C890   H892    1.080   .     S
C890   C894    1.425   .     A
C893   C895    1.425   .     A
C893   C927    1.518   .     S
C894   C934    1.521   .     S
C894   C896    1.427   .     A
C896   C331    1.515   1_556 S
C897   H902    1.108   .     S
C897   H903    1.112   .     S
C897   C898    1.527   .     S
C898   H901    1.111   .     S
C898   H900    1.109   .     S
C898   H899    1.109   .     S
C904   H910    1.103   .     S
C904   C905    1.530   .     S
C904   H909    1.112   .     S
C905   H906    1.111   .     S
C905   H907    1.109   .     S
C905   H908    1.111   .     S
C911   O913    1.396   .     S
C911   O912    1.224   .     D
O913   H914    1.014   .     S
C915   O917    1.397   .     S
C915   O916    1.223   .     D
O917   H918    1.011   .     S
C919   O921    1.395   .     S
C919   O920    1.224   .     D
O921   H922    1.014   .     S
C923   O924    1.221   .     D
C923   O925    1.398   .     S
O925   H926    1.014   .     S
C927   H933    1.112   .     S
C928   H930    1.108   .     S
C928   H931    1.111   .     S
C928   C363    1.527   1_556 S
C928   H365    1.111   1_556 S
H932   C363    1.106   1_556 S
C934   H940    1.111   .     S
C934   H939    1.107   .     S
C934   C935    1.531   .     S
C935   H936    1.109   .     S
C935   H373    1.108   1_556 S
C935   H374    1.110   1_556 S
O941   C945    1.296   .     A
O941   Cu953   1.961   .     S
O942   C946    1.298   .     A
O942   Cu954   1.961   .     S
O943   Cu954   1.957   .     S
O943   C945    1.295   .     A
O944   Cu953   1.957   .     S
O944   C946    1.310   .     A
C945   C965    1.462   .     S
C946   C966    1.492   .     S
O947   C951    1.290   .     A
O947   Cu953   1.960   .     S
O948   C952    1.294   .     A
O948   Cu954   1.960   .     S
O949   Cu954   1.955   .     S
O949   C951    1.288   .     A
O950   C952    1.285   .     A
O950   Cu953   1.955   .     S
C951   C955    1.427   .     S
C952   C956    1.430   .     S
Cu953  Cu954   2.688   .     S
Cu953  N982    2.019   .     S
Cu954  N981    2.019   .     S
C956   C1049   1.327   .     S
C956   H1052   1.088   .     S
H957   C1049   1.081   .     S
C959   C973    1.395   .     A
C959   C963    1.398   .     A
C959   H961    1.084   .     S
C960   C964    1.399   .     A
C960   C974    1.391   .     A
C960   H962    1.084   .     S
C963   C991    1.516   .     S
C963   C965    1.421   .     A
C964   C966    1.437   .     A
C964   C998    1.524   .     S
C965   C967    1.418   .     A
C966   C968    1.426   .     A
C967   C969    1.394   .     A
C967   C1005   1.485   .     S
C968   C1009   1.483   .     S
C968   C970    1.395   .     A
C969   C973    1.394   .     A
C969   H971    1.085   .     S
C970   C974    1.389   .     A
C970   H972    1.085   .     S
C974   C691    1.461   1_565 S
C975   C979    1.406   .     A
C975   H977    1.083   .     S
C975   C989    1.392   .     A
C976   C980    1.404   .     A
C976   H978    1.084   .     S
C976   C990    1.394   .     A
C979   C1013   1.481   .     S
C979   N981    1.385   .     A
C980   N982    1.381   .     A
C980   C1017   1.470   .     S
N981   C983    1.370   .     A
N982   C984    1.369   .     A
C983   H985    1.079   .     S
C983   C987    1.422   .     A
C984   H986    1.080   .     S
C984   C988    1.425   .     A
C987   C989    1.425   .     A
C987   C1021   1.518   .     S
C988   C1028   1.521   .     S
C988   C990    1.427   .     A
C990   C425    1.515   1_556 S
C991   H996    1.108   .     S
C991   H997    1.112   .     S
C991   C992    1.527   .     S
C992   H995    1.111   .     S
C992   H994    1.109   .     S
C992   H993    1.109   .     S
C998   H1004   1.103   .     S
C998   C999    1.530   .     S
C998   H1003   1.112   .     S
C999   H1000   1.111   .     S
C999   H1001   1.109   .     S
C999   H1002   1.111   .     S
C1005  O1007   1.396   .     S
C1005  O1006   1.224   .     D
O1007  H1008   1.014   .     S
C1009  O1011   1.397   .     S
C1009  O1010   1.223   .     D
O1011  H1012   1.011   .     S
C1013  O1015   1.395   .     S
C1013  O1014   1.224   .     D
O1015  H1016   1.014   .     S
C1017  O1018   1.221   .     D
C1017  O1019   1.398   .     S
O1019  H1020   1.014   .     S
C1021  H1027   1.112   .     S
C1022  H1024   1.108   .     S
C1022  H1025   1.111   .     S
C1022  C457    1.527   1_556 S
C1022  H459    1.111   1_556 S
H1026  C457    1.106   1_556 S
C1028  H1034   1.111   .     S
C1028  H1033   1.107   .     S
C1028  C1029   1.531   .     S
C1029  H1030   1.109   .     S
C1029  H467    1.108   1_556 S
C1029  H468    1.110   1_556 S
O1035  C1039   1.296   .     A
O1035  Cu1047  1.961   .     S
O1036  C1040   1.298   .     A
O1036  Cu1048  1.961   .     S
O1037  Cu1048  1.957   .     S
O1037  C1039   1.295   .     A
O1038  Cu1047  1.957   .     S
O1038  C1040   1.310   .     A
C1039  C1059   1.462   .     S
C1040  C1060   1.492   .     S
O1041  C1045   1.290   .     A
O1041  Cu1047  1.960   .     S
O1042  C1046   1.294   .     A
O1042  Cu1048  1.960   .     S
O1043  Cu1048  1.955   .     S
O1043  C1045   1.288   .     A
O1044  C1046   1.285   .     A
O1044  Cu1047  1.955   .     S
C1045  C1049   1.427   .     S
C1046  C1050   1.430   .     S
Cu1047 Cu1048  2.688   .     S
Cu1047 N1076   2.019   .     S
Cu1048 N1075   2.019   .     S
C1050  C861    1.327   1_655 S
C1050  H864    1.088   1_655 S
H1051  C861    1.081   1_655 S
C1053  C1067   1.395   .     A
C1053  C1057   1.398   .     A
C1053  H1055   1.084   .     S
C1054  C1058   1.399   .     A
C1054  C1068   1.391   .     A
C1054  H1056   1.084   .     S
C1057  C1085   1.516   .     S
C1057  C1059   1.421   .     A
C1058  C1060   1.437   .     A
C1058  C1092   1.524   .     S
C1059  C1061   1.418   .     A
C1060  C1062   1.426   .     A
C1061  C1063   1.394   .     A
C1061  C1099   1.485   .     S
C1062  C1103   1.483   .     S
C1062  C1064   1.395   .     A
C1063  C1067   1.394   .     A
C1063  H1065   1.085   .     S
C1064  C1068   1.389   .     A
C1064  H1066   1.085   .     S
C1068  C785    1.461   1_565 S
C1069  C1073   1.406   .     A
C1069  H1071   1.083   .     S
C1069  C1083   1.392   .     A
C1070  C1074   1.404   .     A
C1070  H1072   1.084   .     S
C1070  C1084   1.394   .     A
C1073  C1107   1.481   .     S
C1073  N1075   1.385   .     A
C1074  N1076   1.381   .     A
C1074  C1111   1.470   .     S
N1075  C1077   1.370   .     A
N1076  C1078   1.369   .     A
C1077  H1079   1.079   .     S
C1077  C1081   1.422   .     A
C1078  H1080   1.080   .     S
C1078  C1082   1.425   .     A
C1081  C1083   1.425   .     A
C1081  C1115   1.518   .     S
C1082  C1122   1.521   .     S
C1082  C1084   1.427   .     A
C1084  C519    1.515   1_556 S
C1085  H1090   1.108   .     S
C1085  H1091   1.112   .     S
C1085  C1086   1.527   .     S
C1086  H1089   1.111   .     S
C1086  H1088   1.109   .     S
C1086  H1087   1.109   .     S
C1092  H1098   1.103   .     S
C1092  C1093   1.530   .     S
C1092  H1097   1.112   .     S
C1093  H1094   1.111   .     S
C1093  H1095   1.109   .     S
C1093  H1096   1.111   .     S
C1099  O1101   1.396   .     S
C1099  O1100   1.224   .     D
O1101  H1102   1.014   .     S
C1103  O1105   1.397   .     S
C1103  O1104   1.223   .     D
O1105  H1106   1.011   .     S
C1107  O1109   1.395   .     S
C1107  O1108   1.224   .     D
O1109  H1110   1.014   .     S
C1111  O1112   1.221   .     D
C1111  O1113   1.398   .     S
O1113  H1114   1.014   .     S
C1115  H1121   1.112   .     S
C1116  H1118   1.108   .     S
C1116  H1119   1.111   .     S
C1116  C551    1.527   1_556 S
C1116  H553    1.111   1_556 S
H1120  C551    1.106   1_556 S
C1122  H1128   1.111   .     S
C1122  H1127   1.107   .     S
C1122  C1123   1.531   .     S
C1123  H1124   1.109   .     S
C1123  H561    1.108   1_556 S
C1123  H562    1.110   1_556 S
