data_str_m2_o2_o10_pcu_sym.179
_audit_creation_date              2020-01-03
_audit_creation_method            'Materials Studio'
_symmetry_space_group_name_H-M    'P1'
_symmetry_Int_Tables_number       1
_symmetry_cell_setting            triclinic
loop_
_symmetry_equiv_pos_as_xyz
  x,y,z
_cell_length_a                    26.1371
_cell_length_b                    30.1832
_cell_length_c                    27.7900
_cell_angle_alpha                 90.4911
_cell_angle_beta                  98.1769
_cell_angle_gamma                 90.4046
loop_
_atom_site_label
_atom_site_type_symbol
_atom_site_fract_x
_atom_site_fract_y
_atom_site_fract_z
_atom_site_U_iso_or_equiv
_atom_site_adp_type
_atom_site_occupancy
C1     C     0.16675   0.16507   0.24980   0.00000  Uiso   1.00
C2     C     0.16695   0.33513   0.25025   0.00000  Uiso   1.00
C3     C     0.20577   0.27190   0.05958   0.00000  Uiso   1.00
C4     C     0.14124   0.21618   0.44207   0.00000  Uiso   1.00
C5     C     0.20425   0.27240   0.10999   0.00000  Uiso   1.00
C6     C     0.14077   0.21757   0.39140   0.00000  Uiso   1.00
C7     C     0.13015   0.22593   0.09967   0.00000  Uiso   1.00
C8     C     0.19418   0.28157   0.39938   0.00000  Uiso   1.00
C9     C     0.12871   0.22703   0.04859   0.00000  Uiso   1.00
C10    C     0.19277   0.28268   0.45007   0.00000  Uiso   1.00
C11    C     0.16724   0.24943   0.02744   0.00000  Uiso   1.00
C12    C     0.16708   0.24935   0.47272   0.00000  Uiso   1.00
C13    C     0.06789   0.24993   0.23751   0.00000  Uiso   1.00
C14    C     0.26544   0.25000   0.26249   0.00000  Uiso   1.00
C15    C     0.01253   0.24986   0.23067   0.00000  Uiso   1.00
C16    C     0.32080   0.25003   0.26934   0.00000  Uiso   1.00
C17    C     0.13724   0.04711   0.27513   0.00000  Uiso   1.00
C18    C     0.15520   0.45306   0.20907   0.00000  Uiso   1.00
C19    C     0.13577   0.09302   0.27550   0.00000  Uiso   1.00
C20    C     0.15369   0.40712   0.20825   0.00000  Uiso   1.00
C21    C     0.16819   0.11702   0.24941   0.00000  Uiso   1.00
C22    C     0.16830   0.38356   0.25102   0.00000  Uiso   1.00
C23    C     0.20231   0.09514   0.22301   0.00000  Uiso   1.00
C24    C     0.18429   0.40644   0.29472   0.00000  Uiso   1.00
C25    C     0.20581   0.04886   0.22368   0.00000  Uiso   1.00
C26    C     0.18699   0.45277   0.29615   0.00000  Uiso   1.00
C27    C     0.17290   0.02473   0.25071   0.00000  Uiso   1.00
C28    C     0.17285   0.47619   0.25225   0.00000  Uiso   1.00
Cu29   Cu    0.16667   0.25000   0.29822   0.00000  Uiso   1.00
Cu30   Cu    0.16667   0.25001   0.20179   0.00000  Uiso   1.00
H31    H     0.32569   0.24966   0.19364   0.00000  Uiso   1.00
H32    H     0.00763   0.25024   0.30637   0.00000  Uiso   1.00
H33    H     0.11046   0.02888   0.29407   0.00000  Uiso   1.00
H34    H     0.14228   0.47076   0.17585   0.00000  Uiso   1.00
H35    H     0.10863   0.10980   0.29531   0.00000  Uiso   1.00
H36    H     0.14036   0.39007   0.17427   0.00000  Uiso   1.00
H37    H     0.22720   0.11442   0.20296   0.00000  Uiso   1.00
H38    H     0.19522   0.38808   0.32781   0.00000  Uiso   1.00
H39    H     0.23748   0.28888   0.04637   0.00000  Uiso   1.00
H40    H     0.12162   0.18886   0.45672   0.00000  Uiso   1.00
H41    H     0.23371   0.29049   0.13373   0.00000  Uiso   1.00
H42    H     0.11993   0.19220   0.36867   0.00000  Uiso   1.00
H43    H     0.09701   0.21058   0.02605   0.00000  Uiso   1.00
H44    H     0.21112   0.31019   0.47107   0.00000  Uiso   1.00
N45    N     0.16667   0.25001   0.12935   0.00000  Uiso   1.00
N46    N     0.16667   0.24999   0.37066   0.00000  Uiso   1.00
O47    O     0.16667   0.18573   0.29072   0.00000  Uiso   1.00
O48    O     0.16666   0.31428   0.20929   0.00000  Uiso   1.00
O49    O     0.16667   0.18573   0.20928   0.00000  Uiso   1.00
O50    O     0.16666   0.31427   0.29072   0.00000  Uiso   1.00
O51    O     0.09161   0.24999   0.28132   0.00000  Uiso   1.00
O52    O     0.24172   0.25001   0.21868   0.00000  Uiso   1.00
O53    O     0.09161   0.25000   0.19989   0.00000  Uiso   1.00
O54    O     0.24172   0.25000   0.30012   0.00000  Uiso   1.00
C55    C     0.24466   0.02700   0.19539   0.00000  Uiso   1.00
C56    C     0.29111   0.00857   0.22903   0.00000  Uiso   1.00
C57    C     0.33318   0.49257   0.20031   0.00000  Uiso   1.00
H58    H     0.31775   0.46610   0.17409   0.00000  Uiso   1.00
H59    H     0.01463   0.02049   0.18028   0.00000  Uiso   1.00
H60    H     0.03253   0.47895   0.22568   0.00000  Uiso   1.00
H61    H     0.30781   0.03478   0.25509   0.00000  Uiso   1.00
H62    H     0.27857   0.48017   0.24968   0.00000  Uiso   1.00
H63    H     0.22588   0.00034   0.17132   0.00000  Uiso   1.00
H64    H     0.25921   0.05154   0.17083   0.00000  Uiso   1.00
C65    C     0.20404   0.47545   0.34492   0.00000  Uiso   1.00
C66    C     0.25774   0.49685   0.34780   0.00000  Uiso   1.00
C67    C     0.27625   0.01524   0.39866   0.00000  Uiso   1.00
H68    H     0.24894   0.04062   0.40869   0.00000  Uiso   1.00
H69    H     0.27939   0.48817   0.42573   0.00000  Uiso   1.00
H70    H     0.31492   0.03093   0.39944   0.00000  Uiso   1.00
H71    H     0.28592   0.47185   0.33856   0.00000  Uiso   1.00
H72    H     0.25656   0.02460   0.32182   0.00000  Uiso   1.00
H73    H     0.17538   0.00051   0.35248   0.00000  Uiso   1.00
H74    H     0.20526   0.45091   0.37471   0.00000  Uiso   1.00
O75    O     0.09218   0.20351   0.11993   0.00000  Uiso   1.00
C76    C     0.09195   0.15761   0.10865   0.00000  Uiso   1.00
H77    H     0.10113   0.13913   0.14315   0.00000  Uiso   1.00
H78    H     0.12080   0.14713   0.08487   0.00000  Uiso   1.00
C79    C     0.03815   0.14352   0.08490   0.00000  Uiso   1.00
H80    H     0.02776   0.16110   0.04999   0.00000  Uiso   1.00
H81    H     0.03722   0.10727   0.07765   0.00000  Uiso   1.00
H82    H     0.00931   0.15146   0.10938   0.00000  Uiso   1.00
O83    O     0.21992   0.31449   0.37791   0.00000  Uiso   1.00
C84    C     0.27361   0.31200   0.39385   0.00000  Uiso   1.00
H85    H     0.28823   0.27782   0.38925   0.00000  Uiso   1.00
H86    H     0.28298   0.32235   0.43262   0.00000  Uiso   1.00
C87    C     0.30182   0.34332   0.36375   0.00000  Uiso   1.00
H88    H     0.29015   0.37805   0.36963   0.00000  Uiso   1.00
H89    H     0.01088   0.34054   0.37470   0.00000  Uiso   1.00
H90    H     0.29237   0.33485   0.32451   0.00000  Uiso   1.00
C91    C     0.50008   0.16507   0.24980   0.00000  Uiso   1.00
C92    C     0.50028   0.33513   0.25025   0.00000  Uiso   1.00
C93    C     0.53910   0.27190   0.05958   0.00000  Uiso   1.00
C94    C     0.47457   0.21618   0.44207   0.00000  Uiso   1.00
C95    C     0.53758   0.27240   0.10999   0.00000  Uiso   1.00
C96    C     0.47411   0.21757   0.39140   0.00000  Uiso   1.00
C97    C     0.46348   0.22593   0.09967   0.00000  Uiso   1.00
C98    C     0.52752   0.28157   0.39938   0.00000  Uiso   1.00
C99    C     0.46204   0.22703   0.04859   0.00000  Uiso   1.00
C100   C     0.52610   0.28268   0.45007   0.00000  Uiso   1.00
C101   C     0.50057   0.24943   0.02744   0.00000  Uiso   1.00
C102   C     0.50041   0.24935   0.47272   0.00000  Uiso   1.00
C103   C     0.40122   0.24993   0.23751   0.00000  Uiso   1.00
C104   C     0.59877   0.25000   0.26249   0.00000  Uiso   1.00
C105   C     0.34587   0.24986   0.23067   0.00000  Uiso   1.00
C106   C     0.65413   0.25003   0.26934   0.00000  Uiso   1.00
C107   C     0.47057   0.04711   0.27513   0.00000  Uiso   1.00
C108   C     0.48854   0.45306   0.20907   0.00000  Uiso   1.00
C109   C     0.46910   0.09302   0.27550   0.00000  Uiso   1.00
C110   C     0.48702   0.40712   0.20825   0.00000  Uiso   1.00
C111   C     0.50152   0.11702   0.24941   0.00000  Uiso   1.00
C112   C     0.50163   0.38356   0.25102   0.00000  Uiso   1.00
C113   C     0.53564   0.09514   0.22301   0.00000  Uiso   1.00
C114   C     0.51762   0.40644   0.29472   0.00000  Uiso   1.00
C115   C     0.53914   0.04886   0.22368   0.00000  Uiso   1.00
C116   C     0.52033   0.45277   0.29615   0.00000  Uiso   1.00
C117   C     0.50623   0.02473   0.25071   0.00000  Uiso   1.00
C118   C     0.50618   0.47619   0.25225   0.00000  Uiso   1.00
Cu119  Cu    0.50000   0.25000   0.29822   0.00000  Uiso   1.00
Cu120  Cu    0.50000   0.25001   0.20179   0.00000  Uiso   1.00
H121   H     0.65903   0.24966   0.19364   0.00000  Uiso   1.00
H122   H     0.34096   0.25024   0.30637   0.00000  Uiso   1.00
H123   H     0.44379   0.02888   0.29407   0.00000  Uiso   1.00
H124   H     0.47562   0.47076   0.17585   0.00000  Uiso   1.00
H125   H     0.44196   0.10980   0.29531   0.00000  Uiso   1.00
H126   H     0.47369   0.39007   0.17427   0.00000  Uiso   1.00
H127   H     0.56053   0.11442   0.20296   0.00000  Uiso   1.00
H128   H     0.52855   0.38808   0.32781   0.00000  Uiso   1.00
H129   H     0.57081   0.28888   0.04637   0.00000  Uiso   1.00
H130   H     0.45496   0.18886   0.45672   0.00000  Uiso   1.00
H131   H     0.56705   0.29049   0.13373   0.00000  Uiso   1.00
H132   H     0.45326   0.19220   0.36867   0.00000  Uiso   1.00
H133   H     0.43034   0.21058   0.02605   0.00000  Uiso   1.00
H134   H     0.54445   0.31019   0.47107   0.00000  Uiso   1.00
N135   N     0.50000   0.25001   0.12935   0.00000  Uiso   1.00
N136   N     0.50000   0.24999   0.37066   0.00000  Uiso   1.00
O137   O     0.50000   0.18573   0.29072   0.00000  Uiso   1.00
O138   O     0.50000   0.31428   0.20929   0.00000  Uiso   1.00
O139   O     0.50000   0.18573   0.20928   0.00000  Uiso   1.00
O140   O     0.50000   0.31427   0.29072   0.00000  Uiso   1.00
O141   O     0.42495   0.24999   0.28132   0.00000  Uiso   1.00
O142   O     0.57505   0.25001   0.21868   0.00000  Uiso   1.00
O143   O     0.42495   0.25000   0.19989   0.00000  Uiso   1.00
O144   O     0.57505   0.25000   0.30012   0.00000  Uiso   1.00
C145   C     0.57799   0.02700   0.19539   0.00000  Uiso   1.00
C146   C     0.62444   0.00857   0.22903   0.00000  Uiso   1.00
C147   C     0.66652   0.49257   0.20031   0.00000  Uiso   1.00
H148   H     0.65108   0.46610   0.17409   0.00000  Uiso   1.00
H149   H     0.34796   0.02049   0.18028   0.00000  Uiso   1.00
H150   H     0.36587   0.47895   0.22568   0.00000  Uiso   1.00
H151   H     0.64114   0.03478   0.25509   0.00000  Uiso   1.00
H152   H     0.61190   0.48017   0.24968   0.00000  Uiso   1.00
H153   H     0.55921   0.00034   0.17132   0.00000  Uiso   1.00
H154   H     0.59255   0.05154   0.17083   0.00000  Uiso   1.00
C155   C     0.53737   0.47545   0.34492   0.00000  Uiso   1.00
C156   C     0.59108   0.49685   0.34780   0.00000  Uiso   1.00
C157   C     0.60958   0.01524   0.39866   0.00000  Uiso   1.00
H158   H     0.58228   0.04062   0.40869   0.00000  Uiso   1.00
H159   H     0.61272   0.48817   0.42573   0.00000  Uiso   1.00
H160   H     0.64825   0.03093   0.39944   0.00000  Uiso   1.00
H161   H     0.61925   0.47185   0.33856   0.00000  Uiso   1.00
H162   H     0.58990   0.02460   0.32182   0.00000  Uiso   1.00
H163   H     0.50872   0.00051   0.35248   0.00000  Uiso   1.00
H164   H     0.53859   0.45091   0.37471   0.00000  Uiso   1.00
O165   O     0.42551   0.20351   0.11993   0.00000  Uiso   1.00
C166   C     0.42528   0.15761   0.10865   0.00000  Uiso   1.00
H167   H     0.43446   0.13913   0.14315   0.00000  Uiso   1.00
H168   H     0.45413   0.14713   0.08487   0.00000  Uiso   1.00
C169   C     0.37149   0.14352   0.08490   0.00000  Uiso   1.00
H170   H     0.36109   0.16110   0.04999   0.00000  Uiso   1.00
H171   H     0.37056   0.10727   0.07765   0.00000  Uiso   1.00
H172   H     0.34264   0.15146   0.10938   0.00000  Uiso   1.00
O173   O     0.55326   0.31449   0.37791   0.00000  Uiso   1.00
C174   C     0.60695   0.31200   0.39385   0.00000  Uiso   1.00
H175   H     0.62156   0.27782   0.38925   0.00000  Uiso   1.00
H176   H     0.61631   0.32235   0.43262   0.00000  Uiso   1.00
C177   C     0.63516   0.34332   0.36375   0.00000  Uiso   1.00
H178   H     0.62349   0.37805   0.36963   0.00000  Uiso   1.00
H179   H     0.34422   0.34054   0.37470   0.00000  Uiso   1.00
H180   H     0.62570   0.33485   0.32451   0.00000  Uiso   1.00
C181   C     0.83342   0.16507   0.24980   0.00000  Uiso   1.00
C182   C     0.83362   0.33513   0.25025   0.00000  Uiso   1.00
C183   C     0.87244   0.27190   0.05958   0.00000  Uiso   1.00
C184   C     0.80791   0.21618   0.44207   0.00000  Uiso   1.00
C185   C     0.87092   0.27240   0.10999   0.00000  Uiso   1.00
C186   C     0.80744   0.21757   0.39140   0.00000  Uiso   1.00
C187   C     0.79682   0.22593   0.09967   0.00000  Uiso   1.00
C188   C     0.86085   0.28157   0.39938   0.00000  Uiso   1.00
C189   C     0.79537   0.22703   0.04859   0.00000  Uiso   1.00
C190   C     0.85944   0.28268   0.45007   0.00000  Uiso   1.00
C191   C     0.83391   0.24943   0.02744   0.00000  Uiso   1.00
C192   C     0.83374   0.24935   0.47272   0.00000  Uiso   1.00
C193   C     0.73456   0.24993   0.23751   0.00000  Uiso   1.00
C194   C     0.93211   0.25000   0.26249   0.00000  Uiso   1.00
C195   C     0.67920   0.24986   0.23067   0.00000  Uiso   1.00
C196   C     0.98746   0.25003   0.26934   0.00000  Uiso   1.00
C197   C     0.80390   0.04711   0.27513   0.00000  Uiso   1.00
C198   C     0.82187   0.45306   0.20907   0.00000  Uiso   1.00
C199   C     0.80243   0.09302   0.27550   0.00000  Uiso   1.00
C200   C     0.82036   0.40712   0.20825   0.00000  Uiso   1.00
C201   C     0.83486   0.11702   0.24941   0.00000  Uiso   1.00
C202   C     0.83496   0.38356   0.25102   0.00000  Uiso   1.00
C203   C     0.86898   0.09514   0.22301   0.00000  Uiso   1.00
C204   C     0.85095   0.40644   0.29472   0.00000  Uiso   1.00
C205   C     0.87247   0.04886   0.22368   0.00000  Uiso   1.00
C206   C     0.85366   0.45277   0.29615   0.00000  Uiso   1.00
C207   C     0.83957   0.02473   0.25071   0.00000  Uiso   1.00
C208   C     0.83952   0.47619   0.25225   0.00000  Uiso   1.00
Cu209  Cu    0.83333   0.25000   0.29822   0.00000  Uiso   1.00
Cu210  Cu    0.83333   0.25001   0.20179   0.00000  Uiso   1.00
H211   H     0.99236   0.24966   0.19364   0.00000  Uiso   1.00
H212   H     0.67430   0.25024   0.30637   0.00000  Uiso   1.00
H213   H     0.77713   0.02888   0.29407   0.00000  Uiso   1.00
H214   H     0.80895   0.47076   0.17585   0.00000  Uiso   1.00
H215   H     0.77530   0.10980   0.29531   0.00000  Uiso   1.00
H216   H     0.80702   0.39007   0.17427   0.00000  Uiso   1.00
H217   H     0.89386   0.11442   0.20296   0.00000  Uiso   1.00
H218   H     0.86189   0.38808   0.32781   0.00000  Uiso   1.00
H219   H     0.90414   0.28888   0.04637   0.00000  Uiso   1.00
H220   H     0.78829   0.18886   0.45672   0.00000  Uiso   1.00
H221   H     0.90038   0.29049   0.13373   0.00000  Uiso   1.00
H222   H     0.78660   0.19220   0.36867   0.00000  Uiso   1.00
H223   H     0.76368   0.21058   0.02605   0.00000  Uiso   1.00
H224   H     0.87779   0.31019   0.47107   0.00000  Uiso   1.00
N225   N     0.83333   0.25001   0.12935   0.00000  Uiso   1.00
N226   N     0.83333   0.24999   0.37066   0.00000  Uiso   1.00
O227   O     0.83334   0.18573   0.29072   0.00000  Uiso   1.00
O228   O     0.83333   0.31428   0.20929   0.00000  Uiso   1.00
O229   O     0.83334   0.18573   0.20928   0.00000  Uiso   1.00
O230   O     0.83333   0.31427   0.29072   0.00000  Uiso   1.00
O231   O     0.75828   0.24999   0.28132   0.00000  Uiso   1.00
O232   O     0.90839   0.25001   0.21868   0.00000  Uiso   1.00
O233   O     0.75828   0.25000   0.19989   0.00000  Uiso   1.00
O234   O     0.90839   0.25000   0.30012   0.00000  Uiso   1.00
C235   C     0.91133   0.02700   0.19539   0.00000  Uiso   1.00
C236   C     0.95777   0.00857   0.22903   0.00000  Uiso   1.00
C237   C     0.99985   0.49257   0.20031   0.00000  Uiso   1.00
H238   H     0.98442   0.46610   0.17409   0.00000  Uiso   1.00
H239   H     0.68129   0.02049   0.18028   0.00000  Uiso   1.00
H240   H     0.69920   0.47895   0.22568   0.00000  Uiso   1.00
H241   H     0.97447   0.03478   0.25509   0.00000  Uiso   1.00
H242   H     0.94523   0.48017   0.24968   0.00000  Uiso   1.00
H243   H     0.89254   0.00034   0.17132   0.00000  Uiso   1.00
H244   H     0.92588   0.05154   0.17083   0.00000  Uiso   1.00
C245   C     0.87071   0.47545   0.34492   0.00000  Uiso   1.00
C246   C     0.92441   0.49685   0.34780   0.00000  Uiso   1.00
C247   C     0.94292   0.01524   0.39866   0.00000  Uiso   1.00
H248   H     0.91561   0.04062   0.40869   0.00000  Uiso   1.00
H249   H     0.94605   0.48817   0.42573   0.00000  Uiso   1.00
H250   H     0.98158   0.03093   0.39944   0.00000  Uiso   1.00
H251   H     0.95259   0.47185   0.33856   0.00000  Uiso   1.00
H252   H     0.92323   0.02460   0.32182   0.00000  Uiso   1.00
H253   H     0.84205   0.00051   0.35248   0.00000  Uiso   1.00
H254   H     0.87193   0.45091   0.37471   0.00000  Uiso   1.00
O255   O     0.75885   0.20351   0.11993   0.00000  Uiso   1.00
C256   C     0.75862   0.15761   0.10865   0.00000  Uiso   1.00
H257   H     0.76780   0.13913   0.14315   0.00000  Uiso   1.00
H258   H     0.78747   0.14713   0.08487   0.00000  Uiso   1.00
C259   C     0.70482   0.14352   0.08490   0.00000  Uiso   1.00
H260   H     0.69442   0.16110   0.04999   0.00000  Uiso   1.00
H261   H     0.70389   0.10727   0.07765   0.00000  Uiso   1.00
H262   H     0.67598   0.15146   0.10938   0.00000  Uiso   1.00
O263   O     0.88659   0.31449   0.37791   0.00000  Uiso   1.00
C264   C     0.94028   0.31200   0.39385   0.00000  Uiso   1.00
H265   H     0.95490   0.27782   0.38925   0.00000  Uiso   1.00
H266   H     0.94964   0.32235   0.43262   0.00000  Uiso   1.00
C267   C     0.96849   0.34332   0.36375   0.00000  Uiso   1.00
H268   H     0.95682   0.37805   0.36963   0.00000  Uiso   1.00
H269   H     0.67755   0.34054   0.37470   0.00000  Uiso   1.00
H270   H     0.95903   0.33485   0.32451   0.00000  Uiso   1.00
C271   C     0.16675   0.66507   0.24980   0.00000  Uiso   1.00
C272   C     0.16695   0.83513   0.25025   0.00000  Uiso   1.00
C273   C     0.20577   0.77190   0.05958   0.00000  Uiso   1.00
C274   C     0.14124   0.71618   0.44207   0.00000  Uiso   1.00
C275   C     0.20425   0.77240   0.10999   0.00000  Uiso   1.00
C276   C     0.14077   0.71757   0.39140   0.00000  Uiso   1.00
C277   C     0.13015   0.72593   0.09967   0.00000  Uiso   1.00
C278   C     0.19418   0.78157   0.39938   0.00000  Uiso   1.00
C279   C     0.12871   0.72703   0.04859   0.00000  Uiso   1.00
C280   C     0.19277   0.78268   0.45007   0.00000  Uiso   1.00
C281   C     0.16724   0.74943   0.02744   0.00000  Uiso   1.00
C282   C     0.16708   0.74935   0.47272   0.00000  Uiso   1.00
C283   C     0.06789   0.74993   0.23751   0.00000  Uiso   1.00
C284   C     0.26544   0.75000   0.26249   0.00000  Uiso   1.00
C285   C     0.01253   0.74986   0.23067   0.00000  Uiso   1.00
C286   C     0.32080   0.75003   0.26934   0.00000  Uiso   1.00
C287   C     0.13724   0.54711   0.27513   0.00000  Uiso   1.00
C288   C     0.15520   0.95306   0.20907   0.00000  Uiso   1.00
C289   C     0.13577   0.59302   0.27550   0.00000  Uiso   1.00
C290   C     0.15369   0.90712   0.20825   0.00000  Uiso   1.00
C291   C     0.16819   0.61702   0.24941   0.00000  Uiso   1.00
C292   C     0.16830   0.88356   0.25102   0.00000  Uiso   1.00
C293   C     0.20231   0.59514   0.22301   0.00000  Uiso   1.00
C294   C     0.18429   0.90644   0.29472   0.00000  Uiso   1.00
C295   C     0.20581   0.54886   0.22368   0.00000  Uiso   1.00
C296   C     0.18699   0.95277   0.29615   0.00000  Uiso   1.00
C297   C     0.17290   0.52473   0.25071   0.00000  Uiso   1.00
C298   C     0.17285   0.97619   0.25225   0.00000  Uiso   1.00
Cu299  Cu    0.16667   0.75000   0.29822   0.00000  Uiso   1.00
Cu300  Cu    0.16667   0.75001   0.20179   0.00000  Uiso   1.00
H301   H     0.32569   0.74966   0.19364   0.00000  Uiso   1.00
H302   H     0.00763   0.75024   0.30637   0.00000  Uiso   1.00
H303   H     0.11046   0.52888   0.29407   0.00000  Uiso   1.00
H304   H     0.14228   0.97076   0.17585   0.00000  Uiso   1.00
H305   H     0.10863   0.60980   0.29531   0.00000  Uiso   1.00
H306   H     0.14036   0.89007   0.17427   0.00000  Uiso   1.00
H307   H     0.22720   0.61442   0.20296   0.00000  Uiso   1.00
H308   H     0.19522   0.88808   0.32781   0.00000  Uiso   1.00
H309   H     0.23748   0.78888   0.04637   0.00000  Uiso   1.00
H310   H     0.12162   0.68886   0.45672   0.00000  Uiso   1.00
H311   H     0.23371   0.79049   0.13373   0.00000  Uiso   1.00
H312   H     0.11993   0.69220   0.36867   0.00000  Uiso   1.00
H313   H     0.09701   0.71058   0.02605   0.00000  Uiso   1.00
H314   H     0.21112   0.81019   0.47107   0.00000  Uiso   1.00
N315   N     0.16667   0.75001   0.12935   0.00000  Uiso   1.00
N316   N     0.16667   0.74999   0.37066   0.00000  Uiso   1.00
O317   O     0.16667   0.68573   0.29072   0.00000  Uiso   1.00
O318   O     0.16666   0.81428   0.20929   0.00000  Uiso   1.00
O319   O     0.16667   0.68573   0.20928   0.00000  Uiso   1.00
O320   O     0.16666   0.81427   0.29072   0.00000  Uiso   1.00
O321   O     0.09161   0.74999   0.28132   0.00000  Uiso   1.00
O322   O     0.24172   0.75001   0.21868   0.00000  Uiso   1.00
O323   O     0.09161   0.75000   0.19989   0.00000  Uiso   1.00
O324   O     0.24172   0.75000   0.30012   0.00000  Uiso   1.00
C325   C     0.24466   0.52700   0.19539   0.00000  Uiso   1.00
C326   C     0.29111   0.50857   0.22903   0.00000  Uiso   1.00
C327   C     0.33318   0.99257   0.20031   0.00000  Uiso   1.00
H328   H     0.31775   0.96610   0.17409   0.00000  Uiso   1.00
H329   H     0.01463   0.52049   0.18028   0.00000  Uiso   1.00
H330   H     0.03253   0.97895   0.22568   0.00000  Uiso   1.00
H331   H     0.30781   0.53478   0.25509   0.00000  Uiso   1.00
H332   H     0.27857   0.98017   0.24968   0.00000  Uiso   1.00
H333   H     0.22588   0.50034   0.17132   0.00000  Uiso   1.00
H334   H     0.25921   0.55154   0.17083   0.00000  Uiso   1.00
C335   C     0.20404   0.97545   0.34492   0.00000  Uiso   1.00
C336   C     0.25774   0.99685   0.34780   0.00000  Uiso   1.00
C337   C     0.27625   0.51524   0.39866   0.00000  Uiso   1.00
H338   H     0.24894   0.54062   0.40869   0.00000  Uiso   1.00
H339   H     0.27939   0.98817   0.42573   0.00000  Uiso   1.00
H340   H     0.31492   0.53093   0.39944   0.00000  Uiso   1.00
H341   H     0.28592   0.97185   0.33856   0.00000  Uiso   1.00
H342   H     0.25656   0.52460   0.32182   0.00000  Uiso   1.00
H343   H     0.17538   0.50051   0.35248   0.00000  Uiso   1.00
H344   H     0.20526   0.95091   0.37471   0.00000  Uiso   1.00
O345   O     0.09218   0.70351   0.11993   0.00000  Uiso   1.00
C346   C     0.09195   0.65761   0.10865   0.00000  Uiso   1.00
H347   H     0.10113   0.63913   0.14315   0.00000  Uiso   1.00
H348   H     0.12080   0.64713   0.08487   0.00000  Uiso   1.00
C349   C     0.03815   0.64352   0.08490   0.00000  Uiso   1.00
H350   H     0.02776   0.66110   0.04999   0.00000  Uiso   1.00
H351   H     0.03722   0.60727   0.07765   0.00000  Uiso   1.00
H352   H     0.00931   0.65146   0.10938   0.00000  Uiso   1.00
O353   O     0.21992   0.81449   0.37791   0.00000  Uiso   1.00
C354   C     0.27361   0.81200   0.39385   0.00000  Uiso   1.00
H355   H     0.28823   0.77782   0.38925   0.00000  Uiso   1.00
H356   H     0.28298   0.82235   0.43262   0.00000  Uiso   1.00
C357   C     0.30182   0.84332   0.36375   0.00000  Uiso   1.00
H358   H     0.29015   0.87805   0.36963   0.00000  Uiso   1.00
H359   H     0.01088   0.84054   0.37470   0.00000  Uiso   1.00
H360   H     0.29237   0.83485   0.32451   0.00000  Uiso   1.00
C361   C     0.50008   0.66507   0.24980   0.00000  Uiso   1.00
C362   C     0.50028   0.83513   0.25025   0.00000  Uiso   1.00
C363   C     0.53910   0.77190   0.05958   0.00000  Uiso   1.00
C364   C     0.47457   0.71618   0.44207   0.00000  Uiso   1.00
C365   C     0.53758   0.77240   0.10999   0.00000  Uiso   1.00
C366   C     0.47411   0.71757   0.39140   0.00000  Uiso   1.00
C367   C     0.46348   0.72593   0.09967   0.00000  Uiso   1.00
C368   C     0.52752   0.78157   0.39938   0.00000  Uiso   1.00
C369   C     0.46204   0.72703   0.04859   0.00000  Uiso   1.00
C370   C     0.52610   0.78268   0.45007   0.00000  Uiso   1.00
C371   C     0.50057   0.74943   0.02744   0.00000  Uiso   1.00
C372   C     0.50041   0.74935   0.47272   0.00000  Uiso   1.00
C373   C     0.40122   0.74993   0.23751   0.00000  Uiso   1.00
C374   C     0.59877   0.75000   0.26249   0.00000  Uiso   1.00
C375   C     0.34587   0.74986   0.23067   0.00000  Uiso   1.00
C376   C     0.65413   0.75003   0.26934   0.00000  Uiso   1.00
C377   C     0.47057   0.54711   0.27513   0.00000  Uiso   1.00
C378   C     0.48854   0.95306   0.20907   0.00000  Uiso   1.00
C379   C     0.46910   0.59302   0.27550   0.00000  Uiso   1.00
C380   C     0.48702   0.90712   0.20825   0.00000  Uiso   1.00
C381   C     0.50152   0.61702   0.24941   0.00000  Uiso   1.00
C382   C     0.50163   0.88356   0.25102   0.00000  Uiso   1.00
C383   C     0.53564   0.59514   0.22301   0.00000  Uiso   1.00
C384   C     0.51762   0.90644   0.29472   0.00000  Uiso   1.00
C385   C     0.53914   0.54886   0.22368   0.00000  Uiso   1.00
C386   C     0.52033   0.95277   0.29615   0.00000  Uiso   1.00
C387   C     0.50623   0.52473   0.25071   0.00000  Uiso   1.00
C388   C     0.50618   0.97619   0.25225   0.00000  Uiso   1.00
Cu389  Cu    0.50000   0.75000   0.29822   0.00000  Uiso   1.00
Cu390  Cu    0.50000   0.75001   0.20179   0.00000  Uiso   1.00
H391   H     0.65903   0.74966   0.19364   0.00000  Uiso   1.00
H392   H     0.34096   0.75024   0.30637   0.00000  Uiso   1.00
H393   H     0.44379   0.52888   0.29407   0.00000  Uiso   1.00
H394   H     0.47562   0.97076   0.17585   0.00000  Uiso   1.00
H395   H     0.44196   0.60980   0.29531   0.00000  Uiso   1.00
H396   H     0.47369   0.89007   0.17427   0.00000  Uiso   1.00
H397   H     0.56053   0.61442   0.20296   0.00000  Uiso   1.00
H398   H     0.52855   0.88808   0.32781   0.00000  Uiso   1.00
H399   H     0.57081   0.78888   0.04637   0.00000  Uiso   1.00
H400   H     0.45496   0.68886   0.45672   0.00000  Uiso   1.00
H401   H     0.56705   0.79049   0.13373   0.00000  Uiso   1.00
H402   H     0.45326   0.69220   0.36867   0.00000  Uiso   1.00
H403   H     0.43034   0.71058   0.02605   0.00000  Uiso   1.00
H404   H     0.54445   0.81019   0.47107   0.00000  Uiso   1.00
N405   N     0.50000   0.75001   0.12935   0.00000  Uiso   1.00
N406   N     0.50000   0.74999   0.37066   0.00000  Uiso   1.00
O407   O     0.50000   0.68573   0.29072   0.00000  Uiso   1.00
O408   O     0.50000   0.81428   0.20929   0.00000  Uiso   1.00
O409   O     0.50000   0.68573   0.20928   0.00000  Uiso   1.00
O410   O     0.50000   0.81427   0.29072   0.00000  Uiso   1.00
O411   O     0.42495   0.74999   0.28132   0.00000  Uiso   1.00
O412   O     0.57505   0.75001   0.21868   0.00000  Uiso   1.00
O413   O     0.42495   0.75000   0.19989   0.00000  Uiso   1.00
O414   O     0.57505   0.75000   0.30012   0.00000  Uiso   1.00
C415   C     0.57799   0.52700   0.19539   0.00000  Uiso   1.00
C416   C     0.62444   0.50857   0.22903   0.00000  Uiso   1.00
C417   C     0.66652   0.99257   0.20031   0.00000  Uiso   1.00
H418   H     0.65108   0.96610   0.17409   0.00000  Uiso   1.00
H419   H     0.34796   0.52049   0.18028   0.00000  Uiso   1.00
H420   H     0.36587   0.97895   0.22568   0.00000  Uiso   1.00
H421   H     0.64114   0.53478   0.25509   0.00000  Uiso   1.00
H422   H     0.61190   0.98017   0.24968   0.00000  Uiso   1.00
H423   H     0.55921   0.50034   0.17132   0.00000  Uiso   1.00
H424   H     0.59255   0.55154   0.17083   0.00000  Uiso   1.00
C425   C     0.53737   0.97545   0.34492   0.00000  Uiso   1.00
C426   C     0.59108   0.99685   0.34780   0.00000  Uiso   1.00
C427   C     0.60958   0.51524   0.39866   0.00000  Uiso   1.00
H428   H     0.58228   0.54062   0.40869   0.00000  Uiso   1.00
H429   H     0.61272   0.98817   0.42573   0.00000  Uiso   1.00
H430   H     0.64825   0.53093   0.39944   0.00000  Uiso   1.00
H431   H     0.61925   0.97185   0.33856   0.00000  Uiso   1.00
H432   H     0.58990   0.52460   0.32182   0.00000  Uiso   1.00
H433   H     0.50872   0.50051   0.35248   0.00000  Uiso   1.00
H434   H     0.53859   0.95091   0.37471   0.00000  Uiso   1.00
O435   O     0.42551   0.70351   0.11993   0.00000  Uiso   1.00
C436   C     0.42528   0.65761   0.10865   0.00000  Uiso   1.00
H437   H     0.43446   0.63913   0.14315   0.00000  Uiso   1.00
H438   H     0.45413   0.64713   0.08487   0.00000  Uiso   1.00
C439   C     0.37149   0.64352   0.08490   0.00000  Uiso   1.00
H440   H     0.36109   0.66110   0.04999   0.00000  Uiso   1.00
H441   H     0.37056   0.60727   0.07765   0.00000  Uiso   1.00
H442   H     0.34264   0.65146   0.10938   0.00000  Uiso   1.00
O443   O     0.55326   0.81449   0.37791   0.00000  Uiso   1.00
C444   C     0.60695   0.81200   0.39385   0.00000  Uiso   1.00
H445   H     0.62156   0.77782   0.38925   0.00000  Uiso   1.00
H446   H     0.61631   0.82235   0.43262   0.00000  Uiso   1.00
C447   C     0.63516   0.84332   0.36375   0.00000  Uiso   1.00
H448   H     0.62349   0.87805   0.36963   0.00000  Uiso   1.00
H449   H     0.34422   0.84054   0.37470   0.00000  Uiso   1.00
H450   H     0.62570   0.83485   0.32451   0.00000  Uiso   1.00
C451   C     0.83342   0.66507   0.24980   0.00000  Uiso   1.00
C452   C     0.83362   0.83513   0.25025   0.00000  Uiso   1.00
C453   C     0.87244   0.77190   0.05958   0.00000  Uiso   1.00
C454   C     0.80791   0.71618   0.44207   0.00000  Uiso   1.00
C455   C     0.87092   0.77240   0.10999   0.00000  Uiso   1.00
C456   C     0.80744   0.71757   0.39140   0.00000  Uiso   1.00
C457   C     0.79682   0.72593   0.09967   0.00000  Uiso   1.00
C458   C     0.86085   0.78157   0.39938   0.00000  Uiso   1.00
C459   C     0.79537   0.72703   0.04859   0.00000  Uiso   1.00
C460   C     0.85944   0.78268   0.45007   0.00000  Uiso   1.00
C461   C     0.83391   0.74943   0.02744   0.00000  Uiso   1.00
C462   C     0.83374   0.74935   0.47272   0.00000  Uiso   1.00
C463   C     0.73456   0.74993   0.23751   0.00000  Uiso   1.00
C464   C     0.93211   0.75000   0.26249   0.00000  Uiso   1.00
C465   C     0.67920   0.74986   0.23067   0.00000  Uiso   1.00
C466   C     0.98746   0.75003   0.26934   0.00000  Uiso   1.00
C467   C     0.80390   0.54711   0.27513   0.00000  Uiso   1.00
C468   C     0.82187   0.95306   0.20907   0.00000  Uiso   1.00
C469   C     0.80243   0.59302   0.27550   0.00000  Uiso   1.00
C470   C     0.82036   0.90712   0.20825   0.00000  Uiso   1.00
C471   C     0.83486   0.61702   0.24941   0.00000  Uiso   1.00
C472   C     0.83496   0.88356   0.25102   0.00000  Uiso   1.00
C473   C     0.86898   0.59514   0.22301   0.00000  Uiso   1.00
C474   C     0.85095   0.90644   0.29472   0.00000  Uiso   1.00
C475   C     0.87247   0.54886   0.22368   0.00000  Uiso   1.00
C476   C     0.85366   0.95277   0.29615   0.00000  Uiso   1.00
C477   C     0.83957   0.52473   0.25071   0.00000  Uiso   1.00
C478   C     0.83952   0.97619   0.25225   0.00000  Uiso   1.00
Cu479  Cu    0.83333   0.75000   0.29822   0.00000  Uiso   1.00
Cu480  Cu    0.83333   0.75001   0.20179   0.00000  Uiso   1.00
H481   H     0.99236   0.74966   0.19364   0.00000  Uiso   1.00
H482   H     0.67430   0.75024   0.30637   0.00000  Uiso   1.00
H483   H     0.77713   0.52888   0.29407   0.00000  Uiso   1.00
H484   H     0.80895   0.97076   0.17585   0.00000  Uiso   1.00
H485   H     0.77530   0.60980   0.29531   0.00000  Uiso   1.00
H486   H     0.80702   0.89007   0.17427   0.00000  Uiso   1.00
H487   H     0.89386   0.61442   0.20296   0.00000  Uiso   1.00
H488   H     0.86189   0.88808   0.32781   0.00000  Uiso   1.00
H489   H     0.90414   0.78888   0.04637   0.00000  Uiso   1.00
H490   H     0.78829   0.68886   0.45672   0.00000  Uiso   1.00
H491   H     0.90038   0.79049   0.13373   0.00000  Uiso   1.00
H492   H     0.78660   0.69220   0.36867   0.00000  Uiso   1.00
H493   H     0.76368   0.71058   0.02605   0.00000  Uiso   1.00
H494   H     0.87779   0.81019   0.47107   0.00000  Uiso   1.00
N495   N     0.83333   0.75001   0.12935   0.00000  Uiso   1.00
N496   N     0.83333   0.74999   0.37066   0.00000  Uiso   1.00
O497   O     0.83334   0.68573   0.29072   0.00000  Uiso   1.00
O498   O     0.83333   0.81428   0.20929   0.00000  Uiso   1.00
O499   O     0.83334   0.68573   0.20928   0.00000  Uiso   1.00
O500   O     0.83333   0.81427   0.29072   0.00000  Uiso   1.00
O501   O     0.75828   0.74999   0.28132   0.00000  Uiso   1.00
O502   O     0.90839   0.75001   0.21868   0.00000  Uiso   1.00
O503   O     0.75828   0.75000   0.19989   0.00000  Uiso   1.00
O504   O     0.90839   0.75000   0.30012   0.00000  Uiso   1.00
C505   C     0.91133   0.52700   0.19539   0.00000  Uiso   1.00
C506   C     0.95777   0.50857   0.22903   0.00000  Uiso   1.00
C507   C     0.99985   0.99257   0.20031   0.00000  Uiso   1.00
H508   H     0.98442   0.96610   0.17409   0.00000  Uiso   1.00
H509   H     0.68129   0.52049   0.18028   0.00000  Uiso   1.00
H510   H     0.69920   0.97895   0.22568   0.00000  Uiso   1.00
H511   H     0.97447   0.53478   0.25509   0.00000  Uiso   1.00
H512   H     0.94523   0.98017   0.24968   0.00000  Uiso   1.00
H513   H     0.89254   0.50034   0.17132   0.00000  Uiso   1.00
H514   H     0.92588   0.55154   0.17083   0.00000  Uiso   1.00
C515   C     0.87071   0.97545   0.34492   0.00000  Uiso   1.00
C516   C     0.92441   0.99685   0.34780   0.00000  Uiso   1.00
C517   C     0.94292   0.51524   0.39866   0.00000  Uiso   1.00
H518   H     0.91561   0.54062   0.40869   0.00000  Uiso   1.00
H519   H     0.94605   0.98817   0.42573   0.00000  Uiso   1.00
H520   H     0.98158   0.53093   0.39944   0.00000  Uiso   1.00
H521   H     0.95259   0.97185   0.33856   0.00000  Uiso   1.00
H522   H     0.92323   0.52460   0.32182   0.00000  Uiso   1.00
H523   H     0.84205   0.50051   0.35248   0.00000  Uiso   1.00
H524   H     0.87193   0.95091   0.37471   0.00000  Uiso   1.00
O525   O     0.75885   0.70351   0.11993   0.00000  Uiso   1.00
C526   C     0.75862   0.65761   0.10865   0.00000  Uiso   1.00
H527   H     0.76780   0.63913   0.14315   0.00000  Uiso   1.00
H528   H     0.78747   0.64713   0.08487   0.00000  Uiso   1.00
C529   C     0.70482   0.64352   0.08490   0.00000  Uiso   1.00
H530   H     0.69442   0.66110   0.04999   0.00000  Uiso   1.00
H531   H     0.70389   0.60727   0.07765   0.00000  Uiso   1.00
H532   H     0.67598   0.65146   0.10938   0.00000  Uiso   1.00
O533   O     0.88659   0.81449   0.37791   0.00000  Uiso   1.00
C534   C     0.94028   0.81200   0.39385   0.00000  Uiso   1.00
H535   H     0.95490   0.77782   0.38925   0.00000  Uiso   1.00
H536   H     0.94964   0.82235   0.43262   0.00000  Uiso   1.00
C537   C     0.96849   0.84332   0.36375   0.00000  Uiso   1.00
H538   H     0.95682   0.87805   0.36963   0.00000  Uiso   1.00
H539   H     0.67755   0.84054   0.37470   0.00000  Uiso   1.00
H540   H     0.95903   0.83485   0.32451   0.00000  Uiso   1.00
C541   C     0.16675   0.16507   0.74980   0.00000  Uiso   1.00
C542   C     0.16695   0.33513   0.75025   0.00000  Uiso   1.00
C543   C     0.20577   0.27190   0.55958   0.00000  Uiso   1.00
C544   C     0.14124   0.21618   0.94207   0.00000  Uiso   1.00
C545   C     0.20425   0.27240   0.60999   0.00000  Uiso   1.00
C546   C     0.14077   0.21757   0.89140   0.00000  Uiso   1.00
C547   C     0.13015   0.22593   0.59967   0.00000  Uiso   1.00
C548   C     0.19418   0.28157   0.89938   0.00000  Uiso   1.00
C549   C     0.12871   0.22703   0.54859   0.00000  Uiso   1.00
C550   C     0.19277   0.28268   0.95007   0.00000  Uiso   1.00
C551   C     0.16724   0.24943   0.52744   0.00000  Uiso   1.00
C552   C     0.16708   0.24935   0.97272   0.00000  Uiso   1.00
C553   C     0.06789   0.24993   0.73751   0.00000  Uiso   1.00
C554   C     0.26544   0.25000   0.76249   0.00000  Uiso   1.00
C555   C     0.01253   0.24986   0.73067   0.00000  Uiso   1.00
C556   C     0.32080   0.25003   0.76934   0.00000  Uiso   1.00
C557   C     0.13724   0.04711   0.77513   0.00000  Uiso   1.00
C558   C     0.15520   0.45306   0.70907   0.00000  Uiso   1.00
C559   C     0.13577   0.09302   0.77550   0.00000  Uiso   1.00
C560   C     0.15369   0.40712   0.70825   0.00000  Uiso   1.00
C561   C     0.16819   0.11702   0.74941   0.00000  Uiso   1.00
C562   C     0.16830   0.38356   0.75102   0.00000  Uiso   1.00
C563   C     0.20231   0.09514   0.72301   0.00000  Uiso   1.00
C564   C     0.18429   0.40644   0.79472   0.00000  Uiso   1.00
C565   C     0.20581   0.04886   0.72368   0.00000  Uiso   1.00
C566   C     0.18699   0.45277   0.79615   0.00000  Uiso   1.00
C567   C     0.17290   0.02473   0.75071   0.00000  Uiso   1.00
C568   C     0.17285   0.47619   0.75225   0.00000  Uiso   1.00
Cu569  Cu    0.16667   0.25000   0.79822   0.00000  Uiso   1.00
Cu570  Cu    0.16667   0.25001   0.70179   0.00000  Uiso   1.00
H571   H     0.32569   0.24966   0.69364   0.00000  Uiso   1.00
H572   H     0.00763   0.25024   0.80637   0.00000  Uiso   1.00
H573   H     0.11046   0.02888   0.79407   0.00000  Uiso   1.00
H574   H     0.14228   0.47076   0.67585   0.00000  Uiso   1.00
H575   H     0.10863   0.10980   0.79531   0.00000  Uiso   1.00
H576   H     0.14036   0.39007   0.67427   0.00000  Uiso   1.00
H577   H     0.22720   0.11442   0.70296   0.00000  Uiso   1.00
H578   H     0.19522   0.38808   0.82781   0.00000  Uiso   1.00
H579   H     0.23748   0.28888   0.54637   0.00000  Uiso   1.00
H580   H     0.12162   0.18886   0.95672   0.00000  Uiso   1.00
H581   H     0.23371   0.29049   0.63373   0.00000  Uiso   1.00
H582   H     0.11993   0.19220   0.86867   0.00000  Uiso   1.00
H583   H     0.09701   0.21058   0.52605   0.00000  Uiso   1.00
H584   H     0.21112   0.31019   0.97107   0.00000  Uiso   1.00
N585   N     0.16667   0.25001   0.62935   0.00000  Uiso   1.00
N586   N     0.16667   0.24999   0.87066   0.00000  Uiso   1.00
O587   O     0.16667   0.18573   0.79072   0.00000  Uiso   1.00
O588   O     0.16666   0.31428   0.70929   0.00000  Uiso   1.00
O589   O     0.16667   0.18573   0.70928   0.00000  Uiso   1.00
O590   O     0.16666   0.31427   0.79072   0.00000  Uiso   1.00
O591   O     0.09161   0.24999   0.78132   0.00000  Uiso   1.00
O592   O     0.24172   0.25001   0.71868   0.00000  Uiso   1.00
O593   O     0.09161   0.25000   0.69989   0.00000  Uiso   1.00
O594   O     0.24172   0.25000   0.80012   0.00000  Uiso   1.00
C595   C     0.24466   0.02700   0.69539   0.00000  Uiso   1.00
C596   C     0.29111   0.00857   0.72903   0.00000  Uiso   1.00
C597   C     0.33318   0.49257   0.70031   0.00000  Uiso   1.00
H598   H     0.31775   0.46610   0.67409   0.00000  Uiso   1.00
H599   H     0.01463   0.02049   0.68028   0.00000  Uiso   1.00
H600   H     0.03253   0.47895   0.72568   0.00000  Uiso   1.00
H601   H     0.30781   0.03478   0.75509   0.00000  Uiso   1.00
H602   H     0.27857   0.48017   0.74968   0.00000  Uiso   1.00
H603   H     0.22588   0.00034   0.67132   0.00000  Uiso   1.00
H604   H     0.25921   0.05154   0.67083   0.00000  Uiso   1.00
C605   C     0.20404   0.47545   0.84492   0.00000  Uiso   1.00
C606   C     0.25774   0.49685   0.84780   0.00000  Uiso   1.00
C607   C     0.27625   0.01524   0.89866   0.00000  Uiso   1.00
H608   H     0.24894   0.04062   0.90869   0.00000  Uiso   1.00
H609   H     0.27939   0.48817   0.92573   0.00000  Uiso   1.00
H610   H     0.31492   0.03093   0.89944   0.00000  Uiso   1.00
H611   H     0.28592   0.47185   0.83856   0.00000  Uiso   1.00
H612   H     0.25656   0.02460   0.82182   0.00000  Uiso   1.00
H613   H     0.17538   0.00051   0.85248   0.00000  Uiso   1.00
H614   H     0.20526   0.45091   0.87471   0.00000  Uiso   1.00
O615   O     0.09218   0.20351   0.61993   0.00000  Uiso   1.00
C616   C     0.09195   0.15761   0.60865   0.00000  Uiso   1.00
H617   H     0.10113   0.13913   0.64315   0.00000  Uiso   1.00
H618   H     0.12080   0.14713   0.58487   0.00000  Uiso   1.00
C619   C     0.03815   0.14352   0.58490   0.00000  Uiso   1.00
H620   H     0.02776   0.16110   0.54999   0.00000  Uiso   1.00
H621   H     0.03722   0.10727   0.57765   0.00000  Uiso   1.00
H622   H     0.00931   0.15146   0.60938   0.00000  Uiso   1.00
O623   O     0.21992   0.31449   0.87791   0.00000  Uiso   1.00
C624   C     0.27361   0.31200   0.89385   0.00000  Uiso   1.00
H625   H     0.28823   0.27782   0.88925   0.00000  Uiso   1.00
H626   H     0.28298   0.32235   0.93262   0.00000  Uiso   1.00
C627   C     0.30182   0.34332   0.86375   0.00000  Uiso   1.00
H628   H     0.29015   0.37805   0.86963   0.00000  Uiso   1.00
H629   H     0.01088   0.34054   0.87470   0.00000  Uiso   1.00
H630   H     0.29237   0.33485   0.82451   0.00000  Uiso   1.00
C631   C     0.50008   0.16507   0.74980   0.00000  Uiso   1.00
C632   C     0.50028   0.33513   0.75025   0.00000  Uiso   1.00
C633   C     0.53910   0.27190   0.55958   0.00000  Uiso   1.00
C634   C     0.47457   0.21618   0.94207   0.00000  Uiso   1.00
C635   C     0.53758   0.27240   0.60999   0.00000  Uiso   1.00
C636   C     0.47411   0.21757   0.89140   0.00000  Uiso   1.00
C637   C     0.46348   0.22593   0.59967   0.00000  Uiso   1.00
C638   C     0.52752   0.28157   0.89938   0.00000  Uiso   1.00
C639   C     0.46204   0.22703   0.54859   0.00000  Uiso   1.00
C640   C     0.52610   0.28268   0.95007   0.00000  Uiso   1.00
C641   C     0.50057   0.24943   0.52744   0.00000  Uiso   1.00
C642   C     0.50041   0.24935   0.97272   0.00000  Uiso   1.00
C643   C     0.40122   0.24993   0.73751   0.00000  Uiso   1.00
C644   C     0.59877   0.25000   0.76249   0.00000  Uiso   1.00
C645   C     0.34587   0.24986   0.73067   0.00000  Uiso   1.00
C646   C     0.65413   0.25003   0.76934   0.00000  Uiso   1.00
C647   C     0.47057   0.04711   0.77513   0.00000  Uiso   1.00
C648   C     0.48854   0.45306   0.70907   0.00000  Uiso   1.00
C649   C     0.46910   0.09302   0.77550   0.00000  Uiso   1.00
C650   C     0.48702   0.40712   0.70825   0.00000  Uiso   1.00
C651   C     0.50152   0.11702   0.74941   0.00000  Uiso   1.00
C652   C     0.50163   0.38356   0.75102   0.00000  Uiso   1.00
C653   C     0.53564   0.09514   0.72301   0.00000  Uiso   1.00
C654   C     0.51762   0.40644   0.79472   0.00000  Uiso   1.00
C655   C     0.53914   0.04886   0.72368   0.00000  Uiso   1.00
C656   C     0.52033   0.45277   0.79615   0.00000  Uiso   1.00
C657   C     0.50623   0.02473   0.75071   0.00000  Uiso   1.00
C658   C     0.50618   0.47619   0.75225   0.00000  Uiso   1.00
Cu659  Cu    0.50000   0.25000   0.79822   0.00000  Uiso   1.00
Cu660  Cu    0.50000   0.25001   0.70179   0.00000  Uiso   1.00
H661   H     0.65903   0.24966   0.69364   0.00000  Uiso   1.00
H662   H     0.34096   0.25024   0.80637   0.00000  Uiso   1.00
H663   H     0.44379   0.02888   0.79407   0.00000  Uiso   1.00
H664   H     0.47562   0.47076   0.67585   0.00000  Uiso   1.00
H665   H     0.44196   0.10980   0.79531   0.00000  Uiso   1.00
H666   H     0.47369   0.39007   0.67427   0.00000  Uiso   1.00
H667   H     0.56053   0.11442   0.70296   0.00000  Uiso   1.00
H668   H     0.52855   0.38808   0.82781   0.00000  Uiso   1.00
H669   H     0.57081   0.28888   0.54637   0.00000  Uiso   1.00
H670   H     0.45496   0.18886   0.95672   0.00000  Uiso   1.00
H671   H     0.56705   0.29049   0.63373   0.00000  Uiso   1.00
H672   H     0.45326   0.19220   0.86867   0.00000  Uiso   1.00
H673   H     0.43034   0.21058   0.52605   0.00000  Uiso   1.00
H674   H     0.54445   0.31019   0.97107   0.00000  Uiso   1.00
N675   N     0.50000   0.25001   0.62935   0.00000  Uiso   1.00
N676   N     0.50000   0.24999   0.87066   0.00000  Uiso   1.00
O677   O     0.50000   0.18573   0.79072   0.00000  Uiso   1.00
O678   O     0.50000   0.31428   0.70929   0.00000  Uiso   1.00
O679   O     0.50000   0.18573   0.70928   0.00000  Uiso   1.00
O680   O     0.50000   0.31427   0.79072   0.00000  Uiso   1.00
O681   O     0.42495   0.24999   0.78132   0.00000  Uiso   1.00
O682   O     0.57505   0.25001   0.71868   0.00000  Uiso   1.00
O683   O     0.42495   0.25000   0.69989   0.00000  Uiso   1.00
O684   O     0.57505   0.25000   0.80012   0.00000  Uiso   1.00
C685   C     0.57799   0.02700   0.69539   0.00000  Uiso   1.00
C686   C     0.62444   0.00857   0.72903   0.00000  Uiso   1.00
C687   C     0.66652   0.49257   0.70031   0.00000  Uiso   1.00
H688   H     0.65108   0.46610   0.67409   0.00000  Uiso   1.00
H689   H     0.34796   0.02049   0.68028   0.00000  Uiso   1.00
H690   H     0.36587   0.47895   0.72568   0.00000  Uiso   1.00
H691   H     0.64114   0.03478   0.75509   0.00000  Uiso   1.00
H692   H     0.61190   0.48017   0.74968   0.00000  Uiso   1.00
H693   H     0.55921   0.00034   0.67132   0.00000  Uiso   1.00
H694   H     0.59255   0.05154   0.67083   0.00000  Uiso   1.00
C695   C     0.53737   0.47545   0.84492   0.00000  Uiso   1.00
C696   C     0.59108   0.49685   0.84780   0.00000  Uiso   1.00
C697   C     0.60958   0.01524   0.89866   0.00000  Uiso   1.00
H698   H     0.58228   0.04062   0.90869   0.00000  Uiso   1.00
H699   H     0.61272   0.48817   0.92573   0.00000  Uiso   1.00
H700   H     0.64825   0.03093   0.89944   0.00000  Uiso   1.00
H701   H     0.61925   0.47185   0.83856   0.00000  Uiso   1.00
H702   H     0.58990   0.02460   0.82182   0.00000  Uiso   1.00
H703   H     0.50872   0.00051   0.85248   0.00000  Uiso   1.00
H704   H     0.53859   0.45091   0.87471   0.00000  Uiso   1.00
O705   O     0.42551   0.20351   0.61993   0.00000  Uiso   1.00
C706   C     0.42528   0.15761   0.60865   0.00000  Uiso   1.00
H707   H     0.43446   0.13913   0.64315   0.00000  Uiso   1.00
H708   H     0.45413   0.14713   0.58487   0.00000  Uiso   1.00
C709   C     0.37149   0.14352   0.58490   0.00000  Uiso   1.00
H710   H     0.36109   0.16110   0.54999   0.00000  Uiso   1.00
H711   H     0.37056   0.10727   0.57765   0.00000  Uiso   1.00
H712   H     0.34264   0.15146   0.60938   0.00000  Uiso   1.00
O713   O     0.55326   0.31449   0.87791   0.00000  Uiso   1.00
C714   C     0.60695   0.31200   0.89385   0.00000  Uiso   1.00
H715   H     0.62156   0.27782   0.88925   0.00000  Uiso   1.00
H716   H     0.61631   0.32235   0.93262   0.00000  Uiso   1.00
C717   C     0.63516   0.34332   0.86375   0.00000  Uiso   1.00
H718   H     0.62349   0.37805   0.86963   0.00000  Uiso   1.00
H719   H     0.34422   0.34054   0.87470   0.00000  Uiso   1.00
H720   H     0.62570   0.33485   0.82451   0.00000  Uiso   1.00
C721   C     0.83342   0.16507   0.74980   0.00000  Uiso   1.00
C722   C     0.83362   0.33513   0.75025   0.00000  Uiso   1.00
C723   C     0.87244   0.27190   0.55958   0.00000  Uiso   1.00
C724   C     0.80791   0.21618   0.94207   0.00000  Uiso   1.00
C725   C     0.87092   0.27240   0.60999   0.00000  Uiso   1.00
C726   C     0.80744   0.21757   0.89140   0.00000  Uiso   1.00
C727   C     0.79682   0.22593   0.59967   0.00000  Uiso   1.00
C728   C     0.86085   0.28157   0.89938   0.00000  Uiso   1.00
C729   C     0.79537   0.22703   0.54859   0.00000  Uiso   1.00
C730   C     0.85944   0.28268   0.95007   0.00000  Uiso   1.00
C731   C     0.83391   0.24943   0.52744   0.00000  Uiso   1.00
C732   C     0.83374   0.24935   0.97272   0.00000  Uiso   1.00
C733   C     0.73456   0.24993   0.73751   0.00000  Uiso   1.00
C734   C     0.93211   0.25000   0.76249   0.00000  Uiso   1.00
C735   C     0.67920   0.24986   0.73067   0.00000  Uiso   1.00
C736   C     0.98746   0.25003   0.76934   0.00000  Uiso   1.00
C737   C     0.80390   0.04711   0.77513   0.00000  Uiso   1.00
C738   C     0.82187   0.45306   0.70907   0.00000  Uiso   1.00
C739   C     0.80243   0.09302   0.77550   0.00000  Uiso   1.00
C740   C     0.82036   0.40712   0.70825   0.00000  Uiso   1.00
C741   C     0.83486   0.11702   0.74941   0.00000  Uiso   1.00
C742   C     0.83496   0.38356   0.75102   0.00000  Uiso   1.00
C743   C     0.86898   0.09514   0.72301   0.00000  Uiso   1.00
C744   C     0.85095   0.40644   0.79472   0.00000  Uiso   1.00
C745   C     0.87247   0.04886   0.72368   0.00000  Uiso   1.00
C746   C     0.85366   0.45277   0.79615   0.00000  Uiso   1.00
C747   C     0.83957   0.02473   0.75071   0.00000  Uiso   1.00
C748   C     0.83952   0.47619   0.75225   0.00000  Uiso   1.00
Cu749  Cu    0.83333   0.25000   0.79822   0.00000  Uiso   1.00
Cu750  Cu    0.83333   0.25001   0.70179   0.00000  Uiso   1.00
H751   H     0.99236   0.24966   0.69364   0.00000  Uiso   1.00
H752   H     0.67430   0.25024   0.80637   0.00000  Uiso   1.00
H753   H     0.77713   0.02888   0.79407   0.00000  Uiso   1.00
H754   H     0.80895   0.47076   0.67585   0.00000  Uiso   1.00
H755   H     0.77530   0.10980   0.79531   0.00000  Uiso   1.00
H756   H     0.80702   0.39007   0.67427   0.00000  Uiso   1.00
H757   H     0.89386   0.11442   0.70296   0.00000  Uiso   1.00
H758   H     0.86189   0.38808   0.82781   0.00000  Uiso   1.00
H759   H     0.90414   0.28888   0.54637   0.00000  Uiso   1.00
H760   H     0.78829   0.18886   0.95672   0.00000  Uiso   1.00
H761   H     0.90038   0.29049   0.63373   0.00000  Uiso   1.00
H762   H     0.78660   0.19220   0.86867   0.00000  Uiso   1.00
H763   H     0.76368   0.21058   0.52605   0.00000  Uiso   1.00
H764   H     0.87779   0.31019   0.97107   0.00000  Uiso   1.00
N765   N     0.83333   0.25001   0.62935   0.00000  Uiso   1.00
N766   N     0.83333   0.24999   0.87066   0.00000  Uiso   1.00
O767   O     0.83334   0.18573   0.79072   0.00000  Uiso   1.00
O768   O     0.83333   0.31428   0.70929   0.00000  Uiso   1.00
O769   O     0.83334   0.18573   0.70928   0.00000  Uiso   1.00
O770   O     0.83333   0.31427   0.79072   0.00000  Uiso   1.00
O771   O     0.75828   0.24999   0.78132   0.00000  Uiso   1.00
O772   O     0.90839   0.25001   0.71868   0.00000  Uiso   1.00
O773   O     0.75828   0.25000   0.69989   0.00000  Uiso   1.00
O774   O     0.90839   0.25000   0.80012   0.00000  Uiso   1.00
C775   C     0.91133   0.02700   0.69539   0.00000  Uiso   1.00
C776   C     0.95777   0.00857   0.72903   0.00000  Uiso   1.00
C777   C     0.99985   0.49257   0.70031   0.00000  Uiso   1.00
H778   H     0.98442   0.46610   0.67409   0.00000  Uiso   1.00
H779   H     0.68129   0.02049   0.68028   0.00000  Uiso   1.00
H780   H     0.69920   0.47895   0.72568   0.00000  Uiso   1.00
H781   H     0.97447   0.03478   0.75509   0.00000  Uiso   1.00
H782   H     0.94523   0.48017   0.74968   0.00000  Uiso   1.00
H783   H     0.89254   0.00034   0.67132   0.00000  Uiso   1.00
H784   H     0.92588   0.05154   0.67083   0.00000  Uiso   1.00
C785   C     0.87071   0.47545   0.84492   0.00000  Uiso   1.00
C786   C     0.92441   0.49685   0.84780   0.00000  Uiso   1.00
C787   C     0.94292   0.01524   0.89866   0.00000  Uiso   1.00
H788   H     0.91561   0.04062   0.90869   0.00000  Uiso   1.00
H789   H     0.94605   0.48817   0.92573   0.00000  Uiso   1.00
H790   H     0.98158   0.03093   0.89944   0.00000  Uiso   1.00
H791   H     0.95259   0.47185   0.83856   0.00000  Uiso   1.00
H792   H     0.92323   0.02460   0.82182   0.00000  Uiso   1.00
H793   H     0.84205   0.00051   0.85248   0.00000  Uiso   1.00
H794   H     0.87193   0.45091   0.87471   0.00000  Uiso   1.00
O795   O     0.75885   0.20351   0.61993   0.00000  Uiso   1.00
C796   C     0.75862   0.15761   0.60865   0.00000  Uiso   1.00
H797   H     0.76780   0.13913   0.64315   0.00000  Uiso   1.00
H798   H     0.78747   0.14713   0.58487   0.00000  Uiso   1.00
C799   C     0.70482   0.14352   0.58490   0.00000  Uiso   1.00
H800   H     0.69442   0.16110   0.54999   0.00000  Uiso   1.00
H801   H     0.70389   0.10727   0.57765   0.00000  Uiso   1.00
H802   H     0.67598   0.15146   0.60938   0.00000  Uiso   1.00
O803   O     0.88659   0.31449   0.87791   0.00000  Uiso   1.00
C804   C     0.94028   0.31200   0.89385   0.00000  Uiso   1.00
H805   H     0.95490   0.27782   0.88925   0.00000  Uiso   1.00
H806   H     0.94964   0.32235   0.93262   0.00000  Uiso   1.00
C807   C     0.96849   0.34332   0.86375   0.00000  Uiso   1.00
H808   H     0.95682   0.37805   0.86963   0.00000  Uiso   1.00
H809   H     0.67755   0.34054   0.87470   0.00000  Uiso   1.00
H810   H     0.95903   0.33485   0.82451   0.00000  Uiso   1.00
C811   C     0.16675   0.66507   0.74980   0.00000  Uiso   1.00
C812   C     0.16695   0.83513   0.75025   0.00000  Uiso   1.00
C813   C     0.20577   0.77190   0.55958   0.00000  Uiso   1.00
C814   C     0.14124   0.71618   0.94207   0.00000  Uiso   1.00
C815   C     0.20425   0.77240   0.60999   0.00000  Uiso   1.00
C816   C     0.14077   0.71757   0.89140   0.00000  Uiso   1.00
C817   C     0.13015   0.72593   0.59967   0.00000  Uiso   1.00
C818   C     0.19418   0.78157   0.89938   0.00000  Uiso   1.00
C819   C     0.12871   0.72703   0.54859   0.00000  Uiso   1.00
C820   C     0.19277   0.78268   0.95007   0.00000  Uiso   1.00
C821   C     0.16724   0.74943   0.52744   0.00000  Uiso   1.00
C822   C     0.16708   0.74935   0.97272   0.00000  Uiso   1.00
C823   C     0.06789   0.74993   0.73751   0.00000  Uiso   1.00
C824   C     0.26544   0.75000   0.76249   0.00000  Uiso   1.00
C825   C     0.01253   0.74986   0.73067   0.00000  Uiso   1.00
C826   C     0.32080   0.75003   0.76934   0.00000  Uiso   1.00
C827   C     0.13724   0.54711   0.77513   0.00000  Uiso   1.00
C828   C     0.15520   0.95306   0.70907   0.00000  Uiso   1.00
C829   C     0.13577   0.59302   0.77550   0.00000  Uiso   1.00
C830   C     0.15369   0.90712   0.70825   0.00000  Uiso   1.00
C831   C     0.16819   0.61702   0.74941   0.00000  Uiso   1.00
C832   C     0.16830   0.88356   0.75102   0.00000  Uiso   1.00
C833   C     0.20231   0.59514   0.72301   0.00000  Uiso   1.00
C834   C     0.18429   0.90644   0.79472   0.00000  Uiso   1.00
C835   C     0.20581   0.54886   0.72368   0.00000  Uiso   1.00
C836   C     0.18699   0.95277   0.79615   0.00000  Uiso   1.00
C837   C     0.17290   0.52473   0.75071   0.00000  Uiso   1.00
C838   C     0.17285   0.97619   0.75225   0.00000  Uiso   1.00
Cu839  Cu    0.16667   0.75000   0.79822   0.00000  Uiso   1.00
Cu840  Cu    0.16667   0.75001   0.70179   0.00000  Uiso   1.00
H841   H     0.32569   0.74966   0.69364   0.00000  Uiso   1.00
H842   H     0.00763   0.75024   0.80637   0.00000  Uiso   1.00
H843   H     0.11046   0.52888   0.79407   0.00000  Uiso   1.00
H844   H     0.14228   0.97076   0.67585   0.00000  Uiso   1.00
H845   H     0.10863   0.60980   0.79531   0.00000  Uiso   1.00
H846   H     0.14036   0.89007   0.67427   0.00000  Uiso   1.00
H847   H     0.22720   0.61442   0.70296   0.00000  Uiso   1.00
H848   H     0.19522   0.88808   0.82781   0.00000  Uiso   1.00
H849   H     0.23748   0.78888   0.54637   0.00000  Uiso   1.00
H850   H     0.12162   0.68886   0.95672   0.00000  Uiso   1.00
H851   H     0.23371   0.79049   0.63373   0.00000  Uiso   1.00
H852   H     0.11993   0.69220   0.86867   0.00000  Uiso   1.00
H853   H     0.09701   0.71058   0.52605   0.00000  Uiso   1.00
H854   H     0.21112   0.81019   0.97107   0.00000  Uiso   1.00
N855   N     0.16667   0.75001   0.62935   0.00000  Uiso   1.00
N856   N     0.16667   0.74999   0.87066   0.00000  Uiso   1.00
O857   O     0.16667   0.68573   0.79072   0.00000  Uiso   1.00
O858   O     0.16666   0.81428   0.70929   0.00000  Uiso   1.00
O859   O     0.16667   0.68573   0.70928   0.00000  Uiso   1.00
O860   O     0.16666   0.81427   0.79072   0.00000  Uiso   1.00
O861   O     0.09161   0.74999   0.78132   0.00000  Uiso   1.00
O862   O     0.24172   0.75001   0.71868   0.00000  Uiso   1.00
O863   O     0.09161   0.75000   0.69989   0.00000  Uiso   1.00
O864   O     0.24172   0.75000   0.80012   0.00000  Uiso   1.00
C865   C     0.24466   0.52700   0.69539   0.00000  Uiso   1.00
C866   C     0.29111   0.50857   0.72903   0.00000  Uiso   1.00
C867   C     0.33318   0.99257   0.70031   0.00000  Uiso   1.00
H868   H     0.31775   0.96610   0.67409   0.00000  Uiso   1.00
H869   H     0.01463   0.52049   0.68028   0.00000  Uiso   1.00
H870   H     0.03253   0.97895   0.72568   0.00000  Uiso   1.00
H871   H     0.30781   0.53478   0.75509   0.00000  Uiso   1.00
H872   H     0.27857   0.98017   0.74968   0.00000  Uiso   1.00
H873   H     0.22588   0.50034   0.67132   0.00000  Uiso   1.00
H874   H     0.25921   0.55154   0.67083   0.00000  Uiso   1.00
C875   C     0.20404   0.97545   0.84492   0.00000  Uiso   1.00
C876   C     0.25774   0.99685   0.84780   0.00000  Uiso   1.00
C877   C     0.27625   0.51524   0.89866   0.00000  Uiso   1.00
H878   H     0.24894   0.54062   0.90869   0.00000  Uiso   1.00
H879   H     0.27939   0.98817   0.92573   0.00000  Uiso   1.00
H880   H     0.31492   0.53093   0.89944   0.00000  Uiso   1.00
H881   H     0.28592   0.97185   0.83856   0.00000  Uiso   1.00
H882   H     0.25656   0.52460   0.82182   0.00000  Uiso   1.00
H883   H     0.17538   0.50051   0.85248   0.00000  Uiso   1.00
H884   H     0.20526   0.95091   0.87471   0.00000  Uiso   1.00
O885   O     0.09218   0.70351   0.61993   0.00000  Uiso   1.00
C886   C     0.09195   0.65761   0.60865   0.00000  Uiso   1.00
H887   H     0.10113   0.63913   0.64315   0.00000  Uiso   1.00
H888   H     0.12080   0.64713   0.58487   0.00000  Uiso   1.00
C889   C     0.03815   0.64352   0.58490   0.00000  Uiso   1.00
H890   H     0.02776   0.66110   0.54999   0.00000  Uiso   1.00
H891   H     0.03722   0.60727   0.57765   0.00000  Uiso   1.00
H892   H     0.00931   0.65146   0.60938   0.00000  Uiso   1.00
O893   O     0.21992   0.81449   0.87791   0.00000  Uiso   1.00
C894   C     0.27361   0.81200   0.89385   0.00000  Uiso   1.00
H895   H     0.28823   0.77782   0.88925   0.00000  Uiso   1.00
H896   H     0.28298   0.82235   0.93262   0.00000  Uiso   1.00
C897   C     0.30182   0.84332   0.86375   0.00000  Uiso   1.00
H898   H     0.29015   0.87805   0.86963   0.00000  Uiso   1.00
H899   H     0.01088   0.84054   0.87470   0.00000  Uiso   1.00
H900   H     0.29237   0.83485   0.82451   0.00000  Uiso   1.00
C901   C     0.50008   0.66507   0.74980   0.00000  Uiso   1.00
C902   C     0.50028   0.83513   0.75025   0.00000  Uiso   1.00
C903   C     0.53910   0.77190   0.55958   0.00000  Uiso   1.00
C904   C     0.47457   0.71618   0.94207   0.00000  Uiso   1.00
C905   C     0.53758   0.77240   0.60999   0.00000  Uiso   1.00
C906   C     0.47411   0.71757   0.89140   0.00000  Uiso   1.00
C907   C     0.46348   0.72593   0.59967   0.00000  Uiso   1.00
C908   C     0.52752   0.78157   0.89938   0.00000  Uiso   1.00
C909   C     0.46204   0.72703   0.54859   0.00000  Uiso   1.00
C910   C     0.52610   0.78268   0.95007   0.00000  Uiso   1.00
C911   C     0.50057   0.74943   0.52744   0.00000  Uiso   1.00
C912   C     0.50041   0.74935   0.97272   0.00000  Uiso   1.00
C913   C     0.40122   0.74993   0.73751   0.00000  Uiso   1.00
C914   C     0.59877   0.75000   0.76249   0.00000  Uiso   1.00
C915   C     0.34587   0.74986   0.73067   0.00000  Uiso   1.00
C916   C     0.65413   0.75003   0.76934   0.00000  Uiso   1.00
C917   C     0.47057   0.54711   0.77513   0.00000  Uiso   1.00
C918   C     0.48854   0.95306   0.70907   0.00000  Uiso   1.00
C919   C     0.46910   0.59302   0.77550   0.00000  Uiso   1.00
C920   C     0.48702   0.90712   0.70825   0.00000  Uiso   1.00
C921   C     0.50152   0.61702   0.74941   0.00000  Uiso   1.00
C922   C     0.50163   0.88356   0.75102   0.00000  Uiso   1.00
C923   C     0.53564   0.59514   0.72301   0.00000  Uiso   1.00
C924   C     0.51762   0.90644   0.79472   0.00000  Uiso   1.00
C925   C     0.53914   0.54886   0.72368   0.00000  Uiso   1.00
C926   C     0.52033   0.95277   0.79615   0.00000  Uiso   1.00
C927   C     0.50623   0.52473   0.75071   0.00000  Uiso   1.00
C928   C     0.50618   0.97619   0.75225   0.00000  Uiso   1.00
Cu929  Cu    0.50000   0.75000   0.79822   0.00000  Uiso   1.00
Cu930  Cu    0.50000   0.75001   0.70179   0.00000  Uiso   1.00
H931   H     0.65903   0.74966   0.69364   0.00000  Uiso   1.00
H932   H     0.34096   0.75024   0.80637   0.00000  Uiso   1.00
H933   H     0.44379   0.52888   0.79407   0.00000  Uiso   1.00
H934   H     0.47562   0.97076   0.67585   0.00000  Uiso   1.00
H935   H     0.44196   0.60980   0.79531   0.00000  Uiso   1.00
H936   H     0.47369   0.89007   0.67427   0.00000  Uiso   1.00
H937   H     0.56053   0.61442   0.70296   0.00000  Uiso   1.00
H938   H     0.52855   0.88808   0.82781   0.00000  Uiso   1.00
H939   H     0.57081   0.78888   0.54637   0.00000  Uiso   1.00
H940   H     0.45496   0.68886   0.95672   0.00000  Uiso   1.00
H941   H     0.56705   0.79049   0.63373   0.00000  Uiso   1.00
H942   H     0.45326   0.69220   0.86867   0.00000  Uiso   1.00
H943   H     0.43034   0.71058   0.52605   0.00000  Uiso   1.00
H944   H     0.54445   0.81019   0.97107   0.00000  Uiso   1.00
N945   N     0.50000   0.75001   0.62935   0.00000  Uiso   1.00
N946   N     0.50000   0.74999   0.87066   0.00000  Uiso   1.00
O947   O     0.50000   0.68573   0.79072   0.00000  Uiso   1.00
O948   O     0.50000   0.81428   0.70929   0.00000  Uiso   1.00
O949   O     0.50000   0.68573   0.70928   0.00000  Uiso   1.00
O950   O     0.50000   0.81427   0.79072   0.00000  Uiso   1.00
O951   O     0.42495   0.74999   0.78132   0.00000  Uiso   1.00
O952   O     0.57505   0.75001   0.71868   0.00000  Uiso   1.00
O953   O     0.42495   0.75000   0.69989   0.00000  Uiso   1.00
O954   O     0.57505   0.75000   0.80012   0.00000  Uiso   1.00
C955   C     0.57799   0.52700   0.69539   0.00000  Uiso   1.00
C956   C     0.62444   0.50857   0.72903   0.00000  Uiso   1.00
C957   C     0.66652   0.99257   0.70031   0.00000  Uiso   1.00
H958   H     0.65108   0.96610   0.67409   0.00000  Uiso   1.00
H959   H     0.34796   0.52049   0.68028   0.00000  Uiso   1.00
H960   H     0.36587   0.97895   0.72568   0.00000  Uiso   1.00
H961   H     0.64114   0.53478   0.75509   0.00000  Uiso   1.00
H962   H     0.61190   0.98017   0.74968   0.00000  Uiso   1.00
H963   H     0.55921   0.50034   0.67132   0.00000  Uiso   1.00
H964   H     0.59255   0.55154   0.67083   0.00000  Uiso   1.00
C965   C     0.53737   0.97545   0.84492   0.00000  Uiso   1.00
C966   C     0.59108   0.99685   0.84780   0.00000  Uiso   1.00
C967   C     0.60958   0.51524   0.89866   0.00000  Uiso   1.00
H968   H     0.58228   0.54062   0.90869   0.00000  Uiso   1.00
H969   H     0.61272   0.98817   0.92573   0.00000  Uiso   1.00
H970   H     0.64825   0.53093   0.89944   0.00000  Uiso   1.00
H971   H     0.61925   0.97185   0.83856   0.00000  Uiso   1.00
H972   H     0.58990   0.52460   0.82182   0.00000  Uiso   1.00
H973   H     0.50872   0.50051   0.85248   0.00000  Uiso   1.00
H974   H     0.53859   0.95091   0.87471   0.00000  Uiso   1.00
O975   O     0.42551   0.70351   0.61993   0.00000  Uiso   1.00
C976   C     0.42528   0.65761   0.60865   0.00000  Uiso   1.00
H977   H     0.43446   0.63913   0.64315   0.00000  Uiso   1.00
H978   H     0.45413   0.64713   0.58487   0.00000  Uiso   1.00
C979   C     0.37149   0.64352   0.58490   0.00000  Uiso   1.00
H980   H     0.36109   0.66110   0.54999   0.00000  Uiso   1.00
H981   H     0.37056   0.60727   0.57765   0.00000  Uiso   1.00
H982   H     0.34264   0.65146   0.60938   0.00000  Uiso   1.00
O983   O     0.55326   0.81449   0.87791   0.00000  Uiso   1.00
C984   C     0.60695   0.81200   0.89385   0.00000  Uiso   1.00
H985   H     0.62156   0.77782   0.88925   0.00000  Uiso   1.00
H986   H     0.61631   0.82235   0.93262   0.00000  Uiso   1.00
C987   C     0.63516   0.84332   0.86375   0.00000  Uiso   1.00
H988   H     0.62349   0.87805   0.86963   0.00000  Uiso   1.00
H989   H     0.34422   0.84054   0.87470   0.00000  Uiso   1.00
H990   H     0.62570   0.83485   0.82451   0.00000  Uiso   1.00
C991   C     0.83342   0.66507   0.74980   0.00000  Uiso   1.00
C992   C     0.83362   0.83513   0.75025   0.00000  Uiso   1.00
C993   C     0.87244   0.77190   0.55958   0.00000  Uiso   1.00
C994   C     0.80791   0.71618   0.94207   0.00000  Uiso   1.00
C995   C     0.87092   0.77240   0.60999   0.00000  Uiso   1.00
C996   C     0.80744   0.71757   0.89140   0.00000  Uiso   1.00
C997   C     0.79682   0.72593   0.59967   0.00000  Uiso   1.00
C998   C     0.86085   0.78157   0.89938   0.00000  Uiso   1.00
C999   C     0.79537   0.72703   0.54859   0.00000  Uiso   1.00
C1000  C     0.85944   0.78268   0.95007   0.00000  Uiso   1.00
C1001  C     0.83391   0.74943   0.52744   0.00000  Uiso   1.00
C1002  C     0.83374   0.74935   0.97272   0.00000  Uiso   1.00
C1003  C     0.73456   0.74993   0.73751   0.00000  Uiso   1.00
C1004  C     0.93211   0.75000   0.76249   0.00000  Uiso   1.00
C1005  C     0.67920   0.74986   0.73067   0.00000  Uiso   1.00
C1006  C     0.98746   0.75003   0.76934   0.00000  Uiso   1.00
C1007  C     0.80390   0.54711   0.77513   0.00000  Uiso   1.00
C1008  C     0.82187   0.95306   0.70907   0.00000  Uiso   1.00
C1009  C     0.80243   0.59302   0.77550   0.00000  Uiso   1.00
C1010  C     0.82036   0.90712   0.70825   0.00000  Uiso   1.00
C1011  C     0.83486   0.61702   0.74941   0.00000  Uiso   1.00
C1012  C     0.83496   0.88356   0.75102   0.00000  Uiso   1.00
C1013  C     0.86898   0.59514   0.72301   0.00000  Uiso   1.00
C1014  C     0.85095   0.90644   0.79472   0.00000  Uiso   1.00
C1015  C     0.87247   0.54886   0.72368   0.00000  Uiso   1.00
C1016  C     0.85366   0.95277   0.79615   0.00000  Uiso   1.00
C1017  C     0.83957   0.52473   0.75071   0.00000  Uiso   1.00
C1018  C     0.83952   0.97619   0.75225   0.00000  Uiso   1.00
Cu1019 Cu    0.83333   0.75000   0.79822   0.00000  Uiso   1.00
Cu1020 Cu    0.83333   0.75001   0.70179   0.00000  Uiso   1.00
H1021  H     0.99236   0.74966   0.69364   0.00000  Uiso   1.00
H1022  H     0.67430   0.75024   0.80637   0.00000  Uiso   1.00
H1023  H     0.77713   0.52888   0.79407   0.00000  Uiso   1.00
H1024  H     0.80895   0.97076   0.67585   0.00000  Uiso   1.00
H1025  H     0.77530   0.60980   0.79531   0.00000  Uiso   1.00
H1026  H     0.80702   0.89007   0.67427   0.00000  Uiso   1.00
H1027  H     0.89386   0.61442   0.70296   0.00000  Uiso   1.00
H1028  H     0.86189   0.88808   0.82781   0.00000  Uiso   1.00
H1029  H     0.90414   0.78888   0.54637   0.00000  Uiso   1.00
H1030  H     0.78829   0.68886   0.95672   0.00000  Uiso   1.00
H1031  H     0.90038   0.79049   0.63373   0.00000  Uiso   1.00
H1032  H     0.78660   0.69220   0.86867   0.00000  Uiso   1.00
H1033  H     0.76368   0.71058   0.52605   0.00000  Uiso   1.00
H1034  H     0.87779   0.81019   0.97107   0.00000  Uiso   1.00
N1035  N     0.83333   0.75001   0.62935   0.00000  Uiso   1.00
N1036  N     0.83333   0.74999   0.87066   0.00000  Uiso   1.00
O1037  O     0.83334   0.68573   0.79072   0.00000  Uiso   1.00
O1038  O     0.83333   0.81428   0.70929   0.00000  Uiso   1.00
O1039  O     0.83334   0.68573   0.70928   0.00000  Uiso   1.00
O1040  O     0.83333   0.81427   0.79072   0.00000  Uiso   1.00
O1041  O     0.75828   0.74999   0.78132   0.00000  Uiso   1.00
O1042  O     0.90839   0.75001   0.71868   0.00000  Uiso   1.00
O1043  O     0.75828   0.75000   0.69989   0.00000  Uiso   1.00
O1044  O     0.90839   0.75000   0.80012   0.00000  Uiso   1.00
C1045  C     0.91133   0.52700   0.69539   0.00000  Uiso   1.00
C1046  C     0.95777   0.50857   0.72903   0.00000  Uiso   1.00
C1047  C     0.99985   0.99257   0.70031   0.00000  Uiso   1.00
H1048  H     0.98442   0.96610   0.67409   0.00000  Uiso   1.00
H1049  H     0.68129   0.52049   0.68028   0.00000  Uiso   1.00
H1050  H     0.69920   0.97895   0.72568   0.00000  Uiso   1.00
H1051  H     0.97447   0.53478   0.75509   0.00000  Uiso   1.00
H1052  H     0.94523   0.98017   0.74968   0.00000  Uiso   1.00
H1053  H     0.89254   0.50034   0.67132   0.00000  Uiso   1.00
H1054  H     0.92588   0.55154   0.67083   0.00000  Uiso   1.00
C1055  C     0.87071   0.97545   0.84492   0.00000  Uiso   1.00
C1056  C     0.92441   0.99685   0.84780   0.00000  Uiso   1.00
C1057  C     0.94292   0.51524   0.89866   0.00000  Uiso   1.00
H1058  H     0.91561   0.54062   0.90869   0.00000  Uiso   1.00
H1059  H     0.94605   0.98817   0.92573   0.00000  Uiso   1.00
H1060  H     0.98158   0.53093   0.89944   0.00000  Uiso   1.00
H1061  H     0.95259   0.97185   0.83856   0.00000  Uiso   1.00
H1062  H     0.92323   0.52460   0.82182   0.00000  Uiso   1.00
H1063  H     0.84205   0.50051   0.85248   0.00000  Uiso   1.00
H1064  H     0.87193   0.95091   0.87471   0.00000  Uiso   1.00
O1065  O     0.75885   0.70351   0.61993   0.00000  Uiso   1.00
C1066  C     0.75862   0.65761   0.60865   0.00000  Uiso   1.00
H1067  H     0.76780   0.63913   0.64315   0.00000  Uiso   1.00
H1068  H     0.78747   0.64713   0.58487   0.00000  Uiso   1.00
C1069  C     0.70482   0.64352   0.58490   0.00000  Uiso   1.00
H1070  H     0.69442   0.66110   0.54999   0.00000  Uiso   1.00
H1071  H     0.70389   0.60727   0.57765   0.00000  Uiso   1.00
H1072  H     0.67598   0.65146   0.60938   0.00000  Uiso   1.00
O1073  O     0.88659   0.81449   0.87791   0.00000  Uiso   1.00
C1074  C     0.94028   0.81200   0.89385   0.00000  Uiso   1.00
H1075  H     0.95490   0.77782   0.88925   0.00000  Uiso   1.00
H1076  H     0.94964   0.82235   0.93262   0.00000  Uiso   1.00
C1077  C     0.96849   0.84332   0.86375   0.00000  Uiso   1.00
H1078  H     0.95682   0.87805   0.86963   0.00000  Uiso   1.00
H1079  H     0.67755   0.84054   0.87470   0.00000  Uiso   1.00
H1080  H     0.95903   0.83485   0.82451   0.00000  Uiso   1.00
loop_
_geom_bond_atom_site_label_1
_geom_bond_atom_site_label_2
_geom_bond_distance
_geom_bond_site_symmetry_2
_ccdc_geom_bond_type
C1     C21     1.451   .     S
C1     O47     1.292   .     A
C1     O49     1.292   .     A
C2     O50     1.295   .     A
C2     C22     1.462   .     S
C2     O48     1.295   .     A
C3     H39     1.081   .     S
C3     C5      1.407   .     A
C3     C11     1.413   .     A
C4     C12     1.413   .     A
C4     H40     1.081   .     S
C4     C6      1.408   .     A
C5     N45     1.363   .     A
C5     H41     1.082   .     S
C6     N46     1.364   .     A
C6     H42     1.082   .     S
C7     N45     1.369   .     A
C7     O75     1.384   .     S
C7     C9      1.415   .     A
C8     O83     1.382   .     S
C8     N46     1.370   .     A
C8     C10     1.414   .     A
C9     H43     1.080   .     S
C9     C11     1.408   .     A
C10    H44     1.080   .     S
C10    C12     1.408   .     A
C11    C552    1.520   1_554 S
C12    C551    1.520   .     S
C13    O51     1.285   .     A
C13    O53     1.289   .     A
C13    C15     1.432   .     S
C14    O52     1.285   .     A
C14    O54     1.289   .     A
C14    C16     1.432   .     S
C15    C196    1.336   1_455 S
C15    H211    1.087   1_455 S
C16    C105    1.336   .     S
C16    H122    1.087   .     S
C17    H33     1.084   .     S
C17    C27     1.402   .     A
C17    C19     1.386   .     A
C18    C28     1.401   .     A
C18    H34     1.084   .     S
C18    C20     1.387   .     A
C19    C21     1.394   .     A
C19    H35     1.084   .     S
C20    C22     1.398   .     A
C20    H36     1.083   .     S
C21    C23     1.398   .     A
C22    C24     1.401   .     A
C23    H37     1.084   .     S
C23    C25     1.401   .     A
C24    C26     1.400   .     A
C24    H38     1.082   .     S
C25    C55     1.521   .     S
C25    C27     1.421   .     A
C26    C65     1.521   .     S
C26    C28     1.420   .     A
C27    C298    1.466   1_545 S
C28    C297    1.466   .     S
Cu29   O47     1.949   .     S
Cu29   O54     1.955   .     S
Cu29   O50     1.953   .     S
Cu29   Cu30    2.680   .     S
Cu29   O51     1.951   .     S
Cu29   N46     2.013   .     S
Cu30   N45     2.013   .     S
Cu30   O48     1.949   .     S
Cu30   O52     1.951   .     S
Cu30   O53     1.955   .     S
Cu30   O49     1.953   .     S
H31    C105    1.087   .     S
H32    C196    1.087   1_455 S
C55    C56     1.534   .     S
C55    H63     1.108   .     S
C55    H64     1.113   .     S
C56    H61     1.112   .     S
C56    C327    1.527   1_545 S
C56    H332    1.109   1_545 S
C57    H58     1.111   .     S
C57    C326    1.527   .     S
C57    H419    1.111   .     S
C57    H150    1.111   .     S
H59    C507    1.111   1_445 S
H60    C237    1.111   1_455 S
H62    C326    1.109   .     S
C65    H74     1.113   .     S
C65    C66     1.532   .     S
C65    H343    1.108   .     S
C66    H71     1.112   .     S
C66    C337    1.526   .     S
C66    H342    1.108   .     S
C67    H68     1.111   .     S
C67    H70     1.110   .     S
C67    C336    1.526   1_545 S
C67    H339    1.111   1_545 S
H69    C337    1.111   .     S
H72    C336    1.108   1_545 S
H73    C335    1.108   1_545 S
O75    C76     1.418   .     S
C76    C79     1.522   .     S
C76    H78     1.117   .     S
C76    H77     1.111   .     S
C79    H81     1.110   .     S
C79    H82     1.111   .     S
C79    H80     1.110   .     S
O83    C84     1.413   .     S
C84    C87     1.522   .     S
C84    H85     1.115   .     S
C84    H86     1.112   .     S
C87    H88     1.111   .     S
C87    H90     1.110   .     S
C87    H179    1.110   .     S
H89    C267    1.110   1_455 S
C91    C111    1.451   .     S
C91    O137    1.292   .     A
C91    O139    1.292   .     A
C92    O140    1.295   .     A
C92    C112    1.462   .     S
C92    O138    1.295   .     A
C93    H129    1.081   .     S
C93    C95     1.407   .     A
C93    C101    1.413   .     A
C94    C102    1.413   .     A
C94    H130    1.081   .     S
C94    C96     1.408   .     A
C95    N135    1.363   .     A
C95    H131    1.082   .     S
C96    N136    1.364   .     A
C96    H132    1.082   .     S
C97    N135    1.369   .     A
C97    O165    1.384   .     S
C97    C99     1.415   .     A
C98    O173    1.382   .     S
C98    N136    1.370   .     A
C98    C100    1.414   .     A
C99    H133    1.080   .     S
C99    C101    1.408   .     A
C100   H134    1.080   .     S
C100   C102    1.408   .     A
C101   C642    1.520   1_554 S
C102   C641    1.520   .     S
C103   O141    1.285   .     A
C103   O143    1.289   .     A
C103   C105    1.432   .     S
C104   O142    1.285   .     A
C104   O144    1.289   .     A
C104   C106    1.432   .     S
C106   C195    1.336   .     S
C106   H212    1.087   .     S
C107   H123    1.084   .     S
C107   C117    1.402   .     A
C107   C109    1.386   .     A
C108   C118    1.401   .     A
C108   H124    1.084   .     S
C108   C110    1.387   .     A
C109   C111    1.394   .     A
C109   H125    1.084   .     S
C110   C112    1.398   .     A
C110   H126    1.083   .     S
C111   C113    1.398   .     A
C112   C114    1.401   .     A
C113   H127    1.084   .     S
C113   C115    1.401   .     A
C114   C116    1.400   .     A
C114   H128    1.082   .     S
C115   C145    1.521   .     S
C115   C117    1.421   .     A
C116   C155    1.521   .     S
C116   C118    1.420   .     A
C117   C388    1.466   1_545 S
C118   C387    1.466   .     S
Cu119  O137    1.949   .     S
Cu119  O144    1.955   .     S
Cu119  O140    1.953   .     S
Cu119  Cu120   2.680   .     S
Cu119  O141    1.951   .     S
Cu119  N136    2.013   .     S
Cu120  N135    2.013   .     S
Cu120  O138    1.949   .     S
Cu120  O142    1.951   .     S
Cu120  O143    1.955   .     S
Cu120  O139    1.953   .     S
H121   C195    1.087   .     S
C145   C146    1.534   .     S
C145   H153    1.108   .     S
C145   H154    1.113   .     S
C146   H151    1.112   .     S
C146   C417    1.527   1_545 S
C146   H422    1.109   1_545 S
C147   H148    1.111   .     S
C147   C416    1.527   .     S
C147   H509    1.111   .     S
C147   H240    1.111   .     S
H149   C327    1.111   1_545 S
H152   C416    1.109   .     S
C155   H164    1.113   .     S
C155   C156    1.532   .     S
C155   H433    1.108   .     S
C156   H161    1.112   .     S
C156   C427    1.526   .     S
C156   H432    1.108   .     S
C157   H158    1.111   .     S
C157   H160    1.110   .     S
C157   C426    1.526   1_545 S
C157   H429    1.111   1_545 S
H159   C427    1.111   .     S
H162   C426    1.108   1_545 S
H163   C425    1.108   1_545 S
O165   C166    1.418   .     S
C166   C169    1.522   .     S
C166   H168    1.117   .     S
C166   H167    1.111   .     S
C169   H171    1.110   .     S
C169   H172    1.111   .     S
C169   H170    1.110   .     S
O173   C174    1.413   .     S
C174   C177    1.522   .     S
C174   H175    1.115   .     S
C174   H176    1.112   .     S
C177   H178    1.111   .     S
C177   H180    1.110   .     S
C177   H269    1.110   .     S
C181   C201    1.451   .     S
C181   O227    1.292   .     A
C181   O229    1.292   .     A
C182   O230    1.295   .     A
C182   C202    1.462   .     S
C182   O228    1.295   .     A
C183   H219    1.081   .     S
C183   C185    1.407   .     A
C183   C191    1.413   .     A
C184   C192    1.413   .     A
C184   H220    1.081   .     S
C184   C186    1.408   .     A
C185   N225    1.363   .     A
C185   H221    1.082   .     S
C186   N226    1.364   .     A
C186   H222    1.082   .     S
C187   N225    1.369   .     A
C187   O255    1.384   .     S
C187   C189    1.415   .     A
C188   O263    1.382   .     S
C188   N226    1.370   .     A
C188   C190    1.414   .     A
C189   H223    1.080   .     S
C189   C191    1.408   .     A
C190   H224    1.080   .     S
C190   C192    1.408   .     A
C191   C732    1.520   1_554 S
C192   C731    1.520   .     S
C193   O231    1.285   .     A
C193   O233    1.289   .     A
C193   C195    1.432   .     S
C194   O232    1.285   .     A
C194   O234    1.289   .     A
C194   C196    1.432   .     S
C196   C15     1.336   1_655 S
C196   H32     1.087   1_655 S
C197   H213    1.084   .     S
C197   C207    1.402   .     A
C197   C199    1.386   .     A
C198   C208    1.401   .     A
C198   H214    1.084   .     S
C198   C200    1.387   .     A
C199   C201    1.394   .     A
C199   H215    1.084   .     S
C200   C202    1.398   .     A
C200   H216    1.083   .     S
C201   C203    1.398   .     A
C202   C204    1.401   .     A
C203   H217    1.084   .     S
C203   C205    1.401   .     A
C204   C206    1.400   .     A
C204   H218    1.082   .     S
C205   C235    1.521   .     S
C205   C207    1.421   .     A
C206   C245    1.521   .     S
C206   C208    1.420   .     A
C207   C478    1.466   1_545 S
C208   C477    1.466   .     S
Cu209  O227    1.949   .     S
Cu209  O234    1.955   .     S
Cu209  O230    1.953   .     S
Cu209  Cu210   2.680   .     S
Cu209  O231    1.951   .     S
Cu209  N226    2.013   .     S
Cu210  N225    2.013   .     S
Cu210  O228    1.949   .     S
Cu210  O232    1.951   .     S
Cu210  O233    1.955   .     S
Cu210  O229    1.953   .     S
H211   C15     1.087   1_655 S
C235   C236    1.534   .     S
C235   H243    1.108   .     S
C235   H244    1.113   .     S
C236   H241    1.112   .     S
C236   C507    1.527   1_545 S
C236   H512    1.109   1_545 S
C237   H238    1.111   .     S
C237   C506    1.527   .     S
C237   H329    1.111   1_655 S
C237   H60     1.111   1_655 S
H239   C417    1.111   1_545 S
H242   C506    1.109   .     S
C245   H254    1.113   .     S
C245   C246    1.532   .     S
C245   H523    1.108   .     S
C246   H251    1.112   .     S
C246   C517    1.526   .     S
C246   H522    1.108   .     S
C247   H248    1.111   .     S
C247   H250    1.110   .     S
C247   C516    1.526   1_545 S
C247   H519    1.111   1_545 S
H249   C517    1.111   .     S
H252   C516    1.108   1_545 S
H253   C515    1.108   1_545 S
O255   C256    1.418   .     S
C256   C259    1.522   .     S
C256   H258    1.117   .     S
C256   H257    1.111   .     S
C259   H261    1.110   .     S
C259   H262    1.111   .     S
C259   H260    1.110   .     S
O263   C264    1.413   .     S
C264   C267    1.522   .     S
C264   H265    1.115   .     S
C264   H266    1.112   .     S
C267   H268    1.111   .     S
C267   H270    1.110   .     S
C267   H89     1.110   1_655 S
C271   C291    1.451   .     S
C271   O317    1.292   .     A
C271   O319    1.292   .     A
C272   O320    1.295   .     A
C272   C292    1.462   .     S
C272   O318    1.295   .     A
C273   H309    1.081   .     S
C273   C275    1.407   .     A
C273   C281    1.413   .     A
C274   C282    1.413   .     A
C274   H310    1.081   .     S
C274   C276    1.408   .     A
C275   N315    1.363   .     A
C275   H311    1.082   .     S
C276   N316    1.364   .     A
C276   H312    1.082   .     S
C277   N315    1.369   .     A
C277   O345    1.384   .     S
C277   C279    1.415   .     A
C278   O353    1.382   .     S
C278   N316    1.370   .     A
C278   C280    1.414   .     A
C279   H313    1.080   .     S
C279   C281    1.408   .     A
C280   H314    1.080   .     S
C280   C282    1.408   .     A
C281   C822    1.520   1_554 S
C282   C821    1.520   .     S
C283   O321    1.285   .     A
C283   O323    1.289   .     A
C283   C285    1.432   .     S
C284   O322    1.285   .     A
C284   O324    1.289   .     A
C284   C286    1.432   .     S
C285   C466    1.336   1_455 S
C285   H481    1.087   1_455 S
C286   C375    1.336   .     S
C286   H392    1.087   .     S
C287   H303    1.084   .     S
C287   C297    1.402   .     A
C287   C289    1.386   .     A
C288   C298    1.401   .     A
C288   H304    1.084   .     S
C288   C290    1.387   .     A
C289   C291    1.394   .     A
C289   H305    1.084   .     S
C290   C292    1.398   .     A
C290   H306    1.083   .     S
C291   C293    1.398   .     A
C292   C294    1.401   .     A
C293   H307    1.084   .     S
C293   C295    1.401   .     A
C294   C296    1.400   .     A
C294   H308    1.082   .     S
C295   C325    1.521   .     S
C295   C297    1.421   .     A
C296   C335    1.521   .     S
C296   C298    1.420   .     A
C298   C27     1.466   1_565 S
Cu299  O317    1.949   .     S
Cu299  O324    1.955   .     S
Cu299  O320    1.953   .     S
Cu299  Cu300   2.680   .     S
Cu299  O321    1.951   .     S
Cu299  N316    2.013   .     S
Cu300  N315    2.013   .     S
Cu300  O318    1.949   .     S
Cu300  O322    1.951   .     S
Cu300  O323    1.955   .     S
Cu300  O319    1.953   .     S
H301   C375    1.087   .     S
H302   C466    1.087   1_455 S
C325   C326    1.534   .     S
C325   H333    1.108   .     S
C325   H334    1.113   .     S
C326   H331    1.112   .     S
C327   H328    1.111   .     S
C327   C56     1.527   1_565 S
C327   H149    1.111   1_565 S
C327   H420    1.111   .     S
H329   C237    1.111   1_455 S
H330   C507    1.111   1_455 S
H332   C56     1.109   1_565 S
C335   H344    1.113   .     S
C335   C336    1.532   .     S
C335   H73     1.108   1_565 S
C336   H341    1.112   .     S
C336   C67     1.526   1_565 S
C336   H72     1.108   1_565 S
C337   H338    1.111   .     S
C337   H340    1.110   .     S
H339   C67     1.111   1_565 S
O345   C346    1.418   .     S
C346   C349    1.522   .     S
C346   H348    1.117   .     S
C346   H347    1.111   .     S
C349   H351    1.110   .     S
C349   H352    1.111   .     S
C349   H350    1.110   .     S
O353   C354    1.413   .     S
C354   C357    1.522   .     S
C354   H355    1.115   .     S
C354   H356    1.112   .     S
C357   H358    1.111   .     S
C357   H360    1.110   .     S
C357   H449    1.110   .     S
H359   C537    1.110   1_455 S
C361   C381    1.451   .     S
C361   O407    1.292   .     A
C361   O409    1.292   .     A
C362   O410    1.295   .     A
C362   C382    1.462   .     S
C362   O408    1.295   .     A
C363   H399    1.081   .     S
C363   C365    1.407   .     A
C363   C371    1.413   .     A
C364   C372    1.413   .     A
C364   H400    1.081   .     S
C364   C366    1.408   .     A
C365   N405    1.363   .     A
C365   H401    1.082   .     S
C366   N406    1.364   .     A
C366   H402    1.082   .     S
C367   N405    1.369   .     A
C367   O435    1.384   .     S
C367   C369    1.415   .     A
C368   O443    1.382   .     S
C368   N406    1.370   .     A
C368   C370    1.414   .     A
C369   H403    1.080   .     S
C369   C371    1.408   .     A
C370   H404    1.080   .     S
C370   C372    1.408   .     A
C371   C912    1.520   1_554 S
C372   C911    1.520   .     S
C373   O411    1.285   .     A
C373   O413    1.289   .     A
C373   C375    1.432   .     S
C374   O412    1.285   .     A
C374   O414    1.289   .     A
C374   C376    1.432   .     S
C376   C465    1.336   .     S
C376   H482    1.087   .     S
C377   H393    1.084   .     S
C377   C387    1.402   .     A
C377   C379    1.386   .     A
C378   C388    1.401   .     A
C378   H394    1.084   .     S
C378   C380    1.387   .     A
C379   C381    1.394   .     A
C379   H395    1.084   .     S
C380   C382    1.398   .     A
C380   H396    1.083   .     S
C381   C383    1.398   .     A
C382   C384    1.401   .     A
C383   H397    1.084   .     S
C383   C385    1.401   .     A
C384   C386    1.400   .     A
C384   H398    1.082   .     S
C385   C415    1.521   .     S
C385   C387    1.421   .     A
C386   C425    1.521   .     S
C386   C388    1.420   .     A
C388   C117    1.466   1_565 S
Cu389  O407    1.949   .     S
Cu389  O414    1.955   .     S
Cu389  O410    1.953   .     S
Cu389  Cu390   2.680   .     S
Cu389  O411    1.951   .     S
Cu389  N406    2.013   .     S
Cu390  N405    2.013   .     S
Cu390  O408    1.949   .     S
Cu390  O412    1.951   .     S
Cu390  O413    1.955   .     S
Cu390  O409    1.953   .     S
H391   C465    1.087   .     S
C415   C416    1.534   .     S
C415   H423    1.108   .     S
C415   H424    1.113   .     S
C416   H421    1.112   .     S
C417   H418    1.111   .     S
C417   C146    1.527   1_565 S
C417   H239    1.111   1_565 S
C417   H510    1.111   .     S
H422   C146    1.109   1_565 S
C425   H434    1.113   .     S
C425   C426    1.532   .     S
C425   H163    1.108   1_565 S
C426   H431    1.112   .     S
C426   C157    1.526   1_565 S
C426   H162    1.108   1_565 S
C427   H428    1.111   .     S
C427   H430    1.110   .     S
H429   C157    1.111   1_565 S
O435   C436    1.418   .     S
C436   C439    1.522   .     S
C436   H438    1.117   .     S
C436   H437    1.111   .     S
C439   H441    1.110   .     S
C439   H442    1.111   .     S
C439   H440    1.110   .     S
O443   C444    1.413   .     S
C444   C447    1.522   .     S
C444   H445    1.115   .     S
C444   H446    1.112   .     S
C447   H448    1.111   .     S
C447   H450    1.110   .     S
C447   H539    1.110   .     S
C451   C471    1.451   .     S
C451   O497    1.292   .     A
C451   O499    1.292   .     A
C452   O500    1.295   .     A
C452   C472    1.462   .     S
C452   O498    1.295   .     A
C453   H489    1.081   .     S
C453   C455    1.407   .     A
C453   C461    1.413   .     A
C454   C462    1.413   .     A
C454   H490    1.081   .     S
C454   C456    1.408   .     A
C455   N495    1.363   .     A
C455   H491    1.082   .     S
C456   N496    1.364   .     A
C456   H492    1.082   .     S
C457   N495    1.369   .     A
C457   O525    1.384   .     S
C457   C459    1.415   .     A
C458   O533    1.382   .     S
C458   N496    1.370   .     A
C458   C460    1.414   .     A
C459   H493    1.080   .     S
C459   C461    1.408   .     A
C460   H494    1.080   .     S
C460   C462    1.408   .     A
C461   C1002   1.520   1_554 S
C462   C1001   1.520   .     S
C463   O501    1.285   .     A
C463   O503    1.289   .     A
C463   C465    1.432   .     S
C464   O502    1.285   .     A
C464   O504    1.289   .     A
C464   C466    1.432   .     S
C466   C285    1.336   1_655 S
C466   H302    1.087   1_655 S
C467   H483    1.084   .     S
C467   C477    1.402   .     A
C467   C469    1.386   .     A
C468   C478    1.401   .     A
C468   H484    1.084   .     S
C468   C470    1.387   .     A
C469   C471    1.394   .     A
C469   H485    1.084   .     S
C470   C472    1.398   .     A
C470   H486    1.083   .     S
C471   C473    1.398   .     A
C472   C474    1.401   .     A
C473   H487    1.084   .     S
C473   C475    1.401   .     A
C474   C476    1.400   .     A
C474   H488    1.082   .     S
C475   C505    1.521   .     S
C475   C477    1.421   .     A
C476   C515    1.521   .     S
C476   C478    1.420   .     A
C478   C207    1.466   1_565 S
Cu479  O497    1.949   .     S
Cu479  O504    1.955   .     S
Cu479  O500    1.953   .     S
Cu479  Cu480   2.680   .     S
Cu479  O501    1.951   .     S
Cu479  N496    2.013   .     S
Cu480  N495    2.013   .     S
Cu480  O498    1.949   .     S
Cu480  O502    1.951   .     S
Cu480  O503    1.955   .     S
Cu480  O499    1.953   .     S
H481   C285    1.087   1_655 S
C505   C506    1.534   .     S
C505   H513    1.108   .     S
C505   H514    1.113   .     S
C506   H511    1.112   .     S
C507   H508    1.111   .     S
C507   C236    1.527   1_565 S
C507   H59     1.111   1_665 S
C507   H330    1.111   1_655 S
H512   C236    1.109   1_565 S
C515   H524    1.113   .     S
C515   C516    1.532   .     S
C515   H253    1.108   1_565 S
C516   H521    1.112   .     S
C516   C247    1.526   1_565 S
C516   H252    1.108   1_565 S
C517   H518    1.111   .     S
C517   H520    1.110   .     S
H519   C247    1.111   1_565 S
O525   C526    1.418   .     S
C526   C529    1.522   .     S
C526   H528    1.117   .     S
C526   H527    1.111   .     S
C529   H531    1.110   .     S
C529   H532    1.111   .     S
C529   H530    1.110   .     S
O533   C534    1.413   .     S
C534   C537    1.522   .     S
C534   H535    1.115   .     S
C534   H536    1.112   .     S
C537   H538    1.111   .     S
C537   H540    1.110   .     S
C537   H359    1.110   1_655 S
C541   C561    1.451   .     S
C541   O587    1.292   .     A
C541   O589    1.292   .     A
C542   O590    1.295   .     A
C542   C562    1.462   .     S
C542   O588    1.295   .     A
C543   H579    1.081   .     S
C543   C545    1.407   .     A
C543   C551    1.413   .     A
C544   C552    1.413   .     A
C544   H580    1.081   .     S
C544   C546    1.408   .     A
C545   N585    1.363   .     A
C545   H581    1.082   .     S
C546   N586    1.364   .     A
C546   H582    1.082   .     S
C547   N585    1.369   .     A
C547   O615    1.384   .     S
C547   C549    1.415   .     A
C548   O623    1.382   .     S
C548   N586    1.370   .     A
C548   C550    1.414   .     A
C549   H583    1.080   .     S
C549   C551    1.408   .     A
C550   H584    1.080   .     S
C550   C552    1.408   .     A
C552   C11     1.520   1_556 S
C553   O591    1.285   .     A
C553   O593    1.289   .     A
C553   C555    1.432   .     S
C554   O592    1.285   .     A
C554   O594    1.289   .     A
C554   C556    1.432   .     S
C555   C736    1.336   1_455 S
C555   H751    1.087   1_455 S
C556   C645    1.336   .     S
C556   H662    1.087   .     S
C557   H573    1.084   .     S
C557   C567    1.402   .     A
C557   C559    1.386   .     A
C558   C568    1.401   .     A
C558   H574    1.084   .     S
C558   C560    1.387   .     A
C559   C561    1.394   .     A
C559   H575    1.084   .     S
C560   C562    1.398   .     A
C560   H576    1.083   .     S
C561   C563    1.398   .     A
C562   C564    1.401   .     A
C563   H577    1.084   .     S
C563   C565    1.401   .     A
C564   C566    1.400   .     A
C564   H578    1.082   .     S
C565   C595    1.521   .     S
C565   C567    1.421   .     A
C566   C605    1.521   .     S
C566   C568    1.420   .     A
C567   C838    1.466   1_545 S
C568   C837    1.466   .     S
Cu569  O587    1.949   .     S
Cu569  O594    1.955   .     S
Cu569  O590    1.953   .     S
Cu569  Cu570   2.680   .     S
Cu569  O591    1.951   .     S
Cu569  N586    2.013   .     S
Cu570  N585    2.013   .     S
Cu570  O588    1.949   .     S
Cu570  O592    1.951   .     S
Cu570  O593    1.955   .     S
Cu570  O589    1.953   .     S
H571   C645    1.087   .     S
H572   C736    1.087   1_455 S
C595   C596    1.534   .     S
C595   H603    1.108   .     S
C595   H604    1.113   .     S
C596   H601    1.112   .     S
C596   C867    1.527   1_545 S
C596   H872    1.109   1_545 S
C597   H598    1.111   .     S
C597   C866    1.527   .     S
C597   H959    1.111   .     S
C597   H690    1.111   .     S
H599   C1047   1.111   1_445 S
H600   C777    1.111   1_455 S
H602   C866    1.109   .     S
C605   H614    1.113   .     S
C605   C606    1.532   .     S
C605   H883    1.108   .     S
C606   H611    1.112   .     S
C606   C877    1.526   .     S
C606   H882    1.108   .     S
C607   H608    1.111   .     S
C607   H610    1.110   .     S
C607   C876    1.526   1_545 S
C607   H879    1.111   1_545 S
H609   C877    1.111   .     S
H612   C876    1.108   1_545 S
H613   C875    1.108   1_545 S
O615   C616    1.418   .     S
C616   C619    1.522   .     S
C616   H618    1.117   .     S
C616   H617    1.111   .     S
C619   H621    1.110   .     S
C619   H622    1.111   .     S
C619   H620    1.110   .     S
O623   C624    1.413   .     S
C624   C627    1.522   .     S
C624   H625    1.115   .     S
C624   H626    1.112   .     S
C627   H628    1.111   .     S
C627   H630    1.110   .     S
C627   H719    1.110   .     S
H629   C807    1.110   1_455 S
C631   C651    1.451   .     S
C631   O677    1.292   .     A
C631   O679    1.292   .     A
C632   O680    1.295   .     A
C632   C652    1.462   .     S
C632   O678    1.295   .     A
C633   H669    1.081   .     S
C633   C635    1.407   .     A
C633   C641    1.413   .     A
C634   C642    1.413   .     A
C634   H670    1.081   .     S
C634   C636    1.408   .     A
C635   N675    1.363   .     A
C635   H671    1.082   .     S
C636   N676    1.364   .     A
C636   H672    1.082   .     S
C637   N675    1.369   .     A
C637   O705    1.384   .     S
C637   C639    1.415   .     A
C638   O713    1.382   .     S
C638   N676    1.370   .     A
C638   C640    1.414   .     A
C639   H673    1.080   .     S
C639   C641    1.408   .     A
C640   H674    1.080   .     S
C640   C642    1.408   .     A
C642   C101    1.520   1_556 S
C643   O681    1.285   .     A
C643   O683    1.289   .     A
C643   C645    1.432   .     S
C644   O682    1.285   .     A
C644   O684    1.289   .     A
C644   C646    1.432   .     S
C646   C735    1.336   .     S
C646   H752    1.087   .     S
C647   H663    1.084   .     S
C647   C657    1.402   .     A
C647   C649    1.386   .     A
C648   C658    1.401   .     A
C648   H664    1.084   .     S
C648   C650    1.387   .     A
C649   C651    1.394   .     A
C649   H665    1.084   .     S
C650   C652    1.398   .     A
C650   H666    1.083   .     S
C651   C653    1.398   .     A
C652   C654    1.401   .     A
C653   H667    1.084   .     S
C653   C655    1.401   .     A
C654   C656    1.400   .     A
C654   H668    1.082   .     S
C655   C685    1.521   .     S
C655   C657    1.421   .     A
C656   C695    1.521   .     S
C656   C658    1.420   .     A
C657   C928    1.466   1_545 S
C658   C927    1.466   .     S
Cu659  O677    1.949   .     S
Cu659  O684    1.955   .     S
Cu659  O680    1.953   .     S
Cu659  Cu660   2.680   .     S
Cu659  O681    1.951   .     S
Cu659  N676    2.013   .     S
Cu660  N675    2.013   .     S
Cu660  O678    1.949   .     S
Cu660  O682    1.951   .     S
Cu660  O683    1.955   .     S
Cu660  O679    1.953   .     S
H661   C735    1.087   .     S
C685   C686    1.534   .     S
C685   H693    1.108   .     S
C685   H694    1.113   .     S
C686   H691    1.112   .     S
C686   C957    1.527   1_545 S
C686   H962    1.109   1_545 S
C687   H688    1.111   .     S
C687   C956    1.527   .     S
C687   H1049   1.111   .     S
C687   H780    1.111   .     S
H689   C867    1.111   1_545 S
H692   C956    1.109   .     S
C695   H704    1.113   .     S
C695   C696    1.532   .     S
C695   H973    1.108   .     S
C696   H701    1.112   .     S
C696   C967    1.526   .     S
C696   H972    1.108   .     S
C697   H698    1.111   .     S
C697   H700    1.110   .     S
C697   C966    1.526   1_545 S
C697   H969    1.111   1_545 S
H699   C967    1.111   .     S
H702   C966    1.108   1_545 S
H703   C965    1.108   1_545 S
O705   C706    1.418   .     S
C706   C709    1.522   .     S
C706   H708    1.117   .     S
C706   H707    1.111   .     S
C709   H711    1.110   .     S
C709   H712    1.111   .     S
C709   H710    1.110   .     S
O713   C714    1.413   .     S
C714   C717    1.522   .     S
C714   H715    1.115   .     S
C714   H716    1.112   .     S
C717   H718    1.111   .     S
C717   H720    1.110   .     S
C717   H809    1.110   .     S
C721   C741    1.451   .     S
C721   O767    1.292   .     A
C721   O769    1.292   .     A
C722   O770    1.295   .     A
C722   C742    1.462   .     S
C722   O768    1.295   .     A
C723   H759    1.081   .     S
C723   C725    1.407   .     A
C723   C731    1.413   .     A
C724   C732    1.413   .     A
C724   H760    1.081   .     S
C724   C726    1.408   .     A
C725   N765    1.363   .     A
C725   H761    1.082   .     S
C726   N766    1.364   .     A
C726   H762    1.082   .     S
C727   N765    1.369   .     A
C727   O795    1.384   .     S
C727   C729    1.415   .     A
C728   O803    1.382   .     S
C728   N766    1.370   .     A
C728   C730    1.414   .     A
C729   H763    1.080   .     S
C729   C731    1.408   .     A
C730   H764    1.080   .     S
C730   C732    1.408   .     A
C732   C191    1.520   1_556 S
C733   O771    1.285   .     A
C733   O773    1.289   .     A
C733   C735    1.432   .     S
C734   O772    1.285   .     A
C734   O774    1.289   .     A
C734   C736    1.432   .     S
C736   C555    1.336   1_655 S
C736   H572    1.087   1_655 S
C737   H753    1.084   .     S
C737   C747    1.402   .     A
C737   C739    1.386   .     A
C738   C748    1.401   .     A
C738   H754    1.084   .     S
C738   C740    1.387   .     A
C739   C741    1.394   .     A
C739   H755    1.084   .     S
C740   C742    1.398   .     A
C740   H756    1.083   .     S
C741   C743    1.398   .     A
C742   C744    1.401   .     A
C743   H757    1.084   .     S
C743   C745    1.401   .     A
C744   C746    1.400   .     A
C744   H758    1.082   .     S
C745   C775    1.521   .     S
C745   C747    1.421   .     A
C746   C785    1.521   .     S
C746   C748    1.420   .     A
C747   C1018   1.466   1_545 S
C748   C1017   1.466   .     S
Cu749  O767    1.949   .     S
Cu749  O774    1.955   .     S
Cu749  O770    1.953   .     S
Cu749  Cu750   2.680   .     S
Cu749  O771    1.951   .     S
Cu749  N766    2.013   .     S
Cu750  N765    2.013   .     S
Cu750  O768    1.949   .     S
Cu750  O772    1.951   .     S
Cu750  O773    1.955   .     S
Cu750  O769    1.953   .     S
H751   C555    1.087   1_655 S
C775   C776    1.534   .     S
C775   H783    1.108   .     S
C775   H784    1.113   .     S
C776   H781    1.112   .     S
C776   C1047   1.527   1_545 S
C776   H1052   1.109   1_545 S
C777   H778    1.111   .     S
C777   C1046   1.527   .     S
C777   H869    1.111   1_655 S
C777   H600    1.111   1_655 S
H779   C957    1.111   1_545 S
H782   C1046   1.109   .     S
C785   H794    1.113   .     S
C785   C786    1.532   .     S
C785   H1063   1.108   .     S
C786   H791    1.112   .     S
C786   C1057   1.526   .     S
C786   H1062   1.108   .     S
C787   H788    1.111   .     S
C787   H790    1.110   .     S
C787   C1056   1.526   1_545 S
C787   H1059   1.111   1_545 S
H789   C1057   1.111   .     S
H792   C1056   1.108   1_545 S
H793   C1055   1.108   1_545 S
O795   C796    1.418   .     S
C796   C799    1.522   .     S
C796   H798    1.117   .     S
C796   H797    1.111   .     S
C799   H801    1.110   .     S
C799   H802    1.111   .     S
C799   H800    1.110   .     S
O803   C804    1.413   .     S
C804   C807    1.522   .     S
C804   H805    1.115   .     S
C804   H806    1.112   .     S
C807   H808    1.111   .     S
C807   H810    1.110   .     S
C807   H629    1.110   1_655 S
C811   C831    1.451   .     S
C811   O857    1.292   .     A
C811   O859    1.292   .     A
C812   O860    1.295   .     A
C812   C832    1.462   .     S
C812   O858    1.295   .     A
C813   H849    1.081   .     S
C813   C815    1.407   .     A
C813   C821    1.413   .     A
C814   C822    1.413   .     A
C814   H850    1.081   .     S
C814   C816    1.408   .     A
C815   N855    1.363   .     A
C815   H851    1.082   .     S
C816   N856    1.364   .     A
C816   H852    1.082   .     S
C817   N855    1.369   .     A
C817   O885    1.384   .     S
C817   C819    1.415   .     A
C818   O893    1.382   .     S
C818   N856    1.370   .     A
C818   C820    1.414   .     A
C819   H853    1.080   .     S
C819   C821    1.408   .     A
C820   H854    1.080   .     S
C820   C822    1.408   .     A
C822   C281    1.520   1_556 S
C823   O861    1.285   .     A
C823   O863    1.289   .     A
C823   C825    1.432   .     S
C824   O862    1.285   .     A
C824   O864    1.289   .     A
C824   C826    1.432   .     S
C825   C1006   1.336   1_455 S
C825   H1021   1.087   1_455 S
C826   C915    1.336   .     S
C826   H932    1.087   .     S
C827   H843    1.084   .     S
C827   C837    1.402   .     A
C827   C829    1.386   .     A
C828   C838    1.401   .     A
C828   H844    1.084   .     S
C828   C830    1.387   .     A
C829   C831    1.394   .     A
C829   H845    1.084   .     S
C830   C832    1.398   .     A
C830   H846    1.083   .     S
C831   C833    1.398   .     A
C832   C834    1.401   .     A
C833   H847    1.084   .     S
C833   C835    1.401   .     A
C834   C836    1.400   .     A
C834   H848    1.082   .     S
C835   C865    1.521   .     S
C835   C837    1.421   .     A
C836   C875    1.521   .     S
C836   C838    1.420   .     A
C838   C567    1.466   1_565 S
Cu839  O857    1.949   .     S
Cu839  O864    1.955   .     S
Cu839  O860    1.953   .     S
Cu839  Cu840   2.680   .     S
Cu839  O861    1.951   .     S
Cu839  N856    2.013   .     S
Cu840  N855    2.013   .     S
Cu840  O858    1.949   .     S
Cu840  O862    1.951   .     S
Cu840  O863    1.955   .     S
Cu840  O859    1.953   .     S
H841   C915    1.087   .     S
H842   C1006   1.087   1_455 S
C865   C866    1.534   .     S
C865   H873    1.108   .     S
C865   H874    1.113   .     S
C866   H871    1.112   .     S
C867   H868    1.111   .     S
C867   C596    1.527   1_565 S
C867   H689    1.111   1_565 S
C867   H960    1.111   .     S
H869   C777    1.111   1_455 S
H870   C1047   1.111   1_455 S
H872   C596    1.109   1_565 S
C875   H884    1.113   .     S
C875   C876    1.532   .     S
C875   H613    1.108   1_565 S
C876   H881    1.112   .     S
C876   C607    1.526   1_565 S
C876   H612    1.108   1_565 S
C877   H878    1.111   .     S
C877   H880    1.110   .     S
H879   C607    1.111   1_565 S
O885   C886    1.418   .     S
C886   C889    1.522   .     S
C886   H888    1.117   .     S
C886   H887    1.111   .     S
C889   H891    1.110   .     S
C889   H892    1.111   .     S
C889   H890    1.110   .     S
O893   C894    1.413   .     S
C894   C897    1.522   .     S
C894   H895    1.115   .     S
C894   H896    1.112   .     S
C897   H898    1.111   .     S
C897   H900    1.110   .     S
C897   H989    1.110   .     S
H899   C1077   1.110   1_455 S
C901   C921    1.451   .     S
C901   O947    1.292   .     A
C901   O949    1.292   .     A
C902   O950    1.295   .     A
C902   C922    1.462   .     S
C902   O948    1.295   .     A
C903   H939    1.081   .     S
C903   C905    1.407   .     A
C903   C911    1.413   .     A
C904   C912    1.413   .     A
C904   H940    1.081   .     S
C904   C906    1.408   .     A
C905   N945    1.363   .     A
C905   H941    1.082   .     S
C906   N946    1.364   .     A
C906   H942    1.082   .     S
C907   N945    1.369   .     A
C907   O975    1.384   .     S
C907   C909    1.415   .     A
C908   O983    1.382   .     S
C908   N946    1.370   .     A
C908   C910    1.414   .     A
C909   H943    1.080   .     S
C909   C911    1.408   .     A
C910   H944    1.080   .     S
C910   C912    1.408   .     A
C912   C371    1.520   1_556 S
C913   O951    1.285   .     A
C913   O953    1.289   .     A
C913   C915    1.432   .     S
C914   O952    1.285   .     A
C914   O954    1.289   .     A
C914   C916    1.432   .     S
C916   C1005   1.336   .     S
C916   H1022   1.087   .     S
C917   H933    1.084   .     S
C917   C927    1.402   .     A
C917   C919    1.386   .     A
C918   C928    1.401   .     A
C918   H934    1.084   .     S
C918   C920    1.387   .     A
C919   C921    1.394   .     A
C919   H935    1.084   .     S
C920   C922    1.398   .     A
C920   H936    1.083   .     S
C921   C923    1.398   .     A
C922   C924    1.401   .     A
C923   H937    1.084   .     S
C923   C925    1.401   .     A
C924   C926    1.400   .     A
C924   H938    1.082   .     S
C925   C955    1.521   .     S
C925   C927    1.421   .     A
C926   C965    1.521   .     S
C926   C928    1.420   .     A
C928   C657    1.466   1_565 S
Cu929  O947    1.949   .     S
Cu929  O954    1.955   .     S
Cu929  O950    1.953   .     S
Cu929  Cu930   2.680   .     S
Cu929  O951    1.951   .     S
Cu929  N946    2.013   .     S
Cu930  N945    2.013   .     S
Cu930  O948    1.949   .     S
Cu930  O952    1.951   .     S
Cu930  O953    1.955   .     S
Cu930  O949    1.953   .     S
H931   C1005   1.087   .     S
C955   C956    1.534   .     S
C955   H963    1.108   .     S
C955   H964    1.113   .     S
C956   H961    1.112   .     S
C957   H958    1.111   .     S
C957   C686    1.527   1_565 S
C957   H779    1.111   1_565 S
C957   H1050   1.111   .     S
H962   C686    1.109   1_565 S
C965   H974    1.113   .     S
C965   C966    1.532   .     S
C965   H703    1.108   1_565 S
C966   H971    1.112   .     S
C966   C697    1.526   1_565 S
C966   H702    1.108   1_565 S
C967   H968    1.111   .     S
C967   H970    1.110   .     S
H969   C697    1.111   1_565 S
O975   C976    1.418   .     S
C976   C979    1.522   .     S
C976   H978    1.117   .     S
C976   H977    1.111   .     S
C979   H981    1.110   .     S
C979   H982    1.111   .     S
C979   H980    1.110   .     S
O983   C984    1.413   .     S
C984   C987    1.522   .     S
C984   H985    1.115   .     S
C984   H986    1.112   .     S
C987   H988    1.111   .     S
C987   H990    1.110   .     S
C987   H1079   1.110   .     S
C991   C1011   1.451   .     S
C991   O1037   1.292   .     A
C991   O1039   1.292   .     A
C992   O1040   1.295   .     A
C992   C1012   1.462   .     S
C992   O1038   1.295   .     A
C993   H1029   1.081   .     S
C993   C995    1.407   .     A
C993   C1001   1.413   .     A
C994   C1002   1.413   .     A
C994   H1030   1.081   .     S
C994   C996    1.408   .     A
C995   N1035   1.363   .     A
C995   H1031   1.082   .     S
C996   N1036   1.364   .     A
C996   H1032   1.082   .     S
C997   N1035   1.369   .     A
C997   O1065   1.384   .     S
C997   C999    1.415   .     A
C998   O1073   1.382   .     S
C998   N1036   1.370   .     A
C998   C1000   1.414   .     A
C999   H1033   1.080   .     S
C999   C1001   1.408   .     A
C1000  H1034   1.080   .     S
C1000  C1002   1.408   .     A
C1002  C461    1.520   1_556 S
C1003  O1041   1.285   .     A
C1003  O1043   1.289   .     A
C1003  C1005   1.432   .     S
C1004  O1042   1.285   .     A
C1004  O1044   1.289   .     A
C1004  C1006   1.432   .     S
C1006  C825    1.336   1_655 S
C1006  H842    1.087   1_655 S
C1007  H1023   1.084   .     S
C1007  C1017   1.402   .     A
C1007  C1009   1.386   .     A
C1008  C1018   1.401   .     A
C1008  H1024   1.084   .     S
C1008  C1010   1.387   .     A
C1009  C1011   1.394   .     A
C1009  H1025   1.084   .     S
C1010  C1012   1.398   .     A
C1010  H1026   1.083   .     S
C1011  C1013   1.398   .     A
C1012  C1014   1.401   .     A
C1013  H1027   1.084   .     S
C1013  C1015   1.401   .     A
C1014  C1016   1.400   .     A
C1014  H1028   1.082   .     S
C1015  C1045   1.521   .     S
C1015  C1017   1.421   .     A
C1016  C1055   1.521   .     S
C1016  C1018   1.420   .     A
C1018  C747    1.466   1_565 S
Cu1019 O1037   1.949   .     S
Cu1019 O1044   1.955   .     S
Cu1019 O1040   1.953   .     S
Cu1019 Cu1020  2.680   .     S
Cu1019 O1041   1.951   .     S
Cu1019 N1036   2.013   .     S
Cu1020 N1035   2.013   .     S
Cu1020 O1038   1.949   .     S
Cu1020 O1042   1.951   .     S
Cu1020 O1043   1.955   .     S
Cu1020 O1039   1.953   .     S
H1021  C825    1.087   1_655 S
C1045  C1046   1.534   .     S
C1045  H1053   1.108   .     S
C1045  H1054   1.113   .     S
C1046  H1051   1.112   .     S
C1047  H1048   1.111   .     S
C1047  C776    1.527   1_565 S
C1047  H599    1.111   1_665 S
C1047  H870    1.111   1_655 S
H1052  C776    1.109   1_565 S
C1055  H1064   1.113   .     S
C1055  C1056   1.532   .     S
C1055  H793    1.108   1_565 S
C1056  H1061   1.112   .     S
C1056  C787    1.526   1_565 S
C1056  H792    1.108   1_565 S
C1057  H1058   1.111   .     S
C1057  H1060   1.110   .     S
H1059  C787    1.111   1_565 S
O1065  C1066   1.418   .     S
C1066  C1069   1.522   .     S
C1066  H1068   1.117   .     S
C1066  H1067   1.111   .     S
C1069  H1071   1.110   .     S
C1069  H1072   1.111   .     S
C1069  H1070   1.110   .     S
O1073  C1074   1.413   .     S
C1074  C1077   1.522   .     S
C1074  H1075   1.115   .     S
C1074  H1076   1.112   .     S
C1077  H1078   1.111   .     S
C1077  H1080   1.110   .     S
C1077  H899    1.110   1_655 S
