data_str_m3_o10_o17_pcu_sym.16
_audit_creation_date              2020-01-03
_audit_creation_method            'Materials Studio'
_symmetry_space_group_name_H-M    'P1'
_symmetry_Int_Tables_number       1
_symmetry_cell_setting            triclinic
loop_
_symmetry_equiv_pos_as_xyz
  x,y,z
_cell_length_a                    23.5230
_cell_length_b                    25.6345
_cell_length_c                    29.7642
_cell_angle_alpha                 91.5495
_cell_angle_beta                  85.9639
_cell_angle_gamma                 93.3420
loop_
_atom_site_label
_atom_site_type_symbol
_atom_site_fract_x
_atom_site_fract_y
_atom_site_fract_z
_atom_site_U_iso_or_equiv
_atom_site_adp_type
_atom_site_occupancy
C1     C     0.18175   0.26477   0.24900   0.00000  Uiso   1.00
C2     C     0.15376   0.21498   0.40873   0.00000  Uiso   1.00
C3     C     0.16391   0.16325   0.11611   0.00000  Uiso   1.00
C4     C     0.16974   0.17024   0.38381   0.00000  Uiso   1.00
C5     C     0.14707   0.20741   0.09584   0.00000  Uiso   1.00
C6     C     0.18746   0.12637   0.40395   0.00000  Uiso   1.00
C7     C     0.15001   0.20976   0.04953   0.00000  Uiso   1.00
C8     C     0.18710   0.12491   0.45021   0.00000  Uiso   1.00
C9     C     0.16841   0.16644   0.02334   0.00000  Uiso   1.00
C10    C     0.17003   0.16867   0.47643   0.00000  Uiso   1.00
C11    C     0.18449   0.12072   0.04401   0.00000  Uiso   1.00
C12    C     0.15159   0.06858   0.25143   0.00000  Uiso   1.00
C13    C     0.15394   0.21435   0.45576   0.00000  Uiso   1.00
C14    C     0.13506   0.25502   0.02922   0.00000  Uiso   1.00
C15    C     0.20220   0.07973   0.47048   0.00000  Uiso   1.00
C16    C     0.20029   0.07303   0.11465   0.00000  Uiso   1.00
C17    C     0.13857   0.26213   0.38540   0.00000  Uiso   1.00
C18    C     0.00684   0.13670   0.19502   0.00000  Uiso   1.00
C19    C     0.32643   0.19654   0.30498   0.00000  Uiso   1.00
C20    C     0.13715   0.25746   0.48269   0.00000  Uiso   1.00
C21    C     0.20062   0.07744   0.01697   0.00000  Uiso   1.00
C22    C     0.18971   0.31928   0.24858   0.00000  Uiso   1.00
C23    C     0.14366   0.01408   0.25243   0.00000  Uiso   1.00
C24    C     0.16762   0.16798   0.33621   0.00000  Uiso   1.00
C25    C     0.16577   0.16563   0.16376   0.00000  Uiso   1.00
C26    C     0.18283   0.11942   0.09115   0.00000  Uiso   1.00
H27    H     0.13346   0.24069   0.11639   0.00000  Uiso   1.00
H28    H     0.16325   0.00091   0.36377   0.00000  Uiso   1.00
H29    H     0.04291   0.07983   0.15674   0.00000  Uiso   1.00
H30    H     0.28978   0.25315   0.34323   0.00000  Uiso   1.00
H31    H     0.20001   0.09277   0.38340   0.00000  Uiso   1.00
H32    H     0.12149   0.28852   0.04936   0.00000  Uiso   1.00
H33    H     0.21465   0.04586   0.45034   0.00000  Uiso   1.00
H34    H     0.12476   0.29298   0.46814   0.00000  Uiso   1.00
H35    H     0.21142   0.04128   0.03127   0.00000  Uiso   1.00
H36    H     0.23330   0.00274   0.24492   0.00000  Uiso   1.00
H37    H     0.10007   0.33063   0.25613   0.00000  Uiso   1.00
H38    H     0.26202   0.02381   0.12397   0.00000  Uiso   1.00
N39    N     0.31678   0.15265   0.23783   0.00000  Uiso   1.00
N40    N     0.01656   0.18068   0.26217   0.00000  Uiso   1.00
O41    O     0.12975   0.24619   0.25298   0.00000  Uiso   1.00
O42    O     0.25507   0.05524   0.10556   0.00000  Uiso   1.00
O43    O     0.09150   0.26365   0.37068   0.00000  Uiso   1.00
O44    O     0.17824   0.30467   0.38063   0.00000  Uiso   1.00
O45    O     0.00502   0.16511   0.16287   0.00000  Uiso   1.00
O46    O     0.02837   0.08717   0.18904   0.00000  Uiso   1.00
O47    O     0.32834   0.16813   0.33711   0.00000  Uiso   1.00
O48    O     0.30458   0.24595   0.31096   0.00000  Uiso   1.00
O49    O     0.20358   0.08714   0.24701   0.00000  Uiso   1.00
O50    O     0.22613   0.23721   0.24518   0.00000  Uiso   1.00
O51    O     0.10720   0.09613   0.25481   0.00000  Uiso   1.00
O52    O     0.11847   0.17117   0.31997   0.00000  Uiso   1.00
O53    O     0.21486   0.16216   0.18002   0.00000  Uiso   1.00
O54    O     0.21485   0.16219   0.31217   0.00000  Uiso   1.00
O55    O     0.11848   0.17115   0.18782   0.00000  Uiso   1.00
O56    O     0.16699   0.05108   0.14240   0.00000  Uiso   1.00
Zn57   Zn    0.10231   0.17266   0.25521   0.00000  Uiso   1.00
Zn58   Zn    0.23102   0.16067   0.24479   0.00000  Uiso   1.00
C59    C     0.51509   0.26477   0.24900   0.00000  Uiso   1.00
C60    C     0.48710   0.21498   0.40873   0.00000  Uiso   1.00
C61    C     0.49724   0.16325   0.11611   0.00000  Uiso   1.00
C62    C     0.50308   0.17024   0.38381   0.00000  Uiso   1.00
C63    C     0.48040   0.20741   0.09584   0.00000  Uiso   1.00
C64    C     0.52079   0.12637   0.40395   0.00000  Uiso   1.00
C65    C     0.48334   0.20976   0.04953   0.00000  Uiso   1.00
C66    C     0.52043   0.12491   0.45021   0.00000  Uiso   1.00
C67    C     0.50175   0.16644   0.02334   0.00000  Uiso   1.00
C68    C     0.50337   0.16867   0.47643   0.00000  Uiso   1.00
C69    C     0.51782   0.12072   0.04401   0.00000  Uiso   1.00
C70    C     0.48493   0.06858   0.25143   0.00000  Uiso   1.00
C71    C     0.48727   0.21435   0.45576   0.00000  Uiso   1.00
C72    C     0.46839   0.25502   0.02922   0.00000  Uiso   1.00
C73    C     0.53553   0.07973   0.47048   0.00000  Uiso   1.00
C74    C     0.53362   0.07303   0.11465   0.00000  Uiso   1.00
C75    C     0.47191   0.26213   0.38540   0.00000  Uiso   1.00
C76    C     0.34017   0.13670   0.19502   0.00000  Uiso   1.00
C77    C     0.65977   0.19654   0.30498   0.00000  Uiso   1.00
C78    C     0.47048   0.25746   0.48269   0.00000  Uiso   1.00
C79    C     0.53395   0.07744   0.01697   0.00000  Uiso   1.00
C80    C     0.52305   0.31928   0.24858   0.00000  Uiso   1.00
C81    C     0.47699   0.01408   0.25243   0.00000  Uiso   1.00
C82    C     0.50095   0.16798   0.33621   0.00000  Uiso   1.00
C83    C     0.49910   0.16563   0.16376   0.00000  Uiso   1.00
C84    C     0.51617   0.11942   0.09115   0.00000  Uiso   1.00
H85    H     0.46680   0.24069   0.11639   0.00000  Uiso   1.00
H86    H     0.49658   0.00091   0.36377   0.00000  Uiso   1.00
H87    H     0.37625   0.07983   0.15674   0.00000  Uiso   1.00
H88    H     0.62312   0.25315   0.34323   0.00000  Uiso   1.00
H89    H     0.53335   0.09277   0.38340   0.00000  Uiso   1.00
H90    H     0.45482   0.28852   0.04936   0.00000  Uiso   1.00
H91    H     0.54798   0.04586   0.45034   0.00000  Uiso   1.00
H92    H     0.45809   0.29298   0.46814   0.00000  Uiso   1.00
H93    H     0.54476   0.04128   0.03127   0.00000  Uiso   1.00
H94    H     0.56663   0.00274   0.24492   0.00000  Uiso   1.00
H95    H     0.43341   0.33063   0.25613   0.00000  Uiso   1.00
H96    H     0.59535   0.02381   0.12397   0.00000  Uiso   1.00
N97    N     0.65011   0.15265   0.23783   0.00000  Uiso   1.00
N98    N     0.34989   0.18068   0.26217   0.00000  Uiso   1.00
O99    O     0.46308   0.24619   0.25298   0.00000  Uiso   1.00
O100   O     0.58840   0.05524   0.10556   0.00000  Uiso   1.00
O101   O     0.42483   0.26365   0.37068   0.00000  Uiso   1.00
O102   O     0.51157   0.30467   0.38063   0.00000  Uiso   1.00
O103   O     0.33835   0.16511   0.16287   0.00000  Uiso   1.00
O104   O     0.36171   0.08717   0.18904   0.00000  Uiso   1.00
O105   O     0.66167   0.16813   0.33711   0.00000  Uiso   1.00
O106   O     0.63791   0.24595   0.31096   0.00000  Uiso   1.00
O107   O     0.53692   0.08714   0.24701   0.00000  Uiso   1.00
O108   O     0.55946   0.23721   0.24518   0.00000  Uiso   1.00
O109   O     0.44054   0.09613   0.25481   0.00000  Uiso   1.00
O110   O     0.45181   0.17117   0.31997   0.00000  Uiso   1.00
O111   O     0.54819   0.16216   0.18002   0.00000  Uiso   1.00
O112   O     0.54819   0.16219   0.31217   0.00000  Uiso   1.00
O113   O     0.45181   0.17115   0.18782   0.00000  Uiso   1.00
O114   O     0.50032   0.05108   0.14240   0.00000  Uiso   1.00
Zn115  Zn    0.43565   0.17266   0.25521   0.00000  Uiso   1.00
Zn116  Zn    0.56435   0.16067   0.24479   0.00000  Uiso   1.00
C117   C     0.84842   0.26477   0.24900   0.00000  Uiso   1.00
C118   C     0.82043   0.21498   0.40873   0.00000  Uiso   1.00
C119   C     0.83058   0.16325   0.11611   0.00000  Uiso   1.00
C120   C     0.83641   0.17024   0.38381   0.00000  Uiso   1.00
C121   C     0.81373   0.20741   0.09584   0.00000  Uiso   1.00
C122   C     0.85413   0.12637   0.40395   0.00000  Uiso   1.00
C123   C     0.81667   0.20976   0.04953   0.00000  Uiso   1.00
C124   C     0.85376   0.12491   0.45021   0.00000  Uiso   1.00
C125   C     0.83508   0.16644   0.02334   0.00000  Uiso   1.00
C126   C     0.83670   0.16867   0.47643   0.00000  Uiso   1.00
C127   C     0.85116   0.12072   0.04401   0.00000  Uiso   1.00
C128   C     0.81826   0.06858   0.25143   0.00000  Uiso   1.00
C129   C     0.82060   0.21435   0.45576   0.00000  Uiso   1.00
C130   C     0.80172   0.25502   0.02922   0.00000  Uiso   1.00
C131   C     0.86887   0.07973   0.47048   0.00000  Uiso   1.00
C132   C     0.86695   0.07303   0.11465   0.00000  Uiso   1.00
C133   C     0.80524   0.26213   0.38540   0.00000  Uiso   1.00
C134   C     0.67350   0.13670   0.19502   0.00000  Uiso   1.00
C135   C     0.99310   0.19654   0.30498   0.00000  Uiso   1.00
C136   C     0.80382   0.25746   0.48269   0.00000  Uiso   1.00
C137   C     0.86728   0.07744   0.01697   0.00000  Uiso   1.00
C138   C     0.85638   0.31928   0.24858   0.00000  Uiso   1.00
C139   C     0.81033   0.01408   0.25243   0.00000  Uiso   1.00
C140   C     0.83429   0.16798   0.33621   0.00000  Uiso   1.00
C141   C     0.83244   0.16563   0.16376   0.00000  Uiso   1.00
C142   C     0.84950   0.11942   0.09115   0.00000  Uiso   1.00
H143   H     0.80013   0.24069   0.11639   0.00000  Uiso   1.00
H144   H     0.82991   0.00091   0.36377   0.00000  Uiso   1.00
H145   H     0.70958   0.07983   0.15674   0.00000  Uiso   1.00
H146   H     0.95645   0.25315   0.34323   0.00000  Uiso   1.00
H147   H     0.86668   0.09277   0.38340   0.00000  Uiso   1.00
H148   H     0.78816   0.28852   0.04936   0.00000  Uiso   1.00
H149   H     0.88132   0.04586   0.45034   0.00000  Uiso   1.00
H150   H     0.79143   0.29298   0.46814   0.00000  Uiso   1.00
H151   H     0.87809   0.04128   0.03127   0.00000  Uiso   1.00
H152   H     0.89997   0.00274   0.24492   0.00000  Uiso   1.00
H153   H     0.76674   0.33063   0.25613   0.00000  Uiso   1.00
H154   H     0.92868   0.02381   0.12397   0.00000  Uiso   1.00
N155   N     0.98344   0.15265   0.23783   0.00000  Uiso   1.00
N156   N     0.68322   0.18068   0.26217   0.00000  Uiso   1.00
O157   O     0.79642   0.24619   0.25298   0.00000  Uiso   1.00
O158   O     0.92174   0.05524   0.10556   0.00000  Uiso   1.00
O159   O     0.75817   0.26365   0.37068   0.00000  Uiso   1.00
O160   O     0.84490   0.30467   0.38063   0.00000  Uiso   1.00
O161   O     0.67169   0.16511   0.16287   0.00000  Uiso   1.00
O162   O     0.69504   0.08717   0.18904   0.00000  Uiso   1.00
O163   O     0.99500   0.16813   0.33711   0.00000  Uiso   1.00
O164   O     0.97125   0.24595   0.31096   0.00000  Uiso   1.00
O165   O     0.87025   0.08714   0.24701   0.00000  Uiso   1.00
O166   O     0.89280   0.23721   0.24518   0.00000  Uiso   1.00
O167   O     0.77387   0.09613   0.25481   0.00000  Uiso   1.00
O168   O     0.78514   0.17117   0.31997   0.00000  Uiso   1.00
O169   O     0.88153   0.16216   0.18002   0.00000  Uiso   1.00
O170   O     0.88152   0.16219   0.31217   0.00000  Uiso   1.00
O171   O     0.78515   0.17115   0.18782   0.00000  Uiso   1.00
O172   O     0.83365   0.05108   0.14240   0.00000  Uiso   1.00
Zn173  Zn    0.76898   0.17266   0.25521   0.00000  Uiso   1.00
Zn174  Zn    0.89769   0.16067   0.24479   0.00000  Uiso   1.00
C175   C     0.18175   0.59810   0.24900   0.00000  Uiso   1.00
C176   C     0.15376   0.54831   0.40873   0.00000  Uiso   1.00
C177   C     0.16391   0.49658   0.11611   0.00000  Uiso   1.00
C178   C     0.16974   0.50357   0.38381   0.00000  Uiso   1.00
C179   C     0.14707   0.54074   0.09584   0.00000  Uiso   1.00
C180   C     0.18746   0.45970   0.40395   0.00000  Uiso   1.00
C181   C     0.15001   0.54310   0.04953   0.00000  Uiso   1.00
C182   C     0.18710   0.45824   0.45021   0.00000  Uiso   1.00
C183   C     0.16841   0.49977   0.02334   0.00000  Uiso   1.00
C184   C     0.17003   0.50201   0.47643   0.00000  Uiso   1.00
C185   C     0.18449   0.45406   0.04401   0.00000  Uiso   1.00
C186   C     0.15159   0.40191   0.25143   0.00000  Uiso   1.00
C187   C     0.15394   0.54768   0.45576   0.00000  Uiso   1.00
C188   C     0.13506   0.58835   0.02922   0.00000  Uiso   1.00
C189   C     0.20220   0.41306   0.47048   0.00000  Uiso   1.00
C190   C     0.20029   0.40636   0.11465   0.00000  Uiso   1.00
C191   C     0.13857   0.59546   0.38540   0.00000  Uiso   1.00
C192   C     0.00684   0.47004   0.19502   0.00000  Uiso   1.00
C193   C     0.32643   0.52988   0.30498   0.00000  Uiso   1.00
C194   C     0.13715   0.59079   0.48269   0.00000  Uiso   1.00
C195   C     0.20062   0.41077   0.01697   0.00000  Uiso   1.00
C196   C     0.18971   0.65262   0.24858   0.00000  Uiso   1.00
C197   C     0.14366   0.34741   0.25243   0.00000  Uiso   1.00
C198   C     0.16762   0.50131   0.33621   0.00000  Uiso   1.00
C199   C     0.16577   0.49896   0.16376   0.00000  Uiso   1.00
C200   C     0.18283   0.45275   0.09115   0.00000  Uiso   1.00
H201   H     0.13346   0.57402   0.11639   0.00000  Uiso   1.00
H202   H     0.16325   0.33425   0.36377   0.00000  Uiso   1.00
H203   H     0.04291   0.41317   0.15674   0.00000  Uiso   1.00
H204   H     0.28978   0.58648   0.34323   0.00000  Uiso   1.00
H205   H     0.20001   0.42611   0.38340   0.00000  Uiso   1.00
H206   H     0.12149   0.62185   0.04936   0.00000  Uiso   1.00
H207   H     0.21465   0.37920   0.45034   0.00000  Uiso   1.00
H208   H     0.12476   0.62632   0.46814   0.00000  Uiso   1.00
H209   H     0.21142   0.37461   0.03127   0.00000  Uiso   1.00
H210   H     0.23330   0.33607   0.24492   0.00000  Uiso   1.00
H211   H     0.10007   0.66396   0.25613   0.00000  Uiso   1.00
H212   H     0.26202   0.35714   0.12397   0.00000  Uiso   1.00
N213   N     0.31678   0.48598   0.23783   0.00000  Uiso   1.00
N214   N     0.01656   0.51402   0.26217   0.00000  Uiso   1.00
O215   O     0.12975   0.57952   0.25298   0.00000  Uiso   1.00
O216   O     0.25507   0.38857   0.10556   0.00000  Uiso   1.00
O217   O     0.09150   0.59698   0.37068   0.00000  Uiso   1.00
O218   O     0.17824   0.63800   0.38063   0.00000  Uiso   1.00
O219   O     0.00502   0.49844   0.16287   0.00000  Uiso   1.00
O220   O     0.02837   0.42050   0.18904   0.00000  Uiso   1.00
O221   O     0.32834   0.50146   0.33711   0.00000  Uiso   1.00
O222   O     0.30458   0.57929   0.31096   0.00000  Uiso   1.00
O223   O     0.20358   0.42048   0.24701   0.00000  Uiso   1.00
O224   O     0.22613   0.57054   0.24518   0.00000  Uiso   1.00
O225   O     0.10720   0.42946   0.25481   0.00000  Uiso   1.00
O226   O     0.11847   0.50450   0.31997   0.00000  Uiso   1.00
O227   O     0.21486   0.49550   0.18002   0.00000  Uiso   1.00
O228   O     0.21485   0.49552   0.31217   0.00000  Uiso   1.00
O229   O     0.11848   0.50448   0.18782   0.00000  Uiso   1.00
O230   O     0.16699   0.38441   0.14240   0.00000  Uiso   1.00
Zn231  Zn    0.10231   0.50600   0.25521   0.00000  Uiso   1.00
Zn232  Zn    0.23102   0.49400   0.24479   0.00000  Uiso   1.00
C233   C     0.51509   0.59810   0.24900   0.00000  Uiso   1.00
C234   C     0.48710   0.54831   0.40873   0.00000  Uiso   1.00
C235   C     0.49724   0.49658   0.11611   0.00000  Uiso   1.00
C236   C     0.50308   0.50357   0.38381   0.00000  Uiso   1.00
C237   C     0.48040   0.54074   0.09584   0.00000  Uiso   1.00
C238   C     0.52079   0.45970   0.40395   0.00000  Uiso   1.00
C239   C     0.48334   0.54310   0.04953   0.00000  Uiso   1.00
C240   C     0.52043   0.45824   0.45021   0.00000  Uiso   1.00
C241   C     0.50175   0.49977   0.02334   0.00000  Uiso   1.00
C242   C     0.50337   0.50201   0.47643   0.00000  Uiso   1.00
C243   C     0.51782   0.45406   0.04401   0.00000  Uiso   1.00
C244   C     0.48493   0.40191   0.25143   0.00000  Uiso   1.00
C245   C     0.48727   0.54768   0.45576   0.00000  Uiso   1.00
C246   C     0.46839   0.58835   0.02922   0.00000  Uiso   1.00
C247   C     0.53553   0.41306   0.47048   0.00000  Uiso   1.00
C248   C     0.53362   0.40636   0.11465   0.00000  Uiso   1.00
C249   C     0.47191   0.59546   0.38540   0.00000  Uiso   1.00
C250   C     0.34017   0.47004   0.19502   0.00000  Uiso   1.00
C251   C     0.65977   0.52988   0.30498   0.00000  Uiso   1.00
C252   C     0.47048   0.59079   0.48269   0.00000  Uiso   1.00
C253   C     0.53395   0.41077   0.01697   0.00000  Uiso   1.00
C254   C     0.52305   0.65262   0.24858   0.00000  Uiso   1.00
C255   C     0.47699   0.34741   0.25243   0.00000  Uiso   1.00
C256   C     0.50095   0.50131   0.33621   0.00000  Uiso   1.00
C257   C     0.49910   0.49896   0.16376   0.00000  Uiso   1.00
C258   C     0.51617   0.45275   0.09115   0.00000  Uiso   1.00
H259   H     0.46680   0.57402   0.11639   0.00000  Uiso   1.00
H260   H     0.49658   0.33425   0.36377   0.00000  Uiso   1.00
H261   H     0.37625   0.41317   0.15674   0.00000  Uiso   1.00
H262   H     0.62312   0.58648   0.34323   0.00000  Uiso   1.00
H263   H     0.53335   0.42611   0.38340   0.00000  Uiso   1.00
H264   H     0.45482   0.62185   0.04936   0.00000  Uiso   1.00
H265   H     0.54798   0.37920   0.45034   0.00000  Uiso   1.00
H266   H     0.45809   0.62632   0.46814   0.00000  Uiso   1.00
H267   H     0.54476   0.37461   0.03127   0.00000  Uiso   1.00
H268   H     0.56663   0.33607   0.24492   0.00000  Uiso   1.00
H269   H     0.43341   0.66396   0.25613   0.00000  Uiso   1.00
H270   H     0.59535   0.35714   0.12397   0.00000  Uiso   1.00
N271   N     0.65011   0.48598   0.23783   0.00000  Uiso   1.00
N272   N     0.34989   0.51402   0.26217   0.00000  Uiso   1.00
O273   O     0.46308   0.57952   0.25298   0.00000  Uiso   1.00
O274   O     0.58840   0.38857   0.10556   0.00000  Uiso   1.00
O275   O     0.42483   0.59698   0.37068   0.00000  Uiso   1.00
O276   O     0.51157   0.63800   0.38063   0.00000  Uiso   1.00
O277   O     0.33835   0.49844   0.16287   0.00000  Uiso   1.00
O278   O     0.36171   0.42050   0.18904   0.00000  Uiso   1.00
O279   O     0.66167   0.50146   0.33711   0.00000  Uiso   1.00
O280   O     0.63791   0.57929   0.31096   0.00000  Uiso   1.00
O281   O     0.53692   0.42048   0.24701   0.00000  Uiso   1.00
O282   O     0.55946   0.57054   0.24518   0.00000  Uiso   1.00
O283   O     0.44054   0.42946   0.25481   0.00000  Uiso   1.00
O284   O     0.45181   0.50450   0.31997   0.00000  Uiso   1.00
O285   O     0.54819   0.49550   0.18002   0.00000  Uiso   1.00
O286   O     0.54819   0.49552   0.31217   0.00000  Uiso   1.00
O287   O     0.45181   0.50448   0.18782   0.00000  Uiso   1.00
O288   O     0.50032   0.38441   0.14240   0.00000  Uiso   1.00
Zn289  Zn    0.43565   0.50600   0.25521   0.00000  Uiso   1.00
Zn290  Zn    0.56435   0.49400   0.24479   0.00000  Uiso   1.00
C291   C     0.84842   0.59810   0.24900   0.00000  Uiso   1.00
C292   C     0.82043   0.54831   0.40873   0.00000  Uiso   1.00
C293   C     0.83058   0.49658   0.11611   0.00000  Uiso   1.00
C294   C     0.83641   0.50357   0.38381   0.00000  Uiso   1.00
C295   C     0.81373   0.54074   0.09584   0.00000  Uiso   1.00
C296   C     0.85413   0.45970   0.40395   0.00000  Uiso   1.00
C297   C     0.81667   0.54310   0.04953   0.00000  Uiso   1.00
C298   C     0.85376   0.45824   0.45021   0.00000  Uiso   1.00
C299   C     0.83508   0.49977   0.02334   0.00000  Uiso   1.00
C300   C     0.83670   0.50201   0.47643   0.00000  Uiso   1.00
C301   C     0.85116   0.45406   0.04401   0.00000  Uiso   1.00
C302   C     0.81826   0.40191   0.25143   0.00000  Uiso   1.00
C303   C     0.82060   0.54768   0.45576   0.00000  Uiso   1.00
C304   C     0.80172   0.58835   0.02922   0.00000  Uiso   1.00
C305   C     0.86887   0.41306   0.47048   0.00000  Uiso   1.00
C306   C     0.86695   0.40636   0.11465   0.00000  Uiso   1.00
C307   C     0.80524   0.59546   0.38540   0.00000  Uiso   1.00
C308   C     0.67350   0.47004   0.19502   0.00000  Uiso   1.00
C309   C     0.99310   0.52988   0.30498   0.00000  Uiso   1.00
C310   C     0.80382   0.59079   0.48269   0.00000  Uiso   1.00
C311   C     0.86728   0.41077   0.01697   0.00000  Uiso   1.00
C312   C     0.85638   0.65262   0.24858   0.00000  Uiso   1.00
C313   C     0.81033   0.34741   0.25243   0.00000  Uiso   1.00
C314   C     0.83429   0.50131   0.33621   0.00000  Uiso   1.00
C315   C     0.83244   0.49896   0.16376   0.00000  Uiso   1.00
C316   C     0.84950   0.45275   0.09115   0.00000  Uiso   1.00
H317   H     0.80013   0.57402   0.11639   0.00000  Uiso   1.00
H318   H     0.82991   0.33425   0.36377   0.00000  Uiso   1.00
H319   H     0.70958   0.41317   0.15674   0.00000  Uiso   1.00
H320   H     0.95645   0.58648   0.34323   0.00000  Uiso   1.00
H321   H     0.86668   0.42611   0.38340   0.00000  Uiso   1.00
H322   H     0.78816   0.62185   0.04936   0.00000  Uiso   1.00
H323   H     0.88132   0.37920   0.45034   0.00000  Uiso   1.00
H324   H     0.79143   0.62632   0.46814   0.00000  Uiso   1.00
H325   H     0.87809   0.37461   0.03127   0.00000  Uiso   1.00
H326   H     0.89997   0.33607   0.24492   0.00000  Uiso   1.00
H327   H     0.76674   0.66396   0.25613   0.00000  Uiso   1.00
H328   H     0.92868   0.35714   0.12397   0.00000  Uiso   1.00
N329   N     0.98344   0.48598   0.23783   0.00000  Uiso   1.00
N330   N     0.68322   0.51402   0.26217   0.00000  Uiso   1.00
O331   O     0.79642   0.57952   0.25298   0.00000  Uiso   1.00
O332   O     0.92174   0.38857   0.10556   0.00000  Uiso   1.00
O333   O     0.75817   0.59698   0.37068   0.00000  Uiso   1.00
O334   O     0.84490   0.63800   0.38063   0.00000  Uiso   1.00
O335   O     0.67169   0.49844   0.16287   0.00000  Uiso   1.00
O336   O     0.69504   0.42050   0.18904   0.00000  Uiso   1.00
O337   O     0.99500   0.50146   0.33711   0.00000  Uiso   1.00
O338   O     0.97125   0.57929   0.31096   0.00000  Uiso   1.00
O339   O     0.87025   0.42048   0.24701   0.00000  Uiso   1.00
O340   O     0.89280   0.57054   0.24518   0.00000  Uiso   1.00
O341   O     0.77387   0.42946   0.25481   0.00000  Uiso   1.00
O342   O     0.78514   0.50450   0.31997   0.00000  Uiso   1.00
O343   O     0.88153   0.49550   0.18002   0.00000  Uiso   1.00
O344   O     0.88152   0.49552   0.31217   0.00000  Uiso   1.00
O345   O     0.78515   0.50448   0.18782   0.00000  Uiso   1.00
O346   O     0.83365   0.38441   0.14240   0.00000  Uiso   1.00
Zn347  Zn    0.76898   0.50600   0.25521   0.00000  Uiso   1.00
Zn348  Zn    0.89769   0.49400   0.24479   0.00000  Uiso   1.00
C349   C     0.18175   0.93143   0.24900   0.00000  Uiso   1.00
C350   C     0.15376   0.88165   0.40873   0.00000  Uiso   1.00
C351   C     0.16391   0.82991   0.11611   0.00000  Uiso   1.00
C352   C     0.16974   0.83691   0.38381   0.00000  Uiso   1.00
C353   C     0.14707   0.87408   0.09584   0.00000  Uiso   1.00
C354   C     0.18746   0.79304   0.40395   0.00000  Uiso   1.00
C355   C     0.15001   0.87643   0.04953   0.00000  Uiso   1.00
C356   C     0.18710   0.79157   0.45021   0.00000  Uiso   1.00
C357   C     0.16841   0.83310   0.02334   0.00000  Uiso   1.00
C358   C     0.17003   0.83534   0.47643   0.00000  Uiso   1.00
C359   C     0.18449   0.78739   0.04401   0.00000  Uiso   1.00
C360   C     0.15159   0.73525   0.25143   0.00000  Uiso   1.00
C361   C     0.15394   0.88101   0.45576   0.00000  Uiso   1.00
C362   C     0.13506   0.92169   0.02922   0.00000  Uiso   1.00
C363   C     0.20220   0.74640   0.47048   0.00000  Uiso   1.00
C364   C     0.20029   0.73969   0.11465   0.00000  Uiso   1.00
C365   C     0.13857   0.92879   0.38540   0.00000  Uiso   1.00
C366   C     0.00684   0.80337   0.19502   0.00000  Uiso   1.00
C367   C     0.32643   0.86321   0.30498   0.00000  Uiso   1.00
C368   C     0.13715   0.92412   0.48269   0.00000  Uiso   1.00
C369   C     0.20062   0.74411   0.01697   0.00000  Uiso   1.00
C370   C     0.18971   0.98595   0.24858   0.00000  Uiso   1.00
C371   C     0.14366   0.68075   0.25243   0.00000  Uiso   1.00
C372   C     0.16762   0.83464   0.33621   0.00000  Uiso   1.00
C373   C     0.16577   0.83229   0.16376   0.00000  Uiso   1.00
C374   C     0.18283   0.78609   0.09115   0.00000  Uiso   1.00
H375   H     0.13346   0.90736   0.11639   0.00000  Uiso   1.00
H376   H     0.16325   0.66758   0.36377   0.00000  Uiso   1.00
H377   H     0.04291   0.74650   0.15674   0.00000  Uiso   1.00
H378   H     0.28978   0.91982   0.34323   0.00000  Uiso   1.00
H379   H     0.20001   0.75944   0.38340   0.00000  Uiso   1.00
H380   H     0.12149   0.95518   0.04936   0.00000  Uiso   1.00
H381   H     0.21465   0.71253   0.45034   0.00000  Uiso   1.00
H382   H     0.12476   0.95965   0.46814   0.00000  Uiso   1.00
H383   H     0.21142   0.70795   0.03127   0.00000  Uiso   1.00
H384   H     0.23330   0.66941   0.24492   0.00000  Uiso   1.00
H385   H     0.10007   0.99729   0.25613   0.00000  Uiso   1.00
H386   H     0.26202   0.69048   0.12397   0.00000  Uiso   1.00
N387   N     0.31678   0.81932   0.23783   0.00000  Uiso   1.00
N388   N     0.01656   0.84735   0.26217   0.00000  Uiso   1.00
O389   O     0.12975   0.91286   0.25298   0.00000  Uiso   1.00
O390   O     0.25507   0.72191   0.10556   0.00000  Uiso   1.00
O391   O     0.09150   0.93031   0.37068   0.00000  Uiso   1.00
O392   O     0.17824   0.97133   0.38063   0.00000  Uiso   1.00
O393   O     0.00502   0.83177   0.16287   0.00000  Uiso   1.00
O394   O     0.02837   0.75384   0.18904   0.00000  Uiso   1.00
O395   O     0.32834   0.83480   0.33711   0.00000  Uiso   1.00
O396   O     0.30458   0.91262   0.31096   0.00000  Uiso   1.00
O397   O     0.20358   0.75381   0.24701   0.00000  Uiso   1.00
O398   O     0.22613   0.90387   0.24518   0.00000  Uiso   1.00
O399   O     0.10720   0.76279   0.25481   0.00000  Uiso   1.00
O400   O     0.11847   0.83784   0.31997   0.00000  Uiso   1.00
O401   O     0.21486   0.82883   0.18002   0.00000  Uiso   1.00
O402   O     0.21485   0.82885   0.31217   0.00000  Uiso   1.00
O403   O     0.11848   0.83781   0.18782   0.00000  Uiso   1.00
O404   O     0.16699   0.71775   0.14240   0.00000  Uiso   1.00
Zn405  Zn    0.10231   0.83933   0.25521   0.00000  Uiso   1.00
Zn406  Zn    0.23102   0.82734   0.24479   0.00000  Uiso   1.00
C407   C     0.51509   0.93143   0.24900   0.00000  Uiso   1.00
C408   C     0.48710   0.88165   0.40873   0.00000  Uiso   1.00
C409   C     0.49724   0.82991   0.11611   0.00000  Uiso   1.00
C410   C     0.50308   0.83691   0.38381   0.00000  Uiso   1.00
C411   C     0.48040   0.87408   0.09584   0.00000  Uiso   1.00
C412   C     0.52079   0.79304   0.40395   0.00000  Uiso   1.00
C413   C     0.48334   0.87643   0.04953   0.00000  Uiso   1.00
C414   C     0.52043   0.79157   0.45021   0.00000  Uiso   1.00
C415   C     0.50175   0.83310   0.02334   0.00000  Uiso   1.00
C416   C     0.50337   0.83534   0.47643   0.00000  Uiso   1.00
C417   C     0.51782   0.78739   0.04401   0.00000  Uiso   1.00
C418   C     0.48493   0.73525   0.25143   0.00000  Uiso   1.00
C419   C     0.48727   0.88101   0.45576   0.00000  Uiso   1.00
C420   C     0.46839   0.92169   0.02922   0.00000  Uiso   1.00
C421   C     0.53553   0.74640   0.47048   0.00000  Uiso   1.00
C422   C     0.53362   0.73969   0.11465   0.00000  Uiso   1.00
C423   C     0.47191   0.92879   0.38540   0.00000  Uiso   1.00
C424   C     0.34017   0.80337   0.19502   0.00000  Uiso   1.00
C425   C     0.65977   0.86321   0.30498   0.00000  Uiso   1.00
C426   C     0.47048   0.92412   0.48269   0.00000  Uiso   1.00
C427   C     0.53395   0.74411   0.01697   0.00000  Uiso   1.00
C428   C     0.52305   0.98595   0.24858   0.00000  Uiso   1.00
C429   C     0.47699   0.68075   0.25243   0.00000  Uiso   1.00
C430   C     0.50095   0.83464   0.33621   0.00000  Uiso   1.00
C431   C     0.49910   0.83229   0.16376   0.00000  Uiso   1.00
C432   C     0.51617   0.78609   0.09115   0.00000  Uiso   1.00
H433   H     0.46680   0.90736   0.11639   0.00000  Uiso   1.00
H434   H     0.49658   0.66758   0.36377   0.00000  Uiso   1.00
H435   H     0.37625   0.74650   0.15674   0.00000  Uiso   1.00
H436   H     0.62312   0.91982   0.34323   0.00000  Uiso   1.00
H437   H     0.53335   0.75944   0.38340   0.00000  Uiso   1.00
H438   H     0.45482   0.95518   0.04936   0.00000  Uiso   1.00
H439   H     0.54798   0.71253   0.45034   0.00000  Uiso   1.00
H440   H     0.45809   0.95965   0.46814   0.00000  Uiso   1.00
H441   H     0.54476   0.70795   0.03127   0.00000  Uiso   1.00
H442   H     0.56663   0.66941   0.24492   0.00000  Uiso   1.00
H443   H     0.43341   0.99729   0.25613   0.00000  Uiso   1.00
H444   H     0.59535   0.69048   0.12397   0.00000  Uiso   1.00
N445   N     0.65011   0.81932   0.23783   0.00000  Uiso   1.00
N446   N     0.34989   0.84735   0.26217   0.00000  Uiso   1.00
O447   O     0.46308   0.91286   0.25298   0.00000  Uiso   1.00
O448   O     0.58840   0.72191   0.10556   0.00000  Uiso   1.00
O449   O     0.42483   0.93031   0.37068   0.00000  Uiso   1.00
O450   O     0.51157   0.97133   0.38063   0.00000  Uiso   1.00
O451   O     0.33835   0.83177   0.16287   0.00000  Uiso   1.00
O452   O     0.36171   0.75384   0.18904   0.00000  Uiso   1.00
O453   O     0.66167   0.83480   0.33711   0.00000  Uiso   1.00
O454   O     0.63791   0.91262   0.31096   0.00000  Uiso   1.00
O455   O     0.53692   0.75381   0.24701   0.00000  Uiso   1.00
O456   O     0.55946   0.90387   0.24518   0.00000  Uiso   1.00
O457   O     0.44054   0.76279   0.25481   0.00000  Uiso   1.00
O458   O     0.45181   0.83784   0.31997   0.00000  Uiso   1.00
O459   O     0.54819   0.82883   0.18002   0.00000  Uiso   1.00
O460   O     0.54819   0.82885   0.31217   0.00000  Uiso   1.00
O461   O     0.45181   0.83781   0.18782   0.00000  Uiso   1.00
O462   O     0.50032   0.71775   0.14240   0.00000  Uiso   1.00
Zn463  Zn    0.43565   0.83933   0.25521   0.00000  Uiso   1.00
Zn464  Zn    0.56435   0.82734   0.24479   0.00000  Uiso   1.00
C465   C     0.84842   0.93143   0.24900   0.00000  Uiso   1.00
C466   C     0.82043   0.88165   0.40873   0.00000  Uiso   1.00
C467   C     0.83058   0.82991   0.11611   0.00000  Uiso   1.00
C468   C     0.83641   0.83691   0.38381   0.00000  Uiso   1.00
C469   C     0.81373   0.87408   0.09584   0.00000  Uiso   1.00
C470   C     0.85413   0.79304   0.40395   0.00000  Uiso   1.00
C471   C     0.81667   0.87643   0.04953   0.00000  Uiso   1.00
C472   C     0.85376   0.79157   0.45021   0.00000  Uiso   1.00
C473   C     0.83508   0.83310   0.02334   0.00000  Uiso   1.00
C474   C     0.83670   0.83534   0.47643   0.00000  Uiso   1.00
C475   C     0.85116   0.78739   0.04401   0.00000  Uiso   1.00
C476   C     0.81826   0.73525   0.25143   0.00000  Uiso   1.00
C477   C     0.82060   0.88101   0.45576   0.00000  Uiso   1.00
C478   C     0.80172   0.92169   0.02922   0.00000  Uiso   1.00
C479   C     0.86887   0.74640   0.47048   0.00000  Uiso   1.00
C480   C     0.86695   0.73969   0.11465   0.00000  Uiso   1.00
C481   C     0.80524   0.92879   0.38540   0.00000  Uiso   1.00
C482   C     0.67350   0.80337   0.19502   0.00000  Uiso   1.00
C483   C     0.99310   0.86321   0.30498   0.00000  Uiso   1.00
C484   C     0.80382   0.92412   0.48269   0.00000  Uiso   1.00
C485   C     0.86728   0.74411   0.01697   0.00000  Uiso   1.00
C486   C     0.85638   0.98595   0.24858   0.00000  Uiso   1.00
C487   C     0.81033   0.68075   0.25243   0.00000  Uiso   1.00
C488   C     0.83429   0.83464   0.33621   0.00000  Uiso   1.00
C489   C     0.83244   0.83229   0.16376   0.00000  Uiso   1.00
C490   C     0.84950   0.78609   0.09115   0.00000  Uiso   1.00
H491   H     0.80013   0.90736   0.11639   0.00000  Uiso   1.00
H492   H     0.82991   0.66758   0.36377   0.00000  Uiso   1.00
H493   H     0.70958   0.74650   0.15674   0.00000  Uiso   1.00
H494   H     0.95645   0.91982   0.34323   0.00000  Uiso   1.00
H495   H     0.86668   0.75944   0.38340   0.00000  Uiso   1.00
H496   H     0.78816   0.95518   0.04936   0.00000  Uiso   1.00
H497   H     0.88132   0.71253   0.45034   0.00000  Uiso   1.00
H498   H     0.79143   0.95965   0.46814   0.00000  Uiso   1.00
H499   H     0.87809   0.70795   0.03127   0.00000  Uiso   1.00
H500   H     0.89997   0.66941   0.24492   0.00000  Uiso   1.00
H501   H     0.76674   0.99729   0.25613   0.00000  Uiso   1.00
H502   H     0.92868   0.69048   0.12397   0.00000  Uiso   1.00
N503   N     0.98344   0.81932   0.23783   0.00000  Uiso   1.00
N504   N     0.68322   0.84735   0.26217   0.00000  Uiso   1.00
O505   O     0.79642   0.91286   0.25298   0.00000  Uiso   1.00
O506   O     0.92174   0.72191   0.10556   0.00000  Uiso   1.00
O507   O     0.75817   0.93031   0.37068   0.00000  Uiso   1.00
O508   O     0.84490   0.97133   0.38063   0.00000  Uiso   1.00
O509   O     0.67169   0.83177   0.16287   0.00000  Uiso   1.00
O510   O     0.69504   0.75384   0.18904   0.00000  Uiso   1.00
O511   O     0.99500   0.83480   0.33711   0.00000  Uiso   1.00
O512   O     0.97125   0.91262   0.31096   0.00000  Uiso   1.00
O513   O     0.87025   0.75381   0.24701   0.00000  Uiso   1.00
O514   O     0.89280   0.90387   0.24518   0.00000  Uiso   1.00
O515   O     0.77387   0.76279   0.25481   0.00000  Uiso   1.00
O516   O     0.78514   0.83784   0.31997   0.00000  Uiso   1.00
O517   O     0.88153   0.82883   0.18002   0.00000  Uiso   1.00
O518   O     0.88152   0.82885   0.31217   0.00000  Uiso   1.00
O519   O     0.78515   0.83781   0.18782   0.00000  Uiso   1.00
O520   O     0.83365   0.71775   0.14240   0.00000  Uiso   1.00
Zn521  Zn    0.76898   0.83933   0.25521   0.00000  Uiso   1.00
Zn522  Zn    0.89769   0.82734   0.24479   0.00000  Uiso   1.00
C523   C     0.18175   0.26477   0.74900   0.00000  Uiso   1.00
C524   C     0.15376   0.21498   0.90873   0.00000  Uiso   1.00
C525   C     0.16391   0.16325   0.61611   0.00000  Uiso   1.00
C526   C     0.16974   0.17024   0.88381   0.00000  Uiso   1.00
C527   C     0.14707   0.20741   0.59584   0.00000  Uiso   1.00
C528   C     0.18746   0.12637   0.90395   0.00000  Uiso   1.00
C529   C     0.15001   0.20976   0.54953   0.00000  Uiso   1.00
C530   C     0.18710   0.12491   0.95021   0.00000  Uiso   1.00
C531   C     0.16841   0.16644   0.52334   0.00000  Uiso   1.00
C532   C     0.17003   0.16867   0.97643   0.00000  Uiso   1.00
C533   C     0.18449   0.12072   0.54401   0.00000  Uiso   1.00
C534   C     0.15159   0.06858   0.75143   0.00000  Uiso   1.00
C535   C     0.15394   0.21435   0.95576   0.00000  Uiso   1.00
C536   C     0.13506   0.25502   0.52922   0.00000  Uiso   1.00
C537   C     0.20220   0.07973   0.97048   0.00000  Uiso   1.00
C538   C     0.20029   0.07303   0.61465   0.00000  Uiso   1.00
C539   C     0.13857   0.26213   0.88540   0.00000  Uiso   1.00
C540   C     0.00684   0.13670   0.69502   0.00000  Uiso   1.00
C541   C     0.32643   0.19654   0.80498   0.00000  Uiso   1.00
C542   C     0.13715   0.25746   0.98269   0.00000  Uiso   1.00
C543   C     0.20062   0.07744   0.51697   0.00000  Uiso   1.00
C544   C     0.18971   0.31928   0.74858   0.00000  Uiso   1.00
C545   C     0.14366   0.01408   0.75243   0.00000  Uiso   1.00
C546   C     0.16762   0.16798   0.83621   0.00000  Uiso   1.00
C547   C     0.16577   0.16563   0.66376   0.00000  Uiso   1.00
C548   C     0.18283   0.11942   0.59115   0.00000  Uiso   1.00
H549   H     0.13346   0.24069   0.61639   0.00000  Uiso   1.00
H550   H     0.16325   0.00091   0.86377   0.00000  Uiso   1.00
H551   H     0.04291   0.07983   0.65674   0.00000  Uiso   1.00
H552   H     0.28978   0.25315   0.84323   0.00000  Uiso   1.00
H553   H     0.20001   0.09277   0.88340   0.00000  Uiso   1.00
H554   H     0.12149   0.28852   0.54936   0.00000  Uiso   1.00
H555   H     0.21465   0.04586   0.95034   0.00000  Uiso   1.00
H556   H     0.12476   0.29298   0.96814   0.00000  Uiso   1.00
H557   H     0.21142   0.04128   0.53127   0.00000  Uiso   1.00
H558   H     0.23330   0.00274   0.74492   0.00000  Uiso   1.00
H559   H     0.10007   0.33063   0.75613   0.00000  Uiso   1.00
H560   H     0.26202   0.02381   0.62397   0.00000  Uiso   1.00
N561   N     0.31678   0.15265   0.73783   0.00000  Uiso   1.00
N562   N     0.01656   0.18068   0.76217   0.00000  Uiso   1.00
O563   O     0.12975   0.24619   0.75298   0.00000  Uiso   1.00
O564   O     0.25507   0.05524   0.60556   0.00000  Uiso   1.00
O565   O     0.09150   0.26365   0.87068   0.00000  Uiso   1.00
O566   O     0.17824   0.30467   0.88063   0.00000  Uiso   1.00
O567   O     0.00502   0.16511   0.66287   0.00000  Uiso   1.00
O568   O     0.02837   0.08717   0.68904   0.00000  Uiso   1.00
O569   O     0.32834   0.16813   0.83711   0.00000  Uiso   1.00
O570   O     0.30458   0.24595   0.81096   0.00000  Uiso   1.00
O571   O     0.20358   0.08714   0.74701   0.00000  Uiso   1.00
O572   O     0.22613   0.23721   0.74518   0.00000  Uiso   1.00
O573   O     0.10720   0.09613   0.75481   0.00000  Uiso   1.00
O574   O     0.11847   0.17117   0.81997   0.00000  Uiso   1.00
O575   O     0.21486   0.16216   0.68002   0.00000  Uiso   1.00
O576   O     0.21485   0.16219   0.81217   0.00000  Uiso   1.00
O577   O     0.11848   0.17115   0.68782   0.00000  Uiso   1.00
O578   O     0.16699   0.05108   0.64240   0.00000  Uiso   1.00
Zn579  Zn    0.10231   0.17266   0.75521   0.00000  Uiso   1.00
Zn580  Zn    0.23102   0.16067   0.74479   0.00000  Uiso   1.00
C581   C     0.51509   0.26477   0.74900   0.00000  Uiso   1.00
C582   C     0.48710   0.21498   0.90873   0.00000  Uiso   1.00
C583   C     0.49724   0.16325   0.61611   0.00000  Uiso   1.00
C584   C     0.50308   0.17024   0.88381   0.00000  Uiso   1.00
C585   C     0.48040   0.20741   0.59584   0.00000  Uiso   1.00
C586   C     0.52079   0.12637   0.90395   0.00000  Uiso   1.00
C587   C     0.48334   0.20976   0.54953   0.00000  Uiso   1.00
C588   C     0.52043   0.12491   0.95021   0.00000  Uiso   1.00
C589   C     0.50175   0.16644   0.52334   0.00000  Uiso   1.00
C590   C     0.50337   0.16867   0.97643   0.00000  Uiso   1.00
C591   C     0.51782   0.12072   0.54401   0.00000  Uiso   1.00
C592   C     0.48493   0.06858   0.75143   0.00000  Uiso   1.00
C593   C     0.48727   0.21435   0.95576   0.00000  Uiso   1.00
C594   C     0.46839   0.25502   0.52922   0.00000  Uiso   1.00
C595   C     0.53553   0.07973   0.97048   0.00000  Uiso   1.00
C596   C     0.53362   0.07303   0.61465   0.00000  Uiso   1.00
C597   C     0.47191   0.26213   0.88540   0.00000  Uiso   1.00
C598   C     0.34017   0.13670   0.69502   0.00000  Uiso   1.00
C599   C     0.65977   0.19654   0.80498   0.00000  Uiso   1.00
C600   C     0.47048   0.25746   0.98269   0.00000  Uiso   1.00
C601   C     0.53395   0.07744   0.51697   0.00000  Uiso   1.00
C602   C     0.52305   0.31928   0.74858   0.00000  Uiso   1.00
C603   C     0.47699   0.01408   0.75243   0.00000  Uiso   1.00
C604   C     0.50095   0.16798   0.83621   0.00000  Uiso   1.00
C605   C     0.49910   0.16563   0.66376   0.00000  Uiso   1.00
C606   C     0.51617   0.11942   0.59115   0.00000  Uiso   1.00
H607   H     0.46680   0.24069   0.61639   0.00000  Uiso   1.00
H608   H     0.49658   0.00091   0.86377   0.00000  Uiso   1.00
H609   H     0.37625   0.07983   0.65674   0.00000  Uiso   1.00
H610   H     0.62312   0.25315   0.84323   0.00000  Uiso   1.00
H611   H     0.53335   0.09277   0.88340   0.00000  Uiso   1.00
H612   H     0.45482   0.28852   0.54936   0.00000  Uiso   1.00
H613   H     0.54798   0.04586   0.95034   0.00000  Uiso   1.00
H614   H     0.45809   0.29298   0.96814   0.00000  Uiso   1.00
H615   H     0.54476   0.04128   0.53127   0.00000  Uiso   1.00
H616   H     0.56663   0.00274   0.74492   0.00000  Uiso   1.00
H617   H     0.43341   0.33063   0.75613   0.00000  Uiso   1.00
H618   H     0.59535   0.02381   0.62397   0.00000  Uiso   1.00
N619   N     0.65011   0.15265   0.73783   0.00000  Uiso   1.00
N620   N     0.34989   0.18068   0.76217   0.00000  Uiso   1.00
O621   O     0.46308   0.24619   0.75298   0.00000  Uiso   1.00
O622   O     0.58840   0.05524   0.60556   0.00000  Uiso   1.00
O623   O     0.42483   0.26365   0.87068   0.00000  Uiso   1.00
O624   O     0.51157   0.30467   0.88063   0.00000  Uiso   1.00
O625   O     0.33835   0.16511   0.66287   0.00000  Uiso   1.00
O626   O     0.36171   0.08717   0.68904   0.00000  Uiso   1.00
O627   O     0.66167   0.16813   0.83711   0.00000  Uiso   1.00
O628   O     0.63791   0.24595   0.81096   0.00000  Uiso   1.00
O629   O     0.53692   0.08714   0.74701   0.00000  Uiso   1.00
O630   O     0.55946   0.23721   0.74518   0.00000  Uiso   1.00
O631   O     0.44054   0.09613   0.75481   0.00000  Uiso   1.00
O632   O     0.45181   0.17117   0.81997   0.00000  Uiso   1.00
O633   O     0.54819   0.16216   0.68002   0.00000  Uiso   1.00
O634   O     0.54819   0.16219   0.81217   0.00000  Uiso   1.00
O635   O     0.45181   0.17115   0.68782   0.00000  Uiso   1.00
O636   O     0.50032   0.05108   0.64240   0.00000  Uiso   1.00
Zn637  Zn    0.43565   0.17266   0.75521   0.00000  Uiso   1.00
Zn638  Zn    0.56435   0.16067   0.74479   0.00000  Uiso   1.00
C639   C     0.84842   0.26477   0.74900   0.00000  Uiso   1.00
C640   C     0.82043   0.21498   0.90873   0.00000  Uiso   1.00
C641   C     0.83058   0.16325   0.61611   0.00000  Uiso   1.00
C642   C     0.83641   0.17024   0.88381   0.00000  Uiso   1.00
C643   C     0.81373   0.20741   0.59584   0.00000  Uiso   1.00
C644   C     0.85413   0.12637   0.90395   0.00000  Uiso   1.00
C645   C     0.81667   0.20976   0.54953   0.00000  Uiso   1.00
C646   C     0.85376   0.12491   0.95021   0.00000  Uiso   1.00
C647   C     0.83508   0.16644   0.52334   0.00000  Uiso   1.00
C648   C     0.83670   0.16867   0.97643   0.00000  Uiso   1.00
C649   C     0.85116   0.12072   0.54401   0.00000  Uiso   1.00
C650   C     0.81826   0.06858   0.75143   0.00000  Uiso   1.00
C651   C     0.82060   0.21435   0.95576   0.00000  Uiso   1.00
C652   C     0.80172   0.25502   0.52922   0.00000  Uiso   1.00
C653   C     0.86887   0.07973   0.97048   0.00000  Uiso   1.00
C654   C     0.86695   0.07303   0.61465   0.00000  Uiso   1.00
C655   C     0.80524   0.26213   0.88540   0.00000  Uiso   1.00
C656   C     0.67350   0.13670   0.69502   0.00000  Uiso   1.00
C657   C     0.99310   0.19654   0.80498   0.00000  Uiso   1.00
C658   C     0.80382   0.25746   0.98269   0.00000  Uiso   1.00
C659   C     0.86728   0.07744   0.51697   0.00000  Uiso   1.00
C660   C     0.85638   0.31928   0.74858   0.00000  Uiso   1.00
C661   C     0.81033   0.01408   0.75243   0.00000  Uiso   1.00
C662   C     0.83429   0.16798   0.83621   0.00000  Uiso   1.00
C663   C     0.83244   0.16563   0.66376   0.00000  Uiso   1.00
C664   C     0.84950   0.11942   0.59115   0.00000  Uiso   1.00
H665   H     0.80013   0.24069   0.61639   0.00000  Uiso   1.00
H666   H     0.82991   0.00091   0.86377   0.00000  Uiso   1.00
H667   H     0.70958   0.07983   0.65674   0.00000  Uiso   1.00
H668   H     0.95645   0.25315   0.84323   0.00000  Uiso   1.00
H669   H     0.86668   0.09277   0.88340   0.00000  Uiso   1.00
H670   H     0.78816   0.28852   0.54936   0.00000  Uiso   1.00
H671   H     0.88132   0.04586   0.95034   0.00000  Uiso   1.00
H672   H     0.79143   0.29298   0.96814   0.00000  Uiso   1.00
H673   H     0.87809   0.04128   0.53127   0.00000  Uiso   1.00
H674   H     0.89997   0.00274   0.74492   0.00000  Uiso   1.00
H675   H     0.76674   0.33063   0.75613   0.00000  Uiso   1.00
H676   H     0.92868   0.02381   0.62397   0.00000  Uiso   1.00
N677   N     0.98344   0.15265   0.73783   0.00000  Uiso   1.00
N678   N     0.68322   0.18068   0.76217   0.00000  Uiso   1.00
O679   O     0.79642   0.24619   0.75298   0.00000  Uiso   1.00
O680   O     0.92174   0.05524   0.60556   0.00000  Uiso   1.00
O681   O     0.75817   0.26365   0.87068   0.00000  Uiso   1.00
O682   O     0.84490   0.30467   0.88063   0.00000  Uiso   1.00
O683   O     0.67169   0.16511   0.66287   0.00000  Uiso   1.00
O684   O     0.69504   0.08717   0.68904   0.00000  Uiso   1.00
O685   O     0.99500   0.16813   0.83711   0.00000  Uiso   1.00
O686   O     0.97125   0.24595   0.81096   0.00000  Uiso   1.00
O687   O     0.87025   0.08714   0.74701   0.00000  Uiso   1.00
O688   O     0.89280   0.23721   0.74518   0.00000  Uiso   1.00
O689   O     0.77387   0.09613   0.75481   0.00000  Uiso   1.00
O690   O     0.78514   0.17117   0.81997   0.00000  Uiso   1.00
O691   O     0.88153   0.16216   0.68002   0.00000  Uiso   1.00
O692   O     0.88152   0.16219   0.81217   0.00000  Uiso   1.00
O693   O     0.78515   0.17115   0.68782   0.00000  Uiso   1.00
O694   O     0.83365   0.05108   0.64240   0.00000  Uiso   1.00
Zn695  Zn    0.76898   0.17266   0.75521   0.00000  Uiso   1.00
Zn696  Zn    0.89769   0.16067   0.74479   0.00000  Uiso   1.00
C697   C     0.18175   0.59810   0.74900   0.00000  Uiso   1.00
C698   C     0.15376   0.54831   0.90873   0.00000  Uiso   1.00
C699   C     0.16391   0.49658   0.61611   0.00000  Uiso   1.00
C700   C     0.16974   0.50357   0.88381   0.00000  Uiso   1.00
C701   C     0.14707   0.54074   0.59584   0.00000  Uiso   1.00
C702   C     0.18746   0.45970   0.90395   0.00000  Uiso   1.00
C703   C     0.15001   0.54310   0.54953   0.00000  Uiso   1.00
C704   C     0.18710   0.45824   0.95021   0.00000  Uiso   1.00
C705   C     0.16841   0.49977   0.52334   0.00000  Uiso   1.00
C706   C     0.17003   0.50201   0.97643   0.00000  Uiso   1.00
C707   C     0.18449   0.45406   0.54401   0.00000  Uiso   1.00
C708   C     0.15159   0.40191   0.75143   0.00000  Uiso   1.00
C709   C     0.15394   0.54768   0.95576   0.00000  Uiso   1.00
C710   C     0.13506   0.58835   0.52922   0.00000  Uiso   1.00
C711   C     0.20220   0.41306   0.97048   0.00000  Uiso   1.00
C712   C     0.20029   0.40636   0.61465   0.00000  Uiso   1.00
C713   C     0.13857   0.59546   0.88540   0.00000  Uiso   1.00
C714   C     0.00684   0.47004   0.69502   0.00000  Uiso   1.00
C715   C     0.32643   0.52988   0.80498   0.00000  Uiso   1.00
C716   C     0.13715   0.59079   0.98269   0.00000  Uiso   1.00
C717   C     0.20062   0.41077   0.51697   0.00000  Uiso   1.00
C718   C     0.18971   0.65262   0.74858   0.00000  Uiso   1.00
C719   C     0.14366   0.34741   0.75243   0.00000  Uiso   1.00
C720   C     0.16762   0.50131   0.83621   0.00000  Uiso   1.00
C721   C     0.16577   0.49896   0.66376   0.00000  Uiso   1.00
C722   C     0.18283   0.45275   0.59115   0.00000  Uiso   1.00
H723   H     0.13346   0.57402   0.61639   0.00000  Uiso   1.00
H724   H     0.16325   0.33425   0.86377   0.00000  Uiso   1.00
H725   H     0.04291   0.41317   0.65674   0.00000  Uiso   1.00
H726   H     0.28978   0.58648   0.84323   0.00000  Uiso   1.00
H727   H     0.20001   0.42611   0.88340   0.00000  Uiso   1.00
H728   H     0.12149   0.62185   0.54936   0.00000  Uiso   1.00
H729   H     0.21465   0.37920   0.95034   0.00000  Uiso   1.00
H730   H     0.12476   0.62632   0.96814   0.00000  Uiso   1.00
H731   H     0.21142   0.37461   0.53127   0.00000  Uiso   1.00
H732   H     0.23330   0.33607   0.74492   0.00000  Uiso   1.00
H733   H     0.10007   0.66396   0.75613   0.00000  Uiso   1.00
H734   H     0.26202   0.35714   0.62397   0.00000  Uiso   1.00
N735   N     0.31678   0.48598   0.73783   0.00000  Uiso   1.00
N736   N     0.01656   0.51402   0.76217   0.00000  Uiso   1.00
O737   O     0.12975   0.57952   0.75298   0.00000  Uiso   1.00
O738   O     0.25507   0.38857   0.60556   0.00000  Uiso   1.00
O739   O     0.09150   0.59698   0.87068   0.00000  Uiso   1.00
O740   O     0.17824   0.63800   0.88063   0.00000  Uiso   1.00
O741   O     0.00502   0.49844   0.66287   0.00000  Uiso   1.00
O742   O     0.02837   0.42050   0.68904   0.00000  Uiso   1.00
O743   O     0.32834   0.50146   0.83711   0.00000  Uiso   1.00
O744   O     0.30458   0.57929   0.81096   0.00000  Uiso   1.00
O745   O     0.20358   0.42048   0.74701   0.00000  Uiso   1.00
O746   O     0.22613   0.57054   0.74518   0.00000  Uiso   1.00
O747   O     0.10720   0.42946   0.75481   0.00000  Uiso   1.00
O748   O     0.11847   0.50450   0.81997   0.00000  Uiso   1.00
O749   O     0.21486   0.49550   0.68002   0.00000  Uiso   1.00
O750   O     0.21485   0.49552   0.81217   0.00000  Uiso   1.00
O751   O     0.11848   0.50448   0.68782   0.00000  Uiso   1.00
O752   O     0.16699   0.38441   0.64240   0.00000  Uiso   1.00
Zn753  Zn    0.10231   0.50600   0.75521   0.00000  Uiso   1.00
Zn754  Zn    0.23102   0.49400   0.74479   0.00000  Uiso   1.00
C755   C     0.51509   0.59810   0.74900   0.00000  Uiso   1.00
C756   C     0.48710   0.54831   0.90873   0.00000  Uiso   1.00
C757   C     0.49724   0.49658   0.61611   0.00000  Uiso   1.00
C758   C     0.50308   0.50357   0.88381   0.00000  Uiso   1.00
C759   C     0.48040   0.54074   0.59584   0.00000  Uiso   1.00
C760   C     0.52079   0.45970   0.90395   0.00000  Uiso   1.00
C761   C     0.48334   0.54310   0.54953   0.00000  Uiso   1.00
C762   C     0.52043   0.45824   0.95021   0.00000  Uiso   1.00
C763   C     0.50175   0.49977   0.52334   0.00000  Uiso   1.00
C764   C     0.50337   0.50201   0.97643   0.00000  Uiso   1.00
C765   C     0.51782   0.45406   0.54401   0.00000  Uiso   1.00
C766   C     0.48493   0.40191   0.75143   0.00000  Uiso   1.00
C767   C     0.48727   0.54768   0.95576   0.00000  Uiso   1.00
C768   C     0.46839   0.58835   0.52922   0.00000  Uiso   1.00
C769   C     0.53553   0.41306   0.97048   0.00000  Uiso   1.00
C770   C     0.53362   0.40636   0.61465   0.00000  Uiso   1.00
C771   C     0.47191   0.59546   0.88540   0.00000  Uiso   1.00
C772   C     0.34017   0.47004   0.69502   0.00000  Uiso   1.00
C773   C     0.65977   0.52988   0.80498   0.00000  Uiso   1.00
C774   C     0.47048   0.59079   0.98269   0.00000  Uiso   1.00
C775   C     0.53395   0.41077   0.51697   0.00000  Uiso   1.00
C776   C     0.52305   0.65262   0.74858   0.00000  Uiso   1.00
C777   C     0.47699   0.34741   0.75243   0.00000  Uiso   1.00
C778   C     0.50095   0.50131   0.83621   0.00000  Uiso   1.00
C779   C     0.49910   0.49896   0.66376   0.00000  Uiso   1.00
C780   C     0.51617   0.45275   0.59115   0.00000  Uiso   1.00
H781   H     0.46680   0.57402   0.61639   0.00000  Uiso   1.00
H782   H     0.49658   0.33425   0.86377   0.00000  Uiso   1.00
H783   H     0.37625   0.41317   0.65674   0.00000  Uiso   1.00
H784   H     0.62312   0.58648   0.84323   0.00000  Uiso   1.00
H785   H     0.53335   0.42611   0.88340   0.00000  Uiso   1.00
H786   H     0.45482   0.62185   0.54936   0.00000  Uiso   1.00
H787   H     0.54798   0.37920   0.95034   0.00000  Uiso   1.00
H788   H     0.45809   0.62632   0.96814   0.00000  Uiso   1.00
H789   H     0.54476   0.37461   0.53127   0.00000  Uiso   1.00
H790   H     0.56663   0.33607   0.74492   0.00000  Uiso   1.00
H791   H     0.43341   0.66396   0.75613   0.00000  Uiso   1.00
H792   H     0.59535   0.35714   0.62397   0.00000  Uiso   1.00
N793   N     0.65011   0.48598   0.73783   0.00000  Uiso   1.00
N794   N     0.34989   0.51402   0.76217   0.00000  Uiso   1.00
O795   O     0.46308   0.57952   0.75298   0.00000  Uiso   1.00
O796   O     0.58840   0.38857   0.60556   0.00000  Uiso   1.00
O797   O     0.42483   0.59698   0.87068   0.00000  Uiso   1.00
O798   O     0.51157   0.63800   0.88063   0.00000  Uiso   1.00
O799   O     0.33835   0.49844   0.66287   0.00000  Uiso   1.00
O800   O     0.36171   0.42050   0.68904   0.00000  Uiso   1.00
O801   O     0.66167   0.50146   0.83711   0.00000  Uiso   1.00
O802   O     0.63791   0.57929   0.81096   0.00000  Uiso   1.00
O803   O     0.53692   0.42048   0.74701   0.00000  Uiso   1.00
O804   O     0.55946   0.57054   0.74518   0.00000  Uiso   1.00
O805   O     0.44054   0.42946   0.75481   0.00000  Uiso   1.00
O806   O     0.45181   0.50450   0.81997   0.00000  Uiso   1.00
O807   O     0.54819   0.49550   0.68002   0.00000  Uiso   1.00
O808   O     0.54819   0.49552   0.81217   0.00000  Uiso   1.00
O809   O     0.45181   0.50448   0.68782   0.00000  Uiso   1.00
O810   O     0.50032   0.38441   0.64240   0.00000  Uiso   1.00
Zn811  Zn    0.43565   0.50600   0.75521   0.00000  Uiso   1.00
Zn812  Zn    0.56435   0.49400   0.74479   0.00000  Uiso   1.00
C813   C     0.84842   0.59810   0.74900   0.00000  Uiso   1.00
C814   C     0.82043   0.54831   0.90873   0.00000  Uiso   1.00
C815   C     0.83058   0.49658   0.61611   0.00000  Uiso   1.00
C816   C     0.83641   0.50357   0.88381   0.00000  Uiso   1.00
C817   C     0.81373   0.54074   0.59584   0.00000  Uiso   1.00
C818   C     0.85413   0.45970   0.90395   0.00000  Uiso   1.00
C819   C     0.81667   0.54310   0.54953   0.00000  Uiso   1.00
C820   C     0.85376   0.45824   0.95021   0.00000  Uiso   1.00
C821   C     0.83508   0.49977   0.52334   0.00000  Uiso   1.00
C822   C     0.83670   0.50201   0.97643   0.00000  Uiso   1.00
C823   C     0.85116   0.45406   0.54401   0.00000  Uiso   1.00
C824   C     0.81826   0.40191   0.75143   0.00000  Uiso   1.00
C825   C     0.82060   0.54768   0.95576   0.00000  Uiso   1.00
C826   C     0.80172   0.58835   0.52922   0.00000  Uiso   1.00
C827   C     0.86887   0.41306   0.97048   0.00000  Uiso   1.00
C828   C     0.86695   0.40636   0.61465   0.00000  Uiso   1.00
C829   C     0.80524   0.59546   0.88540   0.00000  Uiso   1.00
C830   C     0.67350   0.47004   0.69502   0.00000  Uiso   1.00
C831   C     0.99310   0.52988   0.80498   0.00000  Uiso   1.00
C832   C     0.80382   0.59079   0.98269   0.00000  Uiso   1.00
C833   C     0.86728   0.41077   0.51697   0.00000  Uiso   1.00
C834   C     0.85638   0.65262   0.74858   0.00000  Uiso   1.00
C835   C     0.81033   0.34741   0.75243   0.00000  Uiso   1.00
C836   C     0.83429   0.50131   0.83621   0.00000  Uiso   1.00
C837   C     0.83244   0.49896   0.66376   0.00000  Uiso   1.00
C838   C     0.84950   0.45275   0.59115   0.00000  Uiso   1.00
H839   H     0.80013   0.57402   0.61639   0.00000  Uiso   1.00
H840   H     0.82991   0.33425   0.86377   0.00000  Uiso   1.00
H841   H     0.70958   0.41317   0.65674   0.00000  Uiso   1.00
H842   H     0.95645   0.58648   0.84323   0.00000  Uiso   1.00
H843   H     0.86668   0.42611   0.88340   0.00000  Uiso   1.00
H844   H     0.78816   0.62185   0.54936   0.00000  Uiso   1.00
H845   H     0.88132   0.37920   0.95034   0.00000  Uiso   1.00
H846   H     0.79143   0.62632   0.96814   0.00000  Uiso   1.00
H847   H     0.87809   0.37461   0.53127   0.00000  Uiso   1.00
H848   H     0.89997   0.33607   0.74492   0.00000  Uiso   1.00
H849   H     0.76674   0.66396   0.75613   0.00000  Uiso   1.00
H850   H     0.92868   0.35714   0.62397   0.00000  Uiso   1.00
N851   N     0.98344   0.48598   0.73783   0.00000  Uiso   1.00
N852   N     0.68322   0.51402   0.76217   0.00000  Uiso   1.00
O853   O     0.79642   0.57952   0.75298   0.00000  Uiso   1.00
O854   O     0.92174   0.38857   0.60556   0.00000  Uiso   1.00
O855   O     0.75817   0.59698   0.87068   0.00000  Uiso   1.00
O856   O     0.84490   0.63800   0.88063   0.00000  Uiso   1.00
O857   O     0.67169   0.49844   0.66287   0.00000  Uiso   1.00
O858   O     0.69504   0.42050   0.68904   0.00000  Uiso   1.00
O859   O     0.99500   0.50146   0.83711   0.00000  Uiso   1.00
O860   O     0.97125   0.57929   0.81096   0.00000  Uiso   1.00
O861   O     0.87025   0.42048   0.74701   0.00000  Uiso   1.00
O862   O     0.89280   0.57054   0.74518   0.00000  Uiso   1.00
O863   O     0.77387   0.42946   0.75481   0.00000  Uiso   1.00
O864   O     0.78514   0.50450   0.81997   0.00000  Uiso   1.00
O865   O     0.88153   0.49550   0.68002   0.00000  Uiso   1.00
O866   O     0.88152   0.49552   0.81217   0.00000  Uiso   1.00
O867   O     0.78515   0.50448   0.68782   0.00000  Uiso   1.00
O868   O     0.83365   0.38441   0.64240   0.00000  Uiso   1.00
Zn869  Zn    0.76898   0.50600   0.75521   0.00000  Uiso   1.00
Zn870  Zn    0.89769   0.49400   0.74479   0.00000  Uiso   1.00
C871   C     0.18175   0.93143   0.74900   0.00000  Uiso   1.00
C872   C     0.15376   0.88165   0.90873   0.00000  Uiso   1.00
C873   C     0.16391   0.82991   0.61611   0.00000  Uiso   1.00
C874   C     0.16974   0.83691   0.88381   0.00000  Uiso   1.00
C875   C     0.14707   0.87408   0.59584   0.00000  Uiso   1.00
C876   C     0.18746   0.79304   0.90395   0.00000  Uiso   1.00
C877   C     0.15001   0.87643   0.54953   0.00000  Uiso   1.00
C878   C     0.18710   0.79157   0.95021   0.00000  Uiso   1.00
C879   C     0.16841   0.83310   0.52334   0.00000  Uiso   1.00
C880   C     0.17003   0.83534   0.97643   0.00000  Uiso   1.00
C881   C     0.18449   0.78739   0.54401   0.00000  Uiso   1.00
C882   C     0.15159   0.73525   0.75143   0.00000  Uiso   1.00
C883   C     0.15394   0.88101   0.95576   0.00000  Uiso   1.00
C884   C     0.13506   0.92169   0.52922   0.00000  Uiso   1.00
C885   C     0.20220   0.74640   0.97048   0.00000  Uiso   1.00
C886   C     0.20029   0.73969   0.61465   0.00000  Uiso   1.00
C887   C     0.13857   0.92879   0.88540   0.00000  Uiso   1.00
C888   C     0.00684   0.80337   0.69502   0.00000  Uiso   1.00
C889   C     0.32643   0.86321   0.80498   0.00000  Uiso   1.00
C890   C     0.13715   0.92412   0.98269   0.00000  Uiso   1.00
C891   C     0.20062   0.74411   0.51697   0.00000  Uiso   1.00
C892   C     0.18971   0.98595   0.74858   0.00000  Uiso   1.00
C893   C     0.14366   0.68075   0.75243   0.00000  Uiso   1.00
C894   C     0.16762   0.83464   0.83621   0.00000  Uiso   1.00
C895   C     0.16577   0.83229   0.66376   0.00000  Uiso   1.00
C896   C     0.18283   0.78609   0.59115   0.00000  Uiso   1.00
H897   H     0.13346   0.90736   0.61639   0.00000  Uiso   1.00
H898   H     0.16325   0.66758   0.86377   0.00000  Uiso   1.00
H899   H     0.04291   0.74650   0.65674   0.00000  Uiso   1.00
H900   H     0.28978   0.91982   0.84323   0.00000  Uiso   1.00
H901   H     0.20001   0.75944   0.88340   0.00000  Uiso   1.00
H902   H     0.12149   0.95518   0.54936   0.00000  Uiso   1.00
H903   H     0.21465   0.71253   0.95034   0.00000  Uiso   1.00
H904   H     0.12476   0.95965   0.96814   0.00000  Uiso   1.00
H905   H     0.21142   0.70795   0.53127   0.00000  Uiso   1.00
H906   H     0.23330   0.66941   0.74492   0.00000  Uiso   1.00
H907   H     0.10007   0.99729   0.75613   0.00000  Uiso   1.00
H908   H     0.26202   0.69048   0.62397   0.00000  Uiso   1.00
N909   N     0.31678   0.81932   0.73783   0.00000  Uiso   1.00
N910   N     0.01656   0.84735   0.76217   0.00000  Uiso   1.00
O911   O     0.12975   0.91286   0.75298   0.00000  Uiso   1.00
O912   O     0.25507   0.72191   0.60556   0.00000  Uiso   1.00
O913   O     0.09150   0.93031   0.87068   0.00000  Uiso   1.00
O914   O     0.17824   0.97133   0.88063   0.00000  Uiso   1.00
O915   O     0.00502   0.83177   0.66287   0.00000  Uiso   1.00
O916   O     0.02837   0.75384   0.68904   0.00000  Uiso   1.00
O917   O     0.32834   0.83480   0.83711   0.00000  Uiso   1.00
O918   O     0.30458   0.91262   0.81096   0.00000  Uiso   1.00
O919   O     0.20358   0.75381   0.74701   0.00000  Uiso   1.00
O920   O     0.22613   0.90387   0.74518   0.00000  Uiso   1.00
O921   O     0.10720   0.76279   0.75481   0.00000  Uiso   1.00
O922   O     0.11847   0.83784   0.81997   0.00000  Uiso   1.00
O923   O     0.21486   0.82883   0.68002   0.00000  Uiso   1.00
O924   O     0.21485   0.82885   0.81217   0.00000  Uiso   1.00
O925   O     0.11848   0.83781   0.68782   0.00000  Uiso   1.00
O926   O     0.16699   0.71775   0.64240   0.00000  Uiso   1.00
Zn927  Zn    0.10231   0.83933   0.75521   0.00000  Uiso   1.00
Zn928  Zn    0.23102   0.82734   0.74479   0.00000  Uiso   1.00
C929   C     0.51509   0.93143   0.74900   0.00000  Uiso   1.00
C930   C     0.48710   0.88165   0.90873   0.00000  Uiso   1.00
C931   C     0.49724   0.82991   0.61611   0.00000  Uiso   1.00
C932   C     0.50308   0.83691   0.88381   0.00000  Uiso   1.00
C933   C     0.48040   0.87408   0.59584   0.00000  Uiso   1.00
C934   C     0.52079   0.79304   0.90395   0.00000  Uiso   1.00
C935   C     0.48334   0.87643   0.54953   0.00000  Uiso   1.00
C936   C     0.52043   0.79157   0.95021   0.00000  Uiso   1.00
C937   C     0.50175   0.83310   0.52334   0.00000  Uiso   1.00
C938   C     0.50337   0.83534   0.97643   0.00000  Uiso   1.00
C939   C     0.51782   0.78739   0.54401   0.00000  Uiso   1.00
C940   C     0.48493   0.73525   0.75143   0.00000  Uiso   1.00
C941   C     0.48727   0.88101   0.95576   0.00000  Uiso   1.00
C942   C     0.46839   0.92169   0.52922   0.00000  Uiso   1.00
C943   C     0.53553   0.74640   0.97048   0.00000  Uiso   1.00
C944   C     0.53362   0.73969   0.61465   0.00000  Uiso   1.00
C945   C     0.47191   0.92879   0.88540   0.00000  Uiso   1.00
C946   C     0.34017   0.80337   0.69502   0.00000  Uiso   1.00
C947   C     0.65977   0.86321   0.80498   0.00000  Uiso   1.00
C948   C     0.47048   0.92412   0.98269   0.00000  Uiso   1.00
C949   C     0.53395   0.74411   0.51697   0.00000  Uiso   1.00
C950   C     0.52305   0.98595   0.74858   0.00000  Uiso   1.00
C951   C     0.47699   0.68075   0.75243   0.00000  Uiso   1.00
C952   C     0.50095   0.83464   0.83621   0.00000  Uiso   1.00
C953   C     0.49910   0.83229   0.66376   0.00000  Uiso   1.00
C954   C     0.51617   0.78609   0.59115   0.00000  Uiso   1.00
H955   H     0.46680   0.90736   0.61639   0.00000  Uiso   1.00
H956   H     0.49658   0.66758   0.86377   0.00000  Uiso   1.00
H957   H     0.37625   0.74650   0.65674   0.00000  Uiso   1.00
H958   H     0.62312   0.91982   0.84323   0.00000  Uiso   1.00
H959   H     0.53335   0.75944   0.88340   0.00000  Uiso   1.00
H960   H     0.45482   0.95518   0.54936   0.00000  Uiso   1.00
H961   H     0.54798   0.71253   0.95034   0.00000  Uiso   1.00
H962   H     0.45809   0.95965   0.96814   0.00000  Uiso   1.00
H963   H     0.54476   0.70795   0.53127   0.00000  Uiso   1.00
H964   H     0.56663   0.66941   0.74492   0.00000  Uiso   1.00
H965   H     0.43341   0.99729   0.75613   0.00000  Uiso   1.00
H966   H     0.59535   0.69048   0.62397   0.00000  Uiso   1.00
N967   N     0.65011   0.81932   0.73783   0.00000  Uiso   1.00
N968   N     0.34989   0.84735   0.76217   0.00000  Uiso   1.00
O969   O     0.46308   0.91286   0.75298   0.00000  Uiso   1.00
O970   O     0.58840   0.72191   0.60556   0.00000  Uiso   1.00
O971   O     0.42483   0.93031   0.87068   0.00000  Uiso   1.00
O972   O     0.51157   0.97133   0.88063   0.00000  Uiso   1.00
O973   O     0.33835   0.83177   0.66287   0.00000  Uiso   1.00
O974   O     0.36171   0.75384   0.68904   0.00000  Uiso   1.00
O975   O     0.66167   0.83480   0.83711   0.00000  Uiso   1.00
O976   O     0.63791   0.91262   0.81096   0.00000  Uiso   1.00
O977   O     0.53692   0.75381   0.74701   0.00000  Uiso   1.00
O978   O     0.55946   0.90387   0.74518   0.00000  Uiso   1.00
O979   O     0.44054   0.76279   0.75481   0.00000  Uiso   1.00
O980   O     0.45181   0.83784   0.81997   0.00000  Uiso   1.00
O981   O     0.54819   0.82883   0.68002   0.00000  Uiso   1.00
O982   O     0.54819   0.82885   0.81217   0.00000  Uiso   1.00
O983   O     0.45181   0.83781   0.68782   0.00000  Uiso   1.00
O984   O     0.50032   0.71775   0.64240   0.00000  Uiso   1.00
Zn985  Zn    0.43565   0.83933   0.75521   0.00000  Uiso   1.00
Zn986  Zn    0.56435   0.82734   0.74479   0.00000  Uiso   1.00
C987   C     0.84842   0.93143   0.74900   0.00000  Uiso   1.00
C988   C     0.82043   0.88165   0.90873   0.00000  Uiso   1.00
C989   C     0.83058   0.82991   0.61611   0.00000  Uiso   1.00
C990   C     0.83641   0.83691   0.88381   0.00000  Uiso   1.00
C991   C     0.81373   0.87408   0.59584   0.00000  Uiso   1.00
C992   C     0.85413   0.79304   0.90395   0.00000  Uiso   1.00
C993   C     0.81667   0.87643   0.54953   0.00000  Uiso   1.00
C994   C     0.85376   0.79157   0.95021   0.00000  Uiso   1.00
C995   C     0.83508   0.83310   0.52334   0.00000  Uiso   1.00
C996   C     0.83670   0.83534   0.97643   0.00000  Uiso   1.00
C997   C     0.85116   0.78739   0.54401   0.00000  Uiso   1.00
C998   C     0.81826   0.73525   0.75143   0.00000  Uiso   1.00
C999   C     0.82060   0.88101   0.95576   0.00000  Uiso   1.00
C1000  C     0.80172   0.92169   0.52922   0.00000  Uiso   1.00
C1001  C     0.86887   0.74640   0.97048   0.00000  Uiso   1.00
C1002  C     0.86695   0.73969   0.61465   0.00000  Uiso   1.00
C1003  C     0.80524   0.92879   0.88540   0.00000  Uiso   1.00
C1004  C     0.67350   0.80337   0.69502   0.00000  Uiso   1.00
C1005  C     0.99310   0.86321   0.80498   0.00000  Uiso   1.00
C1006  C     0.80382   0.92412   0.98269   0.00000  Uiso   1.00
C1007  C     0.86728   0.74411   0.51697   0.00000  Uiso   1.00
C1008  C     0.85638   0.98595   0.74858   0.00000  Uiso   1.00
C1009  C     0.81033   0.68075   0.75243   0.00000  Uiso   1.00
C1010  C     0.83429   0.83464   0.83621   0.00000  Uiso   1.00
C1011  C     0.83244   0.83229   0.66376   0.00000  Uiso   1.00
C1012  C     0.84950   0.78609   0.59115   0.00000  Uiso   1.00
H1013  H     0.80013   0.90736   0.61639   0.00000  Uiso   1.00
H1014  H     0.82991   0.66758   0.86377   0.00000  Uiso   1.00
H1015  H     0.70958   0.74650   0.65674   0.00000  Uiso   1.00
H1016  H     0.95645   0.91982   0.84323   0.00000  Uiso   1.00
H1017  H     0.86668   0.75944   0.88340   0.00000  Uiso   1.00
H1018  H     0.78816   0.95518   0.54936   0.00000  Uiso   1.00
H1019  H     0.88132   0.71253   0.95034   0.00000  Uiso   1.00
H1020  H     0.79143   0.95965   0.96814   0.00000  Uiso   1.00
H1021  H     0.87809   0.70795   0.53127   0.00000  Uiso   1.00
H1022  H     0.89997   0.66941   0.74492   0.00000  Uiso   1.00
H1023  H     0.76674   0.99729   0.75613   0.00000  Uiso   1.00
H1024  H     0.92868   0.69048   0.62397   0.00000  Uiso   1.00
N1025  N     0.98344   0.81932   0.73783   0.00000  Uiso   1.00
N1026  N     0.68322   0.84735   0.76217   0.00000  Uiso   1.00
O1027  O     0.79642   0.91286   0.75298   0.00000  Uiso   1.00
O1028  O     0.92174   0.72191   0.60556   0.00000  Uiso   1.00
O1029  O     0.75817   0.93031   0.87068   0.00000  Uiso   1.00
O1030  O     0.84490   0.97133   0.88063   0.00000  Uiso   1.00
O1031  O     0.67169   0.83177   0.66287   0.00000  Uiso   1.00
O1032  O     0.69504   0.75384   0.68904   0.00000  Uiso   1.00
O1033  O     0.99500   0.83480   0.83711   0.00000  Uiso   1.00
O1034  O     0.97125   0.91262   0.81096   0.00000  Uiso   1.00
O1035  O     0.87025   0.75381   0.74701   0.00000  Uiso   1.00
O1036  O     0.89280   0.90387   0.74518   0.00000  Uiso   1.00
O1037  O     0.77387   0.76279   0.75481   0.00000  Uiso   1.00
O1038  O     0.78514   0.83784   0.81997   0.00000  Uiso   1.00
O1039  O     0.88153   0.82883   0.68002   0.00000  Uiso   1.00
O1040  O     0.88152   0.82885   0.81217   0.00000  Uiso   1.00
O1041  O     0.78515   0.83781   0.68782   0.00000  Uiso   1.00
O1042  O     0.83365   0.71775   0.64240   0.00000  Uiso   1.00
Zn1043 Zn    0.76898   0.83933   0.75521   0.00000  Uiso   1.00
Zn1044 Zn    0.89769   0.82734   0.74479   0.00000  Uiso   1.00
loop_
_geom_bond_atom_site_label_1
_geom_bond_atom_site_label_2
_geom_bond_distance
_geom_bond_site_symmetry_2
_ccdc_geom_bond_type
C1     O50     1.291   .     A
C1     C22     1.399   .     S
C1     O41     1.285   .     A
C2     C4      1.404   .     A
C2     C17     1.484   .     S
C2     C13     1.401   .     A
C3     C26     1.407   .     A
C3     C25     1.422   .     S
C3     C5      1.388   .     A
C4     C6      1.387   .     A
C4     C24     1.420   .     S
C5     C7      1.378   .     A
C5     H27     1.086   .     S
C6     H31     1.086   .     S
C6     C8      1.378   .     A
C7     C9      1.411   .     A
C7     C14     1.397   .     A
C8     C15     1.395   .     A
C8     C10     1.411   .     A
C9     C11     1.421   .     A
C9     C532    1.397   1_554 S
C10    C13     1.420   .     A
C10    C531    1.397   .     S
C11    C21     1.407   .     A
C11    C26     1.402   .     A
C12    O49     1.285   .     A
C12    C23     1.399   .     S
C12    O51     1.291   .     A
C13    C20     1.406   .     A
C14    H32     1.084   .     S
C14    C542    1.385   1_554 S
C15    H33     1.084   .     S
C15    C543    1.384   .     S
C16    O56     1.223   .     D
C16    O42     1.398   .     S
C16    C26     1.488   .     S
C17    O43     1.222   .     D
C17    O44     1.397   .     S
C18    O46     1.397   .     S
C18    O45     1.223   .     D
C18    N155    1.412   1_455 S
C19    O47     1.223   .     D
C19    O48     1.397   .     S
C19    N98     1.412   .     S
C20    H34     1.083   .     S
C20    C536    1.385   .     S
C21    H35     1.081   .     S
C21    C537    1.384   1_554 S
C22    C197    1.333   .     S
C22    H210    1.088   .     S
C23    C370    1.333   1_545 S
C23    H385    1.088   1_545 S
C24    O52     1.292   .     A
C24    O54     1.292   .     A
C25    O55     1.293   .     A
C25    O53     1.292   .     A
H28    O392    1.014   1_545 S
H29    O46     1.014   .     S
H30    O48     1.014   .     S
H36    C370    1.088   1_545 S
H37    C197    1.088   .     S
H38    O42     1.014   .     S
N39    Zn58    2.035   .     S
N39    C76     1.412   .     S
N39    N98     1.278   .     S
N40    Zn57    2.035   .     S
N40    N155    1.278   1_455 S
N40    C135    1.412   1_455 S
O41    Zn57    1.958   .     S
O44    H202    1.014   .     S
O49    Zn58    1.958   .     S
O50    Zn58    1.972   .     S
O51    Zn57    1.972   .     S
O52    Zn57    1.993   .     S
O53    Zn58    1.993   .     S
O54    Zn58    2.015   .     S
O55    Zn57    2.015   .     S
C59    O108    1.291   .     A
C59    C80     1.399   .     S
C59    O99     1.285   .     A
C60    C62     1.404   .     A
C60    C75     1.484   .     S
C60    C71     1.401   .     A
C61    C84     1.407   .     A
C61    C83     1.422   .     S
C61    C63     1.388   .     A
C62    C64     1.387   .     A
C62    C82     1.420   .     S
C63    C65     1.378   .     A
C63    H85     1.086   .     S
C64    H89     1.086   .     S
C64    C66     1.378   .     A
C65    C67     1.411   .     A
C65    C72     1.397   .     A
C66    C73     1.395   .     A
C66    C68     1.411   .     A
C67    C69     1.421   .     A
C67    C590    1.397   1_554 S
C68    C71     1.420   .     A
C68    C589    1.397   .     S
C69    C79     1.407   .     A
C69    C84     1.402   .     A
C70    O107    1.285   .     A
C70    C81     1.399   .     S
C70    O109    1.291   .     A
C71    C78     1.406   .     A
C72    H90     1.084   .     S
C72    C600    1.385   1_554 S
C73    H91     1.084   .     S
C73    C601    1.384   .     S
C74    O114    1.223   .     D
C74    O100    1.398   .     S
C74    C84     1.488   .     S
C75    O101    1.222   .     D
C75    O102    1.397   .     S
C76    O104    1.397   .     S
C76    O103    1.223   .     D
C77    O105    1.223   .     D
C77    O106    1.397   .     S
C77    N156    1.412   .     S
C78    H92     1.083   .     S
C78    C594    1.385   .     S
C79    H93     1.081   .     S
C79    C595    1.384   1_554 S
C80    C255    1.333   .     S
C80    H268    1.088   .     S
C81    C428    1.333   1_545 S
C81    H443    1.088   1_545 S
C82    O110    1.292   .     A
C82    O112    1.292   .     A
C83    O113    1.293   .     A
C83    O111    1.292   .     A
H86    O450    1.014   1_545 S
H87    O104    1.014   .     S
H88    O106    1.014   .     S
H94    C428    1.088   1_545 S
H95    C255    1.088   .     S
H96    O100    1.014   .     S
N97    Zn116   2.035   .     S
N97    C134    1.412   .     S
N97    N156    1.278   .     S
N98    Zn115   2.035   .     S
O99    Zn115   1.958   .     S
O102   H260    1.014   .     S
O107   Zn116   1.958   .     S
O108   Zn116   1.972   .     S
O109   Zn115   1.972   .     S
O110   Zn115   1.993   .     S
O111   Zn116   1.993   .     S
O112   Zn116   2.015   .     S
O113   Zn115   2.015   .     S
C117   O166    1.291   .     A
C117   C138    1.399   .     S
C117   O157    1.285   .     A
C118   C120    1.404   .     A
C118   C133    1.484   .     S
C118   C129    1.401   .     A
C119   C142    1.407   .     A
C119   C141    1.422   .     S
C119   C121    1.388   .     A
C120   C122    1.387   .     A
C120   C140    1.420   .     S
C121   C123    1.378   .     A
C121   H143    1.086   .     S
C122   H147    1.086   .     S
C122   C124    1.378   .     A
C123   C125    1.411   .     A
C123   C130    1.397   .     A
C124   C131    1.395   .     A
C124   C126    1.411   .     A
C125   C127    1.421   .     A
C125   C648    1.397   1_554 S
C126   C129    1.420   .     A
C126   C647    1.397   .     S
C127   C137    1.407   .     A
C127   C142    1.402   .     A
C128   O165    1.285   .     A
C128   C139    1.399   .     S
C128   O167    1.291   .     A
C129   C136    1.406   .     A
C130   H148    1.084   .     S
C130   C658    1.385   1_554 S
C131   H149    1.084   .     S
C131   C659    1.384   .     S
C132   O172    1.223   .     D
C132   O158    1.398   .     S
C132   C142    1.488   .     S
C133   O159    1.222   .     D
C133   O160    1.397   .     S
C134   O162    1.397   .     S
C134   O161    1.223   .     D
C135   O163    1.223   .     D
C135   O164    1.397   .     S
C135   N40     1.412   1_655 S
C136   H150    1.083   .     S
C136   C652    1.385   .     S
C137   H151    1.081   .     S
C137   C653    1.384   1_554 S
C138   C313    1.333   .     S
C138   H326    1.088   .     S
C139   C486    1.333   1_545 S
C139   H501    1.088   1_545 S
C140   O168    1.292   .     A
C140   O170    1.292   .     A
C141   O171    1.293   .     A
C141   O169    1.292   .     A
H144   O508    1.014   1_545 S
H145   O162    1.014   .     S
H146   O164    1.014   .     S
H152   C486    1.088   1_545 S
H153   C313    1.088   .     S
H154   O158    1.014   .     S
N155   Zn174   2.035   .     S
N155   C18     1.412   1_655 S
N155   N40     1.278   1_655 S
N156   Zn173   2.035   .     S
O157   Zn173   1.958   .     S
O160   H318    1.014   .     S
O165   Zn174   1.958   .     S
O166   Zn174   1.972   .     S
O167   Zn173   1.972   .     S
O168   Zn173   1.993   .     S
O169   Zn174   1.993   .     S
O170   Zn174   2.015   .     S
O171   Zn173   2.015   .     S
C175   O224    1.291   .     A
C175   C196    1.399   .     S
C175   O215    1.285   .     A
C176   C178    1.404   .     A
C176   C191    1.484   .     S
C176   C187    1.401   .     A
C177   C200    1.407   .     A
C177   C199    1.422   .     S
C177   C179    1.388   .     A
C178   C180    1.387   .     A
C178   C198    1.420   .     S
C179   C181    1.378   .     A
C179   H201    1.086   .     S
C180   H205    1.086   .     S
C180   C182    1.378   .     A
C181   C183    1.411   .     A
C181   C188    1.397   .     A
C182   C189    1.395   .     A
C182   C184    1.411   .     A
C183   C185    1.421   .     A
C183   C706    1.397   1_554 S
C184   C187    1.420   .     A
C184   C705    1.397   .     S
C185   C195    1.407   .     A
C185   C200    1.402   .     A
C186   O223    1.285   .     A
C186   C197    1.399   .     S
C186   O225    1.291   .     A
C187   C194    1.406   .     A
C188   H206    1.084   .     S
C188   C716    1.385   1_554 S
C189   H207    1.084   .     S
C189   C717    1.384   .     S
C190   O230    1.223   .     D
C190   O216    1.398   .     S
C190   C200    1.488   .     S
C191   O217    1.222   .     D
C191   O218    1.397   .     S
C192   O220    1.397   .     S
C192   O219    1.223   .     D
C192   N329    1.412   1_455 S
C193   O221    1.223   .     D
C193   O222    1.397   .     S
C193   N272    1.412   .     S
C194   H208    1.083   .     S
C194   C710    1.385   .     S
C195   H209    1.081   .     S
C195   C711    1.384   1_554 S
C196   C371    1.333   .     S
C196   H384    1.088   .     S
C198   O226    1.292   .     A
C198   O228    1.292   .     A
C199   O229    1.293   .     A
C199   O227    1.292   .     A
H203   O220    1.014   .     S
H204   O222    1.014   .     S
H211   C371    1.088   .     S
H212   O216    1.014   .     S
N213   Zn232   2.035   .     S
N213   C250    1.412   .     S
N213   N272    1.278   .     S
N214   Zn231   2.035   .     S
N214   N329    1.278   1_455 S
N214   C309    1.412   1_455 S
O215   Zn231   1.958   .     S
O218   H376    1.014   .     S
O223   Zn232   1.958   .     S
O224   Zn232   1.972   .     S
O225   Zn231   1.972   .     S
O226   Zn231   1.993   .     S
O227   Zn232   1.993   .     S
O228   Zn232   2.015   .     S
O229   Zn231   2.015   .     S
C233   O282    1.291   .     A
C233   C254    1.399   .     S
C233   O273    1.285   .     A
C234   C236    1.404   .     A
C234   C249    1.484   .     S
C234   C245    1.401   .     A
C235   C258    1.407   .     A
C235   C257    1.422   .     S
C235   C237    1.388   .     A
C236   C238    1.387   .     A
C236   C256    1.420   .     S
C237   C239    1.378   .     A
C237   H259    1.086   .     S
C238   H263    1.086   .     S
C238   C240    1.378   .     A
C239   C241    1.411   .     A
C239   C246    1.397   .     A
C240   C247    1.395   .     A
C240   C242    1.411   .     A
C241   C243    1.421   .     A
C241   C764    1.397   1_554 S
C242   C245    1.420   .     A
C242   C763    1.397   .     S
C243   C253    1.407   .     A
C243   C258    1.402   .     A
C244   O281    1.285   .     A
C244   C255    1.399   .     S
C244   O283    1.291   .     A
C245   C252    1.406   .     A
C246   H264    1.084   .     S
C246   C774    1.385   1_554 S
C247   H265    1.084   .     S
C247   C775    1.384   .     S
C248   O288    1.223   .     D
C248   O274    1.398   .     S
C248   C258    1.488   .     S
C249   O275    1.222   .     D
C249   O276    1.397   .     S
C250   O278    1.397   .     S
C250   O277    1.223   .     D
C251   O279    1.223   .     D
C251   O280    1.397   .     S
C251   N330    1.412   .     S
C252   H266    1.083   .     S
C252   C768    1.385   .     S
C253   H267    1.081   .     S
C253   C769    1.384   1_554 S
C254   C429    1.333   .     S
C254   H442    1.088   .     S
C256   O284    1.292   .     A
C256   O286    1.292   .     A
C257   O287    1.293   .     A
C257   O285    1.292   .     A
H261   O278    1.014   .     S
H262   O280    1.014   .     S
H269   C429    1.088   .     S
H270   O274    1.014   .     S
N271   Zn290   2.035   .     S
N271   C308    1.412   .     S
N271   N330    1.278   .     S
N272   Zn289   2.035   .     S
O273   Zn289   1.958   .     S
O276   H434    1.014   .     S
O281   Zn290   1.958   .     S
O282   Zn290   1.972   .     S
O283   Zn289   1.972   .     S
O284   Zn289   1.993   .     S
O285   Zn290   1.993   .     S
O286   Zn290   2.015   .     S
O287   Zn289   2.015   .     S
C291   O340    1.291   .     A
C291   C312    1.399   .     S
C291   O331    1.285   .     A
C292   C294    1.404   .     A
C292   C307    1.484   .     S
C292   C303    1.401   .     A
C293   C316    1.407   .     A
C293   C315    1.422   .     S
C293   C295    1.388   .     A
C294   C296    1.387   .     A
C294   C314    1.420   .     S
C295   C297    1.378   .     A
C295   H317    1.086   .     S
C296   H321    1.086   .     S
C296   C298    1.378   .     A
C297   C299    1.411   .     A
C297   C304    1.397   .     A
C298   C305    1.395   .     A
C298   C300    1.411   .     A
C299   C301    1.421   .     A
C299   C822    1.397   1_554 S
C300   C303    1.420   .     A
C300   C821    1.397   .     S
C301   C311    1.407   .     A
C301   C316    1.402   .     A
C302   O339    1.285   .     A
C302   C313    1.399   .     S
C302   O341    1.291   .     A
C303   C310    1.406   .     A
C304   H322    1.084   .     S
C304   C832    1.385   1_554 S
C305   H323    1.084   .     S
C305   C833    1.384   .     S
C306   O346    1.223   .     D
C306   O332    1.398   .     S
C306   C316    1.488   .     S
C307   O333    1.222   .     D
C307   O334    1.397   .     S
C308   O336    1.397   .     S
C308   O335    1.223   .     D
C309   O337    1.223   .     D
C309   O338    1.397   .     S
C309   N214    1.412   1_655 S
C310   H324    1.083   .     S
C310   C826    1.385   .     S
C311   H325    1.081   .     S
C311   C827    1.384   1_554 S
C312   C487    1.333   .     S
C312   H500    1.088   .     S
C314   O342    1.292   .     A
C314   O344    1.292   .     A
C315   O345    1.293   .     A
C315   O343    1.292   .     A
H319   O336    1.014   .     S
H320   O338    1.014   .     S
H327   C487    1.088   .     S
H328   O332    1.014   .     S
N329   Zn348   2.035   .     S
N329   C192    1.412   1_655 S
N329   N214    1.278   1_655 S
N330   Zn347   2.035   .     S
O331   Zn347   1.958   .     S
O334   H492    1.014   .     S
O339   Zn348   1.958   .     S
O340   Zn348   1.972   .     S
O341   Zn347   1.972   .     S
O342   Zn347   1.993   .     S
O343   Zn348   1.993   .     S
O344   Zn348   2.015   .     S
O345   Zn347   2.015   .     S
C349   O398    1.291   .     A
C349   C370    1.399   .     S
C349   O389    1.285   .     A
C350   C352    1.404   .     A
C350   C365    1.484   .     S
C350   C361    1.401   .     A
C351   C374    1.407   .     A
C351   C373    1.422   .     S
C351   C353    1.388   .     A
C352   C354    1.387   .     A
C352   C372    1.420   .     S
C353   C355    1.378   .     A
C353   H375    1.086   .     S
C354   H379    1.086   .     S
C354   C356    1.378   .     A
C355   C357    1.411   .     A
C355   C362    1.397   .     A
C356   C363    1.395   .     A
C356   C358    1.411   .     A
C357   C359    1.421   .     A
C357   C880    1.397   1_554 S
C358   C361    1.420   .     A
C358   C879    1.397   .     S
C359   C369    1.407   .     A
C359   C374    1.402   .     A
C360   O397    1.285   .     A
C360   C371    1.399   .     S
C360   O399    1.291   .     A
C361   C368    1.406   .     A
C362   H380    1.084   .     S
C362   C890    1.385   1_554 S
C363   H381    1.084   .     S
C363   C891    1.384   .     S
C364   O404    1.223   .     D
C364   O390    1.398   .     S
C364   C374    1.488   .     S
C365   O391    1.222   .     D
C365   O392    1.397   .     S
C366   O394    1.397   .     S
C366   O393    1.223   .     D
C366   N503    1.412   1_455 S
C367   O395    1.223   .     D
C367   O396    1.397   .     S
C367   N446    1.412   .     S
C368   H382    1.083   .     S
C368   C884    1.385   .     S
C369   H383    1.081   .     S
C369   C885    1.384   1_554 S
C370   C23     1.333   1_565 S
C370   H36     1.088   1_565 S
C372   O400    1.292   .     A
C372   O402    1.292   .     A
C373   O403    1.293   .     A
C373   O401    1.292   .     A
H377   O394    1.014   .     S
H378   O396    1.014   .     S
H385   C23     1.088   1_565 S
H386   O390    1.014   .     S
N387   Zn406   2.035   .     S
N387   C424    1.412   .     S
N387   N446    1.278   .     S
N388   Zn405   2.035   .     S
N388   N503    1.278   1_455 S
N388   C483    1.412   1_455 S
O389   Zn405   1.958   .     S
O392   H28     1.014   1_565 S
O397   Zn406   1.958   .     S
O398   Zn406   1.972   .     S
O399   Zn405   1.972   .     S
O400   Zn405   1.993   .     S
O401   Zn406   1.993   .     S
O402   Zn406   2.015   .     S
O403   Zn405   2.015   .     S
C407   O456    1.291   .     A
C407   C428    1.399   .     S
C407   O447    1.285   .     A
C408   C410    1.404   .     A
C408   C423    1.484   .     S
C408   C419    1.401   .     A
C409   C432    1.407   .     A
C409   C431    1.422   .     S
C409   C411    1.388   .     A
C410   C412    1.387   .     A
C410   C430    1.420   .     S
C411   C413    1.378   .     A
C411   H433    1.086   .     S
C412   H437    1.086   .     S
C412   C414    1.378   .     A
C413   C415    1.411   .     A
C413   C420    1.397   .     A
C414   C421    1.395   .     A
C414   C416    1.411   .     A
C415   C417    1.421   .     A
C415   C938    1.397   1_554 S
C416   C419    1.420   .     A
C416   C937    1.397   .     S
C417   C427    1.407   .     A
C417   C432    1.402   .     A
C418   O455    1.285   .     A
C418   C429    1.399   .     S
C418   O457    1.291   .     A
C419   C426    1.406   .     A
C420   H438    1.084   .     S
C420   C948    1.385   1_554 S
C421   H439    1.084   .     S
C421   C949    1.384   .     S
C422   O462    1.223   .     D
C422   O448    1.398   .     S
C422   C432    1.488   .     S
C423   O449    1.222   .     D
C423   O450    1.397   .     S
C424   O452    1.397   .     S
C424   O451    1.223   .     D
C425   O453    1.223   .     D
C425   O454    1.397   .     S
C425   N504    1.412   .     S
C426   H440    1.083   .     S
C426   C942    1.385   .     S
C427   H441    1.081   .     S
C427   C943    1.384   1_554 S
C428   C81     1.333   1_565 S
C428   H94     1.088   1_565 S
C430   O458    1.292   .     A
C430   O460    1.292   .     A
C431   O461    1.293   .     A
C431   O459    1.292   .     A
H435   O452    1.014   .     S
H436   O454    1.014   .     S
H443   C81     1.088   1_565 S
H444   O448    1.014   .     S
N445   Zn464   2.035   .     S
N445   C482    1.412   .     S
N445   N504    1.278   .     S
N446   Zn463   2.035   .     S
O447   Zn463   1.958   .     S
O450   H86     1.014   1_565 S
O455   Zn464   1.958   .     S
O456   Zn464   1.972   .     S
O457   Zn463   1.972   .     S
O458   Zn463   1.993   .     S
O459   Zn464   1.993   .     S
O460   Zn464   2.015   .     S
O461   Zn463   2.015   .     S
C465   O514    1.291   .     A
C465   C486    1.399   .     S
C465   O505    1.285   .     A
C466   C468    1.404   .     A
C466   C481    1.484   .     S
C466   C477    1.401   .     A
C467   C490    1.407   .     A
C467   C489    1.422   .     S
C467   C469    1.388   .     A
C468   C470    1.387   .     A
C468   C488    1.420   .     S
C469   C471    1.378   .     A
C469   H491    1.086   .     S
C470   H495    1.086   .     S
C470   C472    1.378   .     A
C471   C473    1.411   .     A
C471   C478    1.397   .     A
C472   C479    1.395   .     A
C472   C474    1.411   .     A
C473   C475    1.421   .     A
C473   C996    1.397   1_554 S
C474   C477    1.420   .     A
C474   C995    1.397   .     S
C475   C485    1.407   .     A
C475   C490    1.402   .     A
C476   O513    1.285   .     A
C476   C487    1.399   .     S
C476   O515    1.291   .     A
C477   C484    1.406   .     A
C478   H496    1.084   .     S
C478   C1006   1.385   1_554 S
C479   H497    1.084   .     S
C479   C1007   1.384   .     S
C480   O520    1.223   .     D
C480   O506    1.398   .     S
C480   C490    1.488   .     S
C481   O507    1.222   .     D
C481   O508    1.397   .     S
C482   O510    1.397   .     S
C482   O509    1.223   .     D
C483   O511    1.223   .     D
C483   O512    1.397   .     S
C483   N388    1.412   1_655 S
C484   H498    1.083   .     S
C484   C1000   1.385   .     S
C485   H499    1.081   .     S
C485   C1001   1.384   1_554 S
C486   C139    1.333   1_565 S
C486   H152    1.088   1_565 S
C488   O516    1.292   .     A
C488   O518    1.292   .     A
C489   O519    1.293   .     A
C489   O517    1.292   .     A
H493   O510    1.014   .     S
H494   O512    1.014   .     S
H501   C139    1.088   1_565 S
H502   O506    1.014   .     S
N503   Zn522   2.035   .     S
N503   C366    1.412   1_655 S
N503   N388    1.278   1_655 S
N504   Zn521   2.035   .     S
O505   Zn521   1.958   .     S
O508   H144    1.014   1_565 S
O513   Zn522   1.958   .     S
O514   Zn522   1.972   .     S
O515   Zn521   1.972   .     S
O516   Zn521   1.993   .     S
O517   Zn522   1.993   .     S
O518   Zn522   2.015   .     S
O519   Zn521   2.015   .     S
C523   O572    1.291   .     A
C523   C544    1.399   .     S
C523   O563    1.285   .     A
C524   C526    1.404   .     A
C524   C539    1.484   .     S
C524   C535    1.401   .     A
C525   C548    1.407   .     A
C525   C547    1.422   .     S
C525   C527    1.388   .     A
C526   C528    1.387   .     A
C526   C546    1.420   .     S
C527   C529    1.378   .     A
C527   H549    1.086   .     S
C528   H553    1.086   .     S
C528   C530    1.378   .     A
C529   C531    1.411   .     A
C529   C536    1.397   .     A
C530   C537    1.395   .     A
C530   C532    1.411   .     A
C531   C533    1.421   .     A
C532   C535    1.420   .     A
C532   C9      1.397   1_556 S
C533   C543    1.407   .     A
C533   C548    1.402   .     A
C534   O571    1.285   .     A
C534   C545    1.399   .     S
C534   O573    1.291   .     A
C535   C542    1.406   .     A
C536   H554    1.084   .     S
C537   H555    1.084   .     S
C537   C21     1.384   1_556 S
C538   O578    1.223   .     D
C538   O564    1.398   .     S
C538   C548    1.488   .     S
C539   O565    1.222   .     D
C539   O566    1.397   .     S
C540   O568    1.397   .     S
C540   O567    1.223   .     D
C540   N677    1.412   1_455 S
C541   O569    1.223   .     D
C541   O570    1.397   .     S
C541   N620    1.412   .     S
C542   H556    1.083   .     S
C542   C14     1.385   1_556 S
C543   H557    1.081   .     S
C544   C719    1.333   .     S
C544   H732    1.088   .     S
C545   C892    1.333   1_545 S
C545   H907    1.088   1_545 S
C546   O574    1.292   .     A
C546   O576    1.292   .     A
C547   O577    1.293   .     A
C547   O575    1.292   .     A
H550   O914    1.014   1_545 S
H551   O568    1.014   .     S
H552   O570    1.014   .     S
H558   C892    1.088   1_545 S
H559   C719    1.088   .     S
H560   O564    1.014   .     S
N561   Zn580   2.035   .     S
N561   C598    1.412   .     S
N561   N620    1.278   .     S
N562   Zn579   2.035   .     S
N562   N677    1.278   1_455 S
N562   C657    1.412   1_455 S
O563   Zn579   1.958   .     S
O566   H724    1.014   .     S
O571   Zn580   1.958   .     S
O572   Zn580   1.972   .     S
O573   Zn579   1.972   .     S
O574   Zn579   1.993   .     S
O575   Zn580   1.993   .     S
O576   Zn580   2.015   .     S
O577   Zn579   2.015   .     S
C581   O630    1.291   .     A
C581   C602    1.399   .     S
C581   O621    1.285   .     A
C582   C584    1.404   .     A
C582   C597    1.484   .     S
C582   C593    1.401   .     A
C583   C606    1.407   .     A
C583   C605    1.422   .     S
C583   C585    1.388   .     A
C584   C586    1.387   .     A
C584   C604    1.420   .     S
C585   C587    1.378   .     A
C585   H607    1.086   .     S
C586   H611    1.086   .     S
C586   C588    1.378   .     A
C587   C589    1.411   .     A
C587   C594    1.397   .     A
C588   C595    1.395   .     A
C588   C590    1.411   .     A
C589   C591    1.421   .     A
C590   C593    1.420   .     A
C590   C67     1.397   1_556 S
C591   C601    1.407   .     A
C591   C606    1.402   .     A
C592   O629    1.285   .     A
C592   C603    1.399   .     S
C592   O631    1.291   .     A
C593   C600    1.406   .     A
C594   H612    1.084   .     S
C595   H613    1.084   .     S
C595   C79     1.384   1_556 S
C596   O636    1.223   .     D
C596   O622    1.398   .     S
C596   C606    1.488   .     S
C597   O623    1.222   .     D
C597   O624    1.397   .     S
C598   O626    1.397   .     S
C598   O625    1.223   .     D
C599   O627    1.223   .     D
C599   O628    1.397   .     S
C599   N678    1.412   .     S
C600   H614    1.083   .     S
C600   C72     1.385   1_556 S
C601   H615    1.081   .     S
C602   C777    1.333   .     S
C602   H790    1.088   .     S
C603   C950    1.333   1_545 S
C603   H965    1.088   1_545 S
C604   O632    1.292   .     A
C604   O634    1.292   .     A
C605   O635    1.293   .     A
C605   O633    1.292   .     A
H608   O972    1.014   1_545 S
H609   O626    1.014   .     S
H610   O628    1.014   .     S
H616   C950    1.088   1_545 S
H617   C777    1.088   .     S
H618   O622    1.014   .     S
N619   Zn638   2.035   .     S
N619   C656    1.412   .     S
N619   N678    1.278   .     S
N620   Zn637   2.035   .     S
O621   Zn637   1.958   .     S
O624   H782    1.014   .     S
O629   Zn638   1.958   .     S
O630   Zn638   1.972   .     S
O631   Zn637   1.972   .     S
O632   Zn637   1.993   .     S
O633   Zn638   1.993   .     S
O634   Zn638   2.015   .     S
O635   Zn637   2.015   .     S
C639   O688    1.291   .     A
C639   C660    1.399   .     S
C639   O679    1.285   .     A
C640   C642    1.404   .     A
C640   C655    1.484   .     S
C640   C651    1.401   .     A
C641   C664    1.407   .     A
C641   C663    1.422   .     S
C641   C643    1.388   .     A
C642   C644    1.387   .     A
C642   C662    1.420   .     S
C643   C645    1.378   .     A
C643   H665    1.086   .     S
C644   H669    1.086   .     S
C644   C646    1.378   .     A
C645   C647    1.411   .     A
C645   C652    1.397   .     A
C646   C653    1.395   .     A
C646   C648    1.411   .     A
C647   C649    1.421   .     A
C648   C651    1.420   .     A
C648   C125    1.397   1_556 S
C649   C659    1.407   .     A
C649   C664    1.402   .     A
C650   O687    1.285   .     A
C650   C661    1.399   .     S
C650   O689    1.291   .     A
C651   C658    1.406   .     A
C652   H670    1.084   .     S
C653   H671    1.084   .     S
C653   C137    1.384   1_556 S
C654   O694    1.223   .     D
C654   O680    1.398   .     S
C654   C664    1.488   .     S
C655   O681    1.222   .     D
C655   O682    1.397   .     S
C656   O684    1.397   .     S
C656   O683    1.223   .     D
C657   O685    1.223   .     D
C657   O686    1.397   .     S
C657   N562    1.412   1_655 S
C658   H672    1.083   .     S
C658   C130    1.385   1_556 S
C659   H673    1.081   .     S
C660   C835    1.333   .     S
C660   H848    1.088   .     S
C661   C1008   1.333   1_545 S
C661   H1023   1.088   1_545 S
C662   O690    1.292   .     A
C662   O692    1.292   .     A
C663   O693    1.293   .     A
C663   O691    1.292   .     A
H666   O1030   1.014   1_545 S
H667   O684    1.014   .     S
H668   O686    1.014   .     S
H674   C1008   1.088   1_545 S
H675   C835    1.088   .     S
H676   O680    1.014   .     S
N677   Zn696   2.035   .     S
N677   C540    1.412   1_655 S
N677   N562    1.278   1_655 S
N678   Zn695   2.035   .     S
O679   Zn695   1.958   .     S
O682   H840    1.014   .     S
O687   Zn696   1.958   .     S
O688   Zn696   1.972   .     S
O689   Zn695   1.972   .     S
O690   Zn695   1.993   .     S
O691   Zn696   1.993   .     S
O692   Zn696   2.015   .     S
O693   Zn695   2.015   .     S
C697   O746    1.291   .     A
C697   C718    1.399   .     S
C697   O737    1.285   .     A
C698   C700    1.404   .     A
C698   C713    1.484   .     S
C698   C709    1.401   .     A
C699   C722    1.407   .     A
C699   C721    1.422   .     S
C699   C701    1.388   .     A
C700   C702    1.387   .     A
C700   C720    1.420   .     S
C701   C703    1.378   .     A
C701   H723    1.086   .     S
C702   H727    1.086   .     S
C702   C704    1.378   .     A
C703   C705    1.411   .     A
C703   C710    1.397   .     A
C704   C711    1.395   .     A
C704   C706    1.411   .     A
C705   C707    1.421   .     A
C706   C709    1.420   .     A
C706   C183    1.397   1_556 S
C707   C717    1.407   .     A
C707   C722    1.402   .     A
C708   O745    1.285   .     A
C708   C719    1.399   .     S
C708   O747    1.291   .     A
C709   C716    1.406   .     A
C710   H728    1.084   .     S
C711   H729    1.084   .     S
C711   C195    1.384   1_556 S
C712   O752    1.223   .     D
C712   O738    1.398   .     S
C712   C722    1.488   .     S
C713   O739    1.222   .     D
C713   O740    1.397   .     S
C714   O742    1.397   .     S
C714   O741    1.223   .     D
C714   N851    1.412   1_455 S
C715   O743    1.223   .     D
C715   O744    1.397   .     S
C715   N794    1.412   .     S
C716   H730    1.083   .     S
C716   C188    1.385   1_556 S
C717   H731    1.081   .     S
C718   C893    1.333   .     S
C718   H906    1.088   .     S
C720   O748    1.292   .     A
C720   O750    1.292   .     A
C721   O751    1.293   .     A
C721   O749    1.292   .     A
H725   O742    1.014   .     S
H726   O744    1.014   .     S
H733   C893    1.088   .     S
H734   O738    1.014   .     S
N735   Zn754   2.035   .     S
N735   C772    1.412   .     S
N735   N794    1.278   .     S
N736   Zn753   2.035   .     S
N736   N851    1.278   1_455 S
N736   C831    1.412   1_455 S
O737   Zn753   1.958   .     S
O740   H898    1.014   .     S
O745   Zn754   1.958   .     S
O746   Zn754   1.972   .     S
O747   Zn753   1.972   .     S
O748   Zn753   1.993   .     S
O749   Zn754   1.993   .     S
O750   Zn754   2.015   .     S
O751   Zn753   2.015   .     S
C755   O804    1.291   .     A
C755   C776    1.399   .     S
C755   O795    1.285   .     A
C756   C758    1.404   .     A
C756   C771    1.484   .     S
C756   C767    1.401   .     A
C757   C780    1.407   .     A
C757   C779    1.422   .     S
C757   C759    1.388   .     A
C758   C760    1.387   .     A
C758   C778    1.420   .     S
C759   C761    1.378   .     A
C759   H781    1.086   .     S
C760   H785    1.086   .     S
C760   C762    1.378   .     A
C761   C763    1.411   .     A
C761   C768    1.397   .     A
C762   C769    1.395   .     A
C762   C764    1.411   .     A
C763   C765    1.421   .     A
C764   C767    1.420   .     A
C764   C241    1.397   1_556 S
C765   C775    1.407   .     A
C765   C780    1.402   .     A
C766   O803    1.285   .     A
C766   C777    1.399   .     S
C766   O805    1.291   .     A
C767   C774    1.406   .     A
C768   H786    1.084   .     S
C769   H787    1.084   .     S
C769   C253    1.384   1_556 S
C770   O810    1.223   .     D
C770   O796    1.398   .     S
C770   C780    1.488   .     S
C771   O797    1.222   .     D
C771   O798    1.397   .     S
C772   O800    1.397   .     S
C772   O799    1.223   .     D
C773   O801    1.223   .     D
C773   O802    1.397   .     S
C773   N852    1.412   .     S
C774   H788    1.083   .     S
C774   C246    1.385   1_556 S
C775   H789    1.081   .     S
C776   C951    1.333   .     S
C776   H964    1.088   .     S
C778   O806    1.292   .     A
C778   O808    1.292   .     A
C779   O809    1.293   .     A
C779   O807    1.292   .     A
H783   O800    1.014   .     S
H784   O802    1.014   .     S
H791   C951    1.088   .     S
H792   O796    1.014   .     S
N793   Zn812   2.035   .     S
N793   C830    1.412   .     S
N793   N852    1.278   .     S
N794   Zn811   2.035   .     S
O795   Zn811   1.958   .     S
O798   H956    1.014   .     S
O803   Zn812   1.958   .     S
O804   Zn812   1.972   .     S
O805   Zn811   1.972   .     S
O806   Zn811   1.993   .     S
O807   Zn812   1.993   .     S
O808   Zn812   2.015   .     S
O809   Zn811   2.015   .     S
C813   O862    1.291   .     A
C813   C834    1.399   .     S
C813   O853    1.285   .     A
C814   C816    1.404   .     A
C814   C829    1.484   .     S
C814   C825    1.401   .     A
C815   C838    1.407   .     A
C815   C837    1.422   .     S
C815   C817    1.388   .     A
C816   C818    1.387   .     A
C816   C836    1.420   .     S
C817   C819    1.378   .     A
C817   H839    1.086   .     S
C818   H843    1.086   .     S
C818   C820    1.378   .     A
C819   C821    1.411   .     A
C819   C826    1.397   .     A
C820   C827    1.395   .     A
C820   C822    1.411   .     A
C821   C823    1.421   .     A
C822   C825    1.420   .     A
C822   C299    1.397   1_556 S
C823   C833    1.407   .     A
C823   C838    1.402   .     A
C824   O861    1.285   .     A
C824   C835    1.399   .     S
C824   O863    1.291   .     A
C825   C832    1.406   .     A
C826   H844    1.084   .     S
C827   H845    1.084   .     S
C827   C311    1.384   1_556 S
C828   O868    1.223   .     D
C828   O854    1.398   .     S
C828   C838    1.488   .     S
C829   O855    1.222   .     D
C829   O856    1.397   .     S
C830   O858    1.397   .     S
C830   O857    1.223   .     D
C831   O859    1.223   .     D
C831   O860    1.397   .     S
C831   N736    1.412   1_655 S
C832   H846    1.083   .     S
C832   C304    1.385   1_556 S
C833   H847    1.081   .     S
C834   C1009   1.333   .     S
C834   H1022   1.088   .     S
C836   O864    1.292   .     A
C836   O866    1.292   .     A
C837   O867    1.293   .     A
C837   O865    1.292   .     A
H841   O858    1.014   .     S
H842   O860    1.014   .     S
H849   C1009   1.088   .     S
H850   O854    1.014   .     S
N851   Zn870   2.035   .     S
N851   C714    1.412   1_655 S
N851   N736    1.278   1_655 S
N852   Zn869   2.035   .     S
O853   Zn869   1.958   .     S
O856   H1014   1.014   .     S
O861   Zn870   1.958   .     S
O862   Zn870   1.972   .     S
O863   Zn869   1.972   .     S
O864   Zn869   1.993   .     S
O865   Zn870   1.993   .     S
O866   Zn870   2.015   .     S
O867   Zn869   2.015   .     S
C871   O920    1.291   .     A
C871   C892    1.399   .     S
C871   O911    1.285   .     A
C872   C874    1.404   .     A
C872   C887    1.484   .     S
C872   C883    1.401   .     A
C873   C896    1.407   .     A
C873   C895    1.422   .     S
C873   C875    1.388   .     A
C874   C876    1.387   .     A
C874   C894    1.420   .     S
C875   C877    1.378   .     A
C875   H897    1.086   .     S
C876   H901    1.086   .     S
C876   C878    1.378   .     A
C877   C879    1.411   .     A
C877   C884    1.397   .     A
C878   C885    1.395   .     A
C878   C880    1.411   .     A
C879   C881    1.421   .     A
C880   C883    1.420   .     A
C880   C357    1.397   1_556 S
C881   C891    1.407   .     A
C881   C896    1.402   .     A
C882   O919    1.285   .     A
C882   C893    1.399   .     S
C882   O921    1.291   .     A
C883   C890    1.406   .     A
C884   H902    1.084   .     S
C885   H903    1.084   .     S
C885   C369    1.384   1_556 S
C886   O926    1.223   .     D
C886   O912    1.398   .     S
C886   C896    1.488   .     S
C887   O913    1.222   .     D
C887   O914    1.397   .     S
C888   O916    1.397   .     S
C888   O915    1.223   .     D
C888   N1025   1.412   1_455 S
C889   O917    1.223   .     D
C889   O918    1.397   .     S
C889   N968    1.412   .     S
C890   H904    1.083   .     S
C890   C362    1.385   1_556 S
C891   H905    1.081   .     S
C892   C545    1.333   1_565 S
C892   H558    1.088   1_565 S
C894   O922    1.292   .     A
C894   O924    1.292   .     A
C895   O925    1.293   .     A
C895   O923    1.292   .     A
H899   O916    1.014   .     S
H900   O918    1.014   .     S
H907   C545    1.088   1_565 S
H908   O912    1.014   .     S
N909   Zn928   2.035   .     S
N909   C946    1.412   .     S
N909   N968    1.278   .     S
N910   Zn927   2.035   .     S
N910   N1025   1.278   1_455 S
N910   C1005   1.412   1_455 S
O911   Zn927   1.958   .     S
O914   H550    1.014   1_565 S
O919   Zn928   1.958   .     S
O920   Zn928   1.972   .     S
O921   Zn927   1.972   .     S
O922   Zn927   1.993   .     S
O923   Zn928   1.993   .     S
O924   Zn928   2.015   .     S
O925   Zn927   2.015   .     S
C929   O978    1.291   .     A
C929   C950    1.399   .     S
C929   O969    1.285   .     A
C930   C932    1.404   .     A
C930   C945    1.484   .     S
C930   C941    1.401   .     A
C931   C954    1.407   .     A
C931   C953    1.422   .     S
C931   C933    1.388   .     A
C932   C934    1.387   .     A
C932   C952    1.420   .     S
C933   C935    1.378   .     A
C933   H955    1.086   .     S
C934   H959    1.086   .     S
C934   C936    1.378   .     A
C935   C937    1.411   .     A
C935   C942    1.397   .     A
C936   C943    1.395   .     A
C936   C938    1.411   .     A
C937   C939    1.421   .     A
C938   C941    1.420   .     A
C938   C415    1.397   1_556 S
C939   C949    1.407   .     A
C939   C954    1.402   .     A
C940   O977    1.285   .     A
C940   C951    1.399   .     S
C940   O979    1.291   .     A
C941   C948    1.406   .     A
C942   H960    1.084   .     S
C943   H961    1.084   .     S
C943   C427    1.384   1_556 S
C944   O984    1.223   .     D
C944   O970    1.398   .     S
C944   C954    1.488   .     S
C945   O971    1.222   .     D
C945   O972    1.397   .     S
C946   O974    1.397   .     S
C946   O973    1.223   .     D
C947   O975    1.223   .     D
C947   O976    1.397   .     S
C947   N1026   1.412   .     S
C948   H962    1.083   .     S
C948   C420    1.385   1_556 S
C949   H963    1.081   .     S
C950   C603    1.333   1_565 S
C950   H616    1.088   1_565 S
C952   O980    1.292   .     A
C952   O982    1.292   .     A
C953   O983    1.293   .     A
C953   O981    1.292   .     A
H957   O974    1.014   .     S
H958   O976    1.014   .     S
H965   C603    1.088   1_565 S
H966   O970    1.014   .     S
N967   Zn986   2.035   .     S
N967   C1004   1.412   .     S
N967   N1026   1.278   .     S
N968   Zn985   2.035   .     S
O969   Zn985   1.958   .     S
O972   H608    1.014   1_565 S
O977   Zn986   1.958   .     S
O978   Zn986   1.972   .     S
O979   Zn985   1.972   .     S
O980   Zn985   1.993   .     S
O981   Zn986   1.993   .     S
O982   Zn986   2.015   .     S
O983   Zn985   2.015   .     S
C987   O1036   1.291   .     A
C987   C1008   1.399   .     S
C987   O1027   1.285   .     A
C988   C990    1.404   .     A
C988   C1003   1.484   .     S
C988   C999    1.401   .     A
C989   C1012   1.407   .     A
C989   C1011   1.422   .     S
C989   C991    1.388   .     A
C990   C992    1.387   .     A
C990   C1010   1.420   .     S
C991   C993    1.378   .     A
C991   H1013   1.086   .     S
C992   H1017   1.086   .     S
C992   C994    1.378   .     A
C993   C995    1.411   .     A
C993   C1000   1.397   .     A
C994   C1001   1.395   .     A
C994   C996    1.411   .     A
C995   C997    1.421   .     A
C996   C999    1.420   .     A
C996   C473    1.397   1_556 S
C997   C1007   1.407   .     A
C997   C1012   1.402   .     A
C998   O1035   1.285   .     A
C998   C1009   1.399   .     S
C998   O1037   1.291   .     A
C999   C1006   1.406   .     A
C1000  H1018   1.084   .     S
C1001  H1019   1.084   .     S
C1001  C485    1.384   1_556 S
C1002  O1042   1.223   .     D
C1002  O1028   1.398   .     S
C1002  C1012   1.488   .     S
C1003  O1029   1.222   .     D
C1003  O1030   1.397   .     S
C1004  O1032   1.397   .     S
C1004  O1031   1.223   .     D
C1005  O1033   1.223   .     D
C1005  O1034   1.397   .     S
C1005  N910    1.412   1_655 S
C1006  H1020   1.083   .     S
C1006  C478    1.385   1_556 S
C1007  H1021   1.081   .     S
C1008  C661    1.333   1_565 S
C1008  H674    1.088   1_565 S
C1010  O1038   1.292   .     A
C1010  O1040   1.292   .     A
C1011  O1041   1.293   .     A
C1011  O1039   1.292   .     A
H1015  O1032   1.014   .     S
H1016  O1034   1.014   .     S
H1023  C661    1.088   1_565 S
H1024  O1028   1.014   .     S
N1025  Zn1044  2.035   .     S
N1025  C888    1.412   1_655 S
N1025  N910    1.278   1_655 S
N1026  Zn1043  2.035   .     S
O1027  Zn1043  1.958   .     S
O1030  H666    1.014   1_565 S
O1035  Zn1044  1.958   .     S
O1036  Zn1044  1.972   .     S
O1037  Zn1043  1.972   .     S
O1038  Zn1043  1.993   .     S
O1039  Zn1044  1.993   .     S
O1040  Zn1044  2.015   .     S
O1041  Zn1043  2.015   .     S
