data_str_m3_o10_o17_pcu_sym.26
_audit_creation_date              2020-01-03
_audit_creation_method            'Materials Studio'
_symmetry_space_group_name_H-M    'P1'
_symmetry_Int_Tables_number       1
_symmetry_cell_setting            triclinic
loop_
_symmetry_equiv_pos_as_xyz
  x,y,z
_cell_length_a                    23.3115
_cell_length_b                    26.1886
_cell_length_c                    29.7704
_cell_angle_alpha                 91.1200
_cell_angle_beta                  85.7737
_cell_angle_gamma                 94.3026
loop_
_atom_site_label
_atom_site_type_symbol
_atom_site_fract_x
_atom_site_fract_y
_atom_site_fract_z
_atom_site_U_iso_or_equiv
_atom_site_adp_type
_atom_site_occupancy
C1     C     0.18190   0.26466   0.24852   0.00000  Uiso   1.00
C2     C     0.19098   0.20811   0.40539   0.00000  Uiso   1.00
C3     C     0.16457   0.16878   0.11625   0.00000  Uiso   1.00
C4     C     0.16876   0.16455   0.38375   0.00000  Uiso   1.00
C5     C     0.18608   0.21270   0.09312   0.00000  Uiso   1.00
C6     C     0.14726   0.12063   0.40688   0.00000  Uiso   1.00
C7     C     0.18737   0.21198   0.04615   0.00000  Uiso   1.00
C8     C     0.14597   0.12136   0.45385   0.00000  Uiso   1.00
C9     C     0.16539   0.16732   0.02353   0.00000  Uiso   1.00
C10    C     0.16794   0.16602   0.47647   0.00000  Uiso   1.00
C11    C     0.14107   0.12395   0.04805   0.00000  Uiso   1.00
C12    C     0.15143   0.06867   0.25148   0.00000  Uiso   1.00
C13    C     0.19227   0.20939   0.45195   0.00000  Uiso   1.00
C14    C     0.21128   0.25441   0.02149   0.00000  Uiso   1.00
C15    C     0.12205   0.07892   0.47851   0.00000  Uiso   1.00
C16    C     0.24467   0.29862   0.45098   0.00000  Uiso   1.00
C17    C     0.08866   0.03472   0.04902   0.00000  Uiso   1.00
C18    C     0.25108   0.00561   0.23932   0.00000  Uiso   1.00
C19    C     0.08226   0.32773   0.26069   0.00000  Uiso   1.00
C20    C     0.21501   0.25344   0.47464   0.00000  Uiso   1.00
C21    C     0.11832   0.07989   0.02536   0.00000  Uiso   1.00
C22    C     0.18998   0.31872   0.24703   0.00000  Uiso   1.00
C23    C     0.14335   0.01461   0.25298   0.00000  Uiso   1.00
C24    C     0.16730   0.16618   0.33629   0.00000  Uiso   1.00
C25    C     0.16604   0.16715   0.16371   0.00000  Uiso   1.00
C26    C     0.14235   0.12523   0.09460   0.00000  Uiso   1.00
Cl27   Cl    0.21116   0.26776   0.12373   0.00000  Uiso   1.00
Cl28   Cl    0.12217   0.06557   0.37626   0.00000  Uiso   1.00
H29    H     0.12797   0.09207   0.11470   0.00000  Uiso   1.00
H30    H     0.01586   0.28675   0.23464   0.00000  Uiso   1.00
H31    H     0.20537   0.24126   0.38530   0.00000  Uiso   1.00
H32    H     0.22896   0.28835   0.03839   0.00000  Uiso   1.00
H33    H     0.10438   0.04498   0.46160   0.00000  Uiso   1.00
H34    H     0.00465   0.12816   0.21607   0.00000  Uiso   1.00
H35    H     0.32869   0.20517   0.28393   0.00000  Uiso   1.00
H36    H     0.30294   0.32556   0.40199   0.00000  Uiso   1.00
H37    H     0.03040   0.00777   0.09801   0.00000  Uiso   1.00
H38    H     0.31748   0.04658   0.26538   0.00000  Uiso   1.00
N39    N     0.31678   0.15265   0.23783   0.00000  Uiso   1.00
N40    N     0.01656   0.18068   0.26217   0.00000  Uiso   1.00
O41    O     0.12975   0.24619   0.25298   0.00000  Uiso   1.00
O42    O     0.28529   0.29187   0.41478   0.00000  Uiso   1.00
O43    O     0.09803   0.32482   0.03556   0.00000  Uiso   1.00
O44    O     0.04805   0.04146   0.08522   0.00000  Uiso   1.00
O45    O     0.27436   0.00639   0.20115   0.00000  Uiso   1.00
O46    O     0.28005   0.02666   0.27556   0.00000  Uiso   1.00
O47    O     0.05898   0.32694   0.29886   0.00000  Uiso   1.00
O48    O     0.05328   0.30668   0.22445   0.00000  Uiso   1.00
O49    O     0.20358   0.08714   0.24701   0.00000  Uiso   1.00
O50    O     0.22613   0.23721   0.24518   0.00000  Uiso   1.00
O51    O     0.10720   0.09613   0.25481   0.00000  Uiso   1.00
O52    O     0.11847   0.17117   0.31997   0.00000  Uiso   1.00
O53    O     0.21486   0.16216   0.18002   0.00000  Uiso   1.00
O54    O     0.21485   0.16219   0.31217   0.00000  Uiso   1.00
O55    O     0.11848   0.17115   0.18782   0.00000  Uiso   1.00
O56    O     0.23531   0.00851   0.46444   0.00000  Uiso   1.00
Zn57   Zn    0.10231   0.17266   0.25521   0.00000  Uiso   1.00
Zn58   Zn    0.23102   0.16067   0.24479   0.00000  Uiso   1.00
C59    C     0.51524   0.26466   0.24852   0.00000  Uiso   1.00
C60    C     0.52431   0.20811   0.40539   0.00000  Uiso   1.00
C61    C     0.49791   0.16878   0.11625   0.00000  Uiso   1.00
C62    C     0.50209   0.16455   0.38375   0.00000  Uiso   1.00
C63    C     0.51941   0.21270   0.09312   0.00000  Uiso   1.00
C64    C     0.48059   0.12063   0.40688   0.00000  Uiso   1.00
C65    C     0.52070   0.21198   0.04615   0.00000  Uiso   1.00
C66    C     0.47930   0.12136   0.45385   0.00000  Uiso   1.00
C67    C     0.49872   0.16732   0.02353   0.00000  Uiso   1.00
C68    C     0.50128   0.16602   0.47647   0.00000  Uiso   1.00
C69    C     0.47440   0.12395   0.04805   0.00000  Uiso   1.00
C70    C     0.48476   0.06867   0.25148   0.00000  Uiso   1.00
C71    C     0.52560   0.20939   0.45195   0.00000  Uiso   1.00
C72    C     0.54461   0.25441   0.02149   0.00000  Uiso   1.00
C73    C     0.45539   0.07892   0.47851   0.00000  Uiso   1.00
C74    C     0.57801   0.29862   0.45098   0.00000  Uiso   1.00
C75    C     0.42199   0.03472   0.04902   0.00000  Uiso   1.00
C76    C     0.58441   0.00561   0.23932   0.00000  Uiso   1.00
C77    C     0.41559   0.32773   0.26069   0.00000  Uiso   1.00
C78    C     0.54834   0.25344   0.47464   0.00000  Uiso   1.00
C79    C     0.45166   0.07989   0.02536   0.00000  Uiso   1.00
C80    C     0.52331   0.31872   0.24703   0.00000  Uiso   1.00
C81    C     0.47669   0.01461   0.25298   0.00000  Uiso   1.00
C82    C     0.50063   0.16618   0.33629   0.00000  Uiso   1.00
C83    C     0.49937   0.16715   0.16371   0.00000  Uiso   1.00
C84    C     0.47569   0.12523   0.09460   0.00000  Uiso   1.00
Cl85   Cl    0.54449   0.26776   0.12373   0.00000  Uiso   1.00
Cl86   Cl    0.45551   0.06557   0.37626   0.00000  Uiso   1.00
H87    H     0.46130   0.09207   0.11470   0.00000  Uiso   1.00
H88    H     0.34919   0.28675   0.23464   0.00000  Uiso   1.00
H89    H     0.53870   0.24126   0.38530   0.00000  Uiso   1.00
H90    H     0.56229   0.28835   0.03839   0.00000  Uiso   1.00
H91    H     0.43771   0.04498   0.46160   0.00000  Uiso   1.00
H92    H     0.33798   0.12816   0.21607   0.00000  Uiso   1.00
H93    H     0.66202   0.20517   0.28393   0.00000  Uiso   1.00
H94    H     0.63627   0.32556   0.40199   0.00000  Uiso   1.00
H95    H     0.36373   0.00777   0.09801   0.00000  Uiso   1.00
H96    H     0.65081   0.04658   0.26538   0.00000  Uiso   1.00
N97    N     0.65011   0.15265   0.23783   0.00000  Uiso   1.00
N98    N     0.34989   0.18068   0.26217   0.00000  Uiso   1.00
O99    O     0.46308   0.24619   0.25298   0.00000  Uiso   1.00
O100   O     0.61862   0.29187   0.41478   0.00000  Uiso   1.00
O101   O     0.43136   0.32482   0.03556   0.00000  Uiso   1.00
O102   O     0.38138   0.04146   0.08522   0.00000  Uiso   1.00
O103   O     0.60770   0.00639   0.20115   0.00000  Uiso   1.00
O104   O     0.61339   0.02666   0.27556   0.00000  Uiso   1.00
O105   O     0.39231   0.32694   0.29886   0.00000  Uiso   1.00
O106   O     0.38661   0.30668   0.22445   0.00000  Uiso   1.00
O107   O     0.53692   0.08714   0.24701   0.00000  Uiso   1.00
O108   O     0.55946   0.23721   0.24518   0.00000  Uiso   1.00
O109   O     0.44054   0.09613   0.25481   0.00000  Uiso   1.00
O110   O     0.45181   0.17117   0.31997   0.00000  Uiso   1.00
O111   O     0.54819   0.16216   0.18002   0.00000  Uiso   1.00
O112   O     0.54819   0.16219   0.31217   0.00000  Uiso   1.00
O113   O     0.45181   0.17115   0.18782   0.00000  Uiso   1.00
O114   O     0.56864   0.00851   0.46444   0.00000  Uiso   1.00
Zn115  Zn    0.43565   0.17266   0.25521   0.00000  Uiso   1.00
Zn116  Zn    0.56435   0.16067   0.24479   0.00000  Uiso   1.00
C117   C     0.84857   0.26466   0.24852   0.00000  Uiso   1.00
C118   C     0.85765   0.20811   0.40539   0.00000  Uiso   1.00
C119   C     0.83124   0.16878   0.11625   0.00000  Uiso   1.00
C120   C     0.83543   0.16455   0.38375   0.00000  Uiso   1.00
C121   C     0.85274   0.21270   0.09312   0.00000  Uiso   1.00
C122   C     0.81392   0.12063   0.40688   0.00000  Uiso   1.00
C123   C     0.85403   0.21198   0.04615   0.00000  Uiso   1.00
C124   C     0.81263   0.12136   0.45385   0.00000  Uiso   1.00
C125   C     0.83206   0.16732   0.02353   0.00000  Uiso   1.00
C126   C     0.83461   0.16602   0.47647   0.00000  Uiso   1.00
C127   C     0.80773   0.12395   0.04805   0.00000  Uiso   1.00
C128   C     0.81810   0.06867   0.25148   0.00000  Uiso   1.00
C129   C     0.85893   0.20939   0.45195   0.00000  Uiso   1.00
C130   C     0.87795   0.25441   0.02149   0.00000  Uiso   1.00
C131   C     0.78872   0.07892   0.47851   0.00000  Uiso   1.00
C132   C     0.91134   0.29862   0.45098   0.00000  Uiso   1.00
C133   C     0.75533   0.03472   0.04902   0.00000  Uiso   1.00
C134   C     0.91774   0.00561   0.23932   0.00000  Uiso   1.00
C135   C     0.74892   0.32773   0.26069   0.00000  Uiso   1.00
C136   C     0.88168   0.25344   0.47464   0.00000  Uiso   1.00
C137   C     0.78499   0.07989   0.02536   0.00000  Uiso   1.00
C138   C     0.85665   0.31872   0.24703   0.00000  Uiso   1.00
C139   C     0.81002   0.01461   0.25298   0.00000  Uiso   1.00
C140   C     0.83396   0.16618   0.33629   0.00000  Uiso   1.00
C141   C     0.83270   0.16715   0.16371   0.00000  Uiso   1.00
C142   C     0.80902   0.12523   0.09460   0.00000  Uiso   1.00
Cl143  Cl    0.87783   0.26776   0.12373   0.00000  Uiso   1.00
Cl144  Cl    0.78884   0.06557   0.37626   0.00000  Uiso   1.00
H145   H     0.79463   0.09207   0.11470   0.00000  Uiso   1.00
H146   H     0.68252   0.28675   0.23464   0.00000  Uiso   1.00
H147   H     0.87203   0.24126   0.38530   0.00000  Uiso   1.00
H148   H     0.89563   0.28835   0.03839   0.00000  Uiso   1.00
H149   H     0.77104   0.04498   0.46160   0.00000  Uiso   1.00
H150   H     0.67131   0.12816   0.21607   0.00000  Uiso   1.00
H151   H     0.99535   0.20517   0.28393   0.00000  Uiso   1.00
H152   H     0.96960   0.32556   0.40199   0.00000  Uiso   1.00
H153   H     0.69706   0.00777   0.09801   0.00000  Uiso   1.00
H154   H     0.98415   0.04658   0.26538   0.00000  Uiso   1.00
N155   N     0.98344   0.15265   0.23783   0.00000  Uiso   1.00
N156   N     0.68322   0.18068   0.26217   0.00000  Uiso   1.00
O157   O     0.79642   0.24619   0.25298   0.00000  Uiso   1.00
O158   O     0.95195   0.29187   0.41478   0.00000  Uiso   1.00
O159   O     0.76469   0.32482   0.03556   0.00000  Uiso   1.00
O160   O     0.71471   0.04146   0.08522   0.00000  Uiso   1.00
O161   O     0.94103   0.00639   0.20115   0.00000  Uiso   1.00
O162   O     0.94672   0.02666   0.27556   0.00000  Uiso   1.00
O163   O     0.72564   0.32694   0.29886   0.00000  Uiso   1.00
O164   O     0.71995   0.30668   0.22445   0.00000  Uiso   1.00
O165   O     0.87025   0.08714   0.24701   0.00000  Uiso   1.00
O166   O     0.89280   0.23721   0.24518   0.00000  Uiso   1.00
O167   O     0.77387   0.09613   0.25481   0.00000  Uiso   1.00
O168   O     0.78514   0.17117   0.31997   0.00000  Uiso   1.00
O169   O     0.88153   0.16216   0.18002   0.00000  Uiso   1.00
O170   O     0.88152   0.16219   0.31217   0.00000  Uiso   1.00
O171   O     0.78515   0.17115   0.18782   0.00000  Uiso   1.00
O172   O     0.90197   0.00851   0.46444   0.00000  Uiso   1.00
Zn173  Zn    0.76898   0.17266   0.25521   0.00000  Uiso   1.00
Zn174  Zn    0.89769   0.16067   0.24479   0.00000  Uiso   1.00
C175   C     0.18190   0.59800   0.24852   0.00000  Uiso   1.00
C176   C     0.19098   0.54144   0.40539   0.00000  Uiso   1.00
C177   C     0.16457   0.50211   0.11625   0.00000  Uiso   1.00
C178   C     0.16876   0.49789   0.38375   0.00000  Uiso   1.00
C179   C     0.18608   0.54604   0.09312   0.00000  Uiso   1.00
C180   C     0.14726   0.45396   0.40688   0.00000  Uiso   1.00
C181   C     0.18737   0.54531   0.04615   0.00000  Uiso   1.00
C182   C     0.14597   0.45469   0.45385   0.00000  Uiso   1.00
C183   C     0.16539   0.50065   0.02353   0.00000  Uiso   1.00
C184   C     0.16794   0.49935   0.47647   0.00000  Uiso   1.00
C185   C     0.14107   0.45728   0.04805   0.00000  Uiso   1.00
C186   C     0.15143   0.40200   0.25148   0.00000  Uiso   1.00
C187   C     0.19227   0.54272   0.45195   0.00000  Uiso   1.00
C188   C     0.21128   0.58774   0.02149   0.00000  Uiso   1.00
C189   C     0.12205   0.41226   0.47851   0.00000  Uiso   1.00
C190   C     0.24467   0.63195   0.45098   0.00000  Uiso   1.00
C191   C     0.08866   0.36805   0.04902   0.00000  Uiso   1.00
C192   C     0.25108   0.33894   0.23932   0.00000  Uiso   1.00
C193   C     0.08226   0.66106   0.26069   0.00000  Uiso   1.00
C194   C     0.21501   0.58678   0.47464   0.00000  Uiso   1.00
C195   C     0.11832   0.41322   0.02536   0.00000  Uiso   1.00
C196   C     0.18998   0.65206   0.24703   0.00000  Uiso   1.00
C197   C     0.14335   0.34795   0.25298   0.00000  Uiso   1.00
C198   C     0.16730   0.49952   0.33629   0.00000  Uiso   1.00
C199   C     0.16604   0.50048   0.16371   0.00000  Uiso   1.00
C200   C     0.14235   0.45856   0.09460   0.00000  Uiso   1.00
Cl201  Cl    0.21116   0.60110   0.12373   0.00000  Uiso   1.00
Cl202  Cl    0.12217   0.39890   0.37626   0.00000  Uiso   1.00
H203   H     0.12797   0.42541   0.11470   0.00000  Uiso   1.00
H204   H     0.01586   0.62008   0.23464   0.00000  Uiso   1.00
H205   H     0.20537   0.57459   0.38530   0.00000  Uiso   1.00
H206   H     0.22896   0.62169   0.03839   0.00000  Uiso   1.00
H207   H     0.10438   0.37831   0.46160   0.00000  Uiso   1.00
H208   H     0.00465   0.46149   0.21607   0.00000  Uiso   1.00
H209   H     0.32869   0.53851   0.28393   0.00000  Uiso   1.00
H210   H     0.30294   0.65889   0.40199   0.00000  Uiso   1.00
H211   H     0.03040   0.34111   0.09801   0.00000  Uiso   1.00
H212   H     0.31748   0.37992   0.26538   0.00000  Uiso   1.00
N213   N     0.31678   0.48598   0.23783   0.00000  Uiso   1.00
N214   N     0.01656   0.51402   0.26217   0.00000  Uiso   1.00
O215   O     0.12975   0.57952   0.25298   0.00000  Uiso   1.00
O216   O     0.28529   0.62520   0.41478   0.00000  Uiso   1.00
O217   O     0.09803   0.65815   0.03556   0.00000  Uiso   1.00
O218   O     0.04805   0.37480   0.08522   0.00000  Uiso   1.00
O219   O     0.27436   0.33972   0.20115   0.00000  Uiso   1.00
O220   O     0.28005   0.35999   0.27556   0.00000  Uiso   1.00
O221   O     0.05898   0.66027   0.29886   0.00000  Uiso   1.00
O222   O     0.05328   0.64002   0.22445   0.00000  Uiso   1.00
O223   O     0.20358   0.42048   0.24701   0.00000  Uiso   1.00
O224   O     0.22613   0.57054   0.24518   0.00000  Uiso   1.00
O225   O     0.10720   0.42946   0.25481   0.00000  Uiso   1.00
O226   O     0.11847   0.50450   0.31997   0.00000  Uiso   1.00
O227   O     0.21486   0.49550   0.18002   0.00000  Uiso   1.00
O228   O     0.21485   0.49552   0.31217   0.00000  Uiso   1.00
O229   O     0.11848   0.50448   0.18782   0.00000  Uiso   1.00
O230   O     0.23531   0.34185   0.46444   0.00000  Uiso   1.00
Zn231  Zn    0.10231   0.50600   0.25521   0.00000  Uiso   1.00
Zn232  Zn    0.23102   0.49400   0.24479   0.00000  Uiso   1.00
C233   C     0.51524   0.59800   0.24852   0.00000  Uiso   1.00
C234   C     0.52431   0.54144   0.40539   0.00000  Uiso   1.00
C235   C     0.49791   0.50211   0.11625   0.00000  Uiso   1.00
C236   C     0.50209   0.49789   0.38375   0.00000  Uiso   1.00
C237   C     0.51941   0.54604   0.09312   0.00000  Uiso   1.00
C238   C     0.48059   0.45396   0.40688   0.00000  Uiso   1.00
C239   C     0.52070   0.54531   0.04615   0.00000  Uiso   1.00
C240   C     0.47930   0.45469   0.45385   0.00000  Uiso   1.00
C241   C     0.49872   0.50065   0.02353   0.00000  Uiso   1.00
C242   C     0.50128   0.49935   0.47647   0.00000  Uiso   1.00
C243   C     0.47440   0.45728   0.04805   0.00000  Uiso   1.00
C244   C     0.48476   0.40200   0.25148   0.00000  Uiso   1.00
C245   C     0.52560   0.54272   0.45195   0.00000  Uiso   1.00
C246   C     0.54461   0.58774   0.02149   0.00000  Uiso   1.00
C247   C     0.45539   0.41226   0.47851   0.00000  Uiso   1.00
C248   C     0.57801   0.63195   0.45098   0.00000  Uiso   1.00
C249   C     0.42199   0.36805   0.04902   0.00000  Uiso   1.00
C250   C     0.58441   0.33894   0.23932   0.00000  Uiso   1.00
C251   C     0.41559   0.66106   0.26069   0.00000  Uiso   1.00
C252   C     0.54834   0.58678   0.47464   0.00000  Uiso   1.00
C253   C     0.45166   0.41322   0.02536   0.00000  Uiso   1.00
C254   C     0.52331   0.65206   0.24703   0.00000  Uiso   1.00
C255   C     0.47669   0.34795   0.25298   0.00000  Uiso   1.00
C256   C     0.50063   0.49952   0.33629   0.00000  Uiso   1.00
C257   C     0.49937   0.50048   0.16371   0.00000  Uiso   1.00
C258   C     0.47569   0.45856   0.09460   0.00000  Uiso   1.00
Cl259  Cl    0.54449   0.60110   0.12373   0.00000  Uiso   1.00
Cl260  Cl    0.45551   0.39890   0.37626   0.00000  Uiso   1.00
H261   H     0.46130   0.42541   0.11470   0.00000  Uiso   1.00
H262   H     0.34919   0.62008   0.23464   0.00000  Uiso   1.00
H263   H     0.53870   0.57459   0.38530   0.00000  Uiso   1.00
H264   H     0.56229   0.62169   0.03839   0.00000  Uiso   1.00
H265   H     0.43771   0.37831   0.46160   0.00000  Uiso   1.00
H266   H     0.33798   0.46149   0.21607   0.00000  Uiso   1.00
H267   H     0.66202   0.53851   0.28393   0.00000  Uiso   1.00
H268   H     0.63627   0.65889   0.40199   0.00000  Uiso   1.00
H269   H     0.36373   0.34111   0.09801   0.00000  Uiso   1.00
H270   H     0.65081   0.37992   0.26538   0.00000  Uiso   1.00
N271   N     0.65011   0.48598   0.23783   0.00000  Uiso   1.00
N272   N     0.34989   0.51402   0.26217   0.00000  Uiso   1.00
O273   O     0.46308   0.57952   0.25298   0.00000  Uiso   1.00
O274   O     0.61862   0.62520   0.41478   0.00000  Uiso   1.00
O275   O     0.43136   0.65815   0.03556   0.00000  Uiso   1.00
O276   O     0.38138   0.37480   0.08522   0.00000  Uiso   1.00
O277   O     0.60770   0.33972   0.20115   0.00000  Uiso   1.00
O278   O     0.61339   0.35999   0.27556   0.00000  Uiso   1.00
O279   O     0.39231   0.66027   0.29886   0.00000  Uiso   1.00
O280   O     0.38661   0.64002   0.22445   0.00000  Uiso   1.00
O281   O     0.53692   0.42048   0.24701   0.00000  Uiso   1.00
O282   O     0.55946   0.57054   0.24518   0.00000  Uiso   1.00
O283   O     0.44054   0.42946   0.25481   0.00000  Uiso   1.00
O284   O     0.45181   0.50450   0.31997   0.00000  Uiso   1.00
O285   O     0.54819   0.49550   0.18002   0.00000  Uiso   1.00
O286   O     0.54819   0.49552   0.31217   0.00000  Uiso   1.00
O287   O     0.45181   0.50448   0.18782   0.00000  Uiso   1.00
O288   O     0.56864   0.34185   0.46444   0.00000  Uiso   1.00
Zn289  Zn    0.43565   0.50600   0.25521   0.00000  Uiso   1.00
Zn290  Zn    0.56435   0.49400   0.24479   0.00000  Uiso   1.00
C291   C     0.84857   0.59800   0.24852   0.00000  Uiso   1.00
C292   C     0.85765   0.54144   0.40539   0.00000  Uiso   1.00
C293   C     0.83124   0.50211   0.11625   0.00000  Uiso   1.00
C294   C     0.83543   0.49789   0.38375   0.00000  Uiso   1.00
C295   C     0.85274   0.54604   0.09312   0.00000  Uiso   1.00
C296   C     0.81392   0.45396   0.40688   0.00000  Uiso   1.00
C297   C     0.85403   0.54531   0.04615   0.00000  Uiso   1.00
C298   C     0.81263   0.45469   0.45385   0.00000  Uiso   1.00
C299   C     0.83206   0.50065   0.02353   0.00000  Uiso   1.00
C300   C     0.83461   0.49935   0.47647   0.00000  Uiso   1.00
C301   C     0.80773   0.45728   0.04805   0.00000  Uiso   1.00
C302   C     0.81810   0.40200   0.25148   0.00000  Uiso   1.00
C303   C     0.85893   0.54272   0.45195   0.00000  Uiso   1.00
C304   C     0.87795   0.58774   0.02149   0.00000  Uiso   1.00
C305   C     0.78872   0.41226   0.47851   0.00000  Uiso   1.00
C306   C     0.91134   0.63195   0.45098   0.00000  Uiso   1.00
C307   C     0.75533   0.36805   0.04902   0.00000  Uiso   1.00
C308   C     0.91774   0.33894   0.23932   0.00000  Uiso   1.00
C309   C     0.74892   0.66106   0.26069   0.00000  Uiso   1.00
C310   C     0.88168   0.58678   0.47464   0.00000  Uiso   1.00
C311   C     0.78499   0.41322   0.02536   0.00000  Uiso   1.00
C312   C     0.85665   0.65206   0.24703   0.00000  Uiso   1.00
C313   C     0.81002   0.34795   0.25298   0.00000  Uiso   1.00
C314   C     0.83396   0.49952   0.33629   0.00000  Uiso   1.00
C315   C     0.83270   0.50048   0.16371   0.00000  Uiso   1.00
C316   C     0.80902   0.45856   0.09460   0.00000  Uiso   1.00
Cl317  Cl    0.87783   0.60110   0.12373   0.00000  Uiso   1.00
Cl318  Cl    0.78884   0.39890   0.37626   0.00000  Uiso   1.00
H319   H     0.79463   0.42541   0.11470   0.00000  Uiso   1.00
H320   H     0.68252   0.62008   0.23464   0.00000  Uiso   1.00
H321   H     0.87203   0.57459   0.38530   0.00000  Uiso   1.00
H322   H     0.89563   0.62169   0.03839   0.00000  Uiso   1.00
H323   H     0.77104   0.37831   0.46160   0.00000  Uiso   1.00
H324   H     0.67131   0.46149   0.21607   0.00000  Uiso   1.00
H325   H     0.99535   0.53851   0.28393   0.00000  Uiso   1.00
H326   H     0.96960   0.65889   0.40199   0.00000  Uiso   1.00
H327   H     0.69706   0.34111   0.09801   0.00000  Uiso   1.00
H328   H     0.98415   0.37992   0.26538   0.00000  Uiso   1.00
N329   N     0.98344   0.48598   0.23783   0.00000  Uiso   1.00
N330   N     0.68322   0.51402   0.26217   0.00000  Uiso   1.00
O331   O     0.79642   0.57952   0.25298   0.00000  Uiso   1.00
O332   O     0.95195   0.62520   0.41478   0.00000  Uiso   1.00
O333   O     0.76469   0.65815   0.03556   0.00000  Uiso   1.00
O334   O     0.71471   0.37480   0.08522   0.00000  Uiso   1.00
O335   O     0.94103   0.33972   0.20115   0.00000  Uiso   1.00
O336   O     0.94672   0.35999   0.27556   0.00000  Uiso   1.00
O337   O     0.72564   0.66027   0.29886   0.00000  Uiso   1.00
O338   O     0.71995   0.64002   0.22445   0.00000  Uiso   1.00
O339   O     0.87025   0.42048   0.24701   0.00000  Uiso   1.00
O340   O     0.89280   0.57054   0.24518   0.00000  Uiso   1.00
O341   O     0.77387   0.42946   0.25481   0.00000  Uiso   1.00
O342   O     0.78514   0.50450   0.31997   0.00000  Uiso   1.00
O343   O     0.88153   0.49550   0.18002   0.00000  Uiso   1.00
O344   O     0.88152   0.49552   0.31217   0.00000  Uiso   1.00
O345   O     0.78515   0.50448   0.18782   0.00000  Uiso   1.00
O346   O     0.90197   0.34185   0.46444   0.00000  Uiso   1.00
Zn347  Zn    0.76898   0.50600   0.25521   0.00000  Uiso   1.00
Zn348  Zn    0.89769   0.49400   0.24479   0.00000  Uiso   1.00
C349   C     0.18190   0.93133   0.24852   0.00000  Uiso   1.00
C350   C     0.19098   0.87477   0.40539   0.00000  Uiso   1.00
C351   C     0.16457   0.83545   0.11625   0.00000  Uiso   1.00
C352   C     0.16876   0.83122   0.38375   0.00000  Uiso   1.00
C353   C     0.18608   0.87937   0.09312   0.00000  Uiso   1.00
C354   C     0.14726   0.78730   0.40688   0.00000  Uiso   1.00
C355   C     0.18737   0.87864   0.04615   0.00000  Uiso   1.00
C356   C     0.14597   0.78802   0.45385   0.00000  Uiso   1.00
C357   C     0.16539   0.83398   0.02353   0.00000  Uiso   1.00
C358   C     0.16794   0.83268   0.47647   0.00000  Uiso   1.00
C359   C     0.14107   0.79061   0.04805   0.00000  Uiso   1.00
C360   C     0.15143   0.73534   0.25148   0.00000  Uiso   1.00
C361   C     0.19227   0.87605   0.45195   0.00000  Uiso   1.00
C362   C     0.21128   0.92108   0.02149   0.00000  Uiso   1.00
C363   C     0.12205   0.74559   0.47851   0.00000  Uiso   1.00
C364   C     0.24467   0.96528   0.45098   0.00000  Uiso   1.00
C365   C     0.08866   0.70138   0.04902   0.00000  Uiso   1.00
C366   C     0.25108   0.67227   0.23932   0.00000  Uiso   1.00
C367   C     0.08226   0.99439   0.26069   0.00000  Uiso   1.00
C368   C     0.21501   0.92011   0.47464   0.00000  Uiso   1.00
C369   C     0.11832   0.74656   0.02536   0.00000  Uiso   1.00
C370   C     0.18998   0.98539   0.24703   0.00000  Uiso   1.00
C371   C     0.14335   0.68128   0.25298   0.00000  Uiso   1.00
C372   C     0.16730   0.83285   0.33629   0.00000  Uiso   1.00
C373   C     0.16604   0.83382   0.16371   0.00000  Uiso   1.00
C374   C     0.14235   0.79189   0.09460   0.00000  Uiso   1.00
Cl375  Cl    0.21116   0.93443   0.12373   0.00000  Uiso   1.00
Cl376  Cl    0.12217   0.73224   0.37626   0.00000  Uiso   1.00
H377   H     0.12797   0.75874   0.11470   0.00000  Uiso   1.00
H378   H     0.01586   0.95342   0.23464   0.00000  Uiso   1.00
H379   H     0.20537   0.90793   0.38530   0.00000  Uiso   1.00
H380   H     0.22896   0.95502   0.03839   0.00000  Uiso   1.00
H381   H     0.10438   0.71165   0.46160   0.00000  Uiso   1.00
H382   H     0.00465   0.79483   0.21607   0.00000  Uiso   1.00
H383   H     0.32869   0.87184   0.28393   0.00000  Uiso   1.00
H384   H     0.30294   0.99223   0.40199   0.00000  Uiso   1.00
H385   H     0.03040   0.67444   0.09801   0.00000  Uiso   1.00
H386   H     0.31748   0.71325   0.26538   0.00000  Uiso   1.00
N387   N     0.31678   0.81932   0.23783   0.00000  Uiso   1.00
N388   N     0.01656   0.84735   0.26217   0.00000  Uiso   1.00
O389   O     0.12975   0.91286   0.25298   0.00000  Uiso   1.00
O390   O     0.28529   0.95854   0.41478   0.00000  Uiso   1.00
O391   O     0.09803   0.99149   0.03556   0.00000  Uiso   1.00
O392   O     0.04805   0.70813   0.08522   0.00000  Uiso   1.00
O393   O     0.27436   0.67306   0.20115   0.00000  Uiso   1.00
O394   O     0.28005   0.69333   0.27556   0.00000  Uiso   1.00
O395   O     0.05898   0.99360   0.29886   0.00000  Uiso   1.00
O396   O     0.05328   0.97335   0.22445   0.00000  Uiso   1.00
O397   O     0.20358   0.75381   0.24701   0.00000  Uiso   1.00
O398   O     0.22613   0.90387   0.24518   0.00000  Uiso   1.00
O399   O     0.10720   0.76279   0.25481   0.00000  Uiso   1.00
O400   O     0.11847   0.83784   0.31997   0.00000  Uiso   1.00
O401   O     0.21486   0.82883   0.18002   0.00000  Uiso   1.00
O402   O     0.21485   0.82885   0.31217   0.00000  Uiso   1.00
O403   O     0.11848   0.83781   0.18782   0.00000  Uiso   1.00
O404   O     0.23531   0.67518   0.46444   0.00000  Uiso   1.00
Zn405  Zn    0.10231   0.83933   0.25521   0.00000  Uiso   1.00
Zn406  Zn    0.23102   0.82734   0.24479   0.00000  Uiso   1.00
C407   C     0.51524   0.93133   0.24852   0.00000  Uiso   1.00
C408   C     0.52431   0.87477   0.40539   0.00000  Uiso   1.00
C409   C     0.49791   0.83545   0.11625   0.00000  Uiso   1.00
C410   C     0.50209   0.83122   0.38375   0.00000  Uiso   1.00
C411   C     0.51941   0.87937   0.09312   0.00000  Uiso   1.00
C412   C     0.48059   0.78730   0.40688   0.00000  Uiso   1.00
C413   C     0.52070   0.87864   0.04615   0.00000  Uiso   1.00
C414   C     0.47930   0.78802   0.45385   0.00000  Uiso   1.00
C415   C     0.49872   0.83398   0.02353   0.00000  Uiso   1.00
C416   C     0.50128   0.83268   0.47647   0.00000  Uiso   1.00
C417   C     0.47440   0.79061   0.04805   0.00000  Uiso   1.00
C418   C     0.48476   0.73534   0.25148   0.00000  Uiso   1.00
C419   C     0.52560   0.87605   0.45195   0.00000  Uiso   1.00
C420   C     0.54461   0.92108   0.02149   0.00000  Uiso   1.00
C421   C     0.45539   0.74559   0.47851   0.00000  Uiso   1.00
C422   C     0.57801   0.96528   0.45098   0.00000  Uiso   1.00
C423   C     0.42199   0.70138   0.04902   0.00000  Uiso   1.00
C424   C     0.58441   0.67227   0.23932   0.00000  Uiso   1.00
C425   C     0.41559   0.99439   0.26069   0.00000  Uiso   1.00
C426   C     0.54834   0.92011   0.47464   0.00000  Uiso   1.00
C427   C     0.45166   0.74656   0.02536   0.00000  Uiso   1.00
C428   C     0.52331   0.98539   0.24703   0.00000  Uiso   1.00
C429   C     0.47669   0.68128   0.25298   0.00000  Uiso   1.00
C430   C     0.50063   0.83285   0.33629   0.00000  Uiso   1.00
C431   C     0.49937   0.83382   0.16371   0.00000  Uiso   1.00
C432   C     0.47569   0.79189   0.09460   0.00000  Uiso   1.00
Cl433  Cl    0.54449   0.93443   0.12373   0.00000  Uiso   1.00
Cl434  Cl    0.45551   0.73224   0.37626   0.00000  Uiso   1.00
H435   H     0.46130   0.75874   0.11470   0.00000  Uiso   1.00
H436   H     0.34919   0.95342   0.23464   0.00000  Uiso   1.00
H437   H     0.53870   0.90793   0.38530   0.00000  Uiso   1.00
H438   H     0.56229   0.95502   0.03839   0.00000  Uiso   1.00
H439   H     0.43771   0.71165   0.46160   0.00000  Uiso   1.00
H440   H     0.33798   0.79483   0.21607   0.00000  Uiso   1.00
H441   H     0.66202   0.87184   0.28393   0.00000  Uiso   1.00
H442   H     0.63627   0.99223   0.40199   0.00000  Uiso   1.00
H443   H     0.36373   0.67444   0.09801   0.00000  Uiso   1.00
H444   H     0.65081   0.71325   0.26538   0.00000  Uiso   1.00
N445   N     0.65011   0.81932   0.23783   0.00000  Uiso   1.00
N446   N     0.34989   0.84735   0.26217   0.00000  Uiso   1.00
O447   O     0.46308   0.91286   0.25298   0.00000  Uiso   1.00
O448   O     0.61862   0.95854   0.41478   0.00000  Uiso   1.00
O449   O     0.43136   0.99149   0.03556   0.00000  Uiso   1.00
O450   O     0.38138   0.70813   0.08522   0.00000  Uiso   1.00
O451   O     0.60770   0.67306   0.20115   0.00000  Uiso   1.00
O452   O     0.61339   0.69333   0.27556   0.00000  Uiso   1.00
O453   O     0.39231   0.99360   0.29886   0.00000  Uiso   1.00
O454   O     0.38661   0.97335   0.22445   0.00000  Uiso   1.00
O455   O     0.53692   0.75381   0.24701   0.00000  Uiso   1.00
O456   O     0.55946   0.90387   0.24518   0.00000  Uiso   1.00
O457   O     0.44054   0.76279   0.25481   0.00000  Uiso   1.00
O458   O     0.45181   0.83784   0.31997   0.00000  Uiso   1.00
O459   O     0.54819   0.82883   0.18002   0.00000  Uiso   1.00
O460   O     0.54819   0.82885   0.31217   0.00000  Uiso   1.00
O461   O     0.45181   0.83781   0.18782   0.00000  Uiso   1.00
O462   O     0.56864   0.67518   0.46444   0.00000  Uiso   1.00
Zn463  Zn    0.43565   0.83933   0.25521   0.00000  Uiso   1.00
Zn464  Zn    0.56435   0.82734   0.24479   0.00000  Uiso   1.00
C465   C     0.84857   0.93133   0.24852   0.00000  Uiso   1.00
C466   C     0.85765   0.87477   0.40539   0.00000  Uiso   1.00
C467   C     0.83124   0.83545   0.11625   0.00000  Uiso   1.00
C468   C     0.83543   0.83122   0.38375   0.00000  Uiso   1.00
C469   C     0.85274   0.87937   0.09312   0.00000  Uiso   1.00
C470   C     0.81392   0.78730   0.40688   0.00000  Uiso   1.00
C471   C     0.85403   0.87864   0.04615   0.00000  Uiso   1.00
C472   C     0.81263   0.78802   0.45385   0.00000  Uiso   1.00
C473   C     0.83206   0.83398   0.02353   0.00000  Uiso   1.00
C474   C     0.83461   0.83268   0.47647   0.00000  Uiso   1.00
C475   C     0.80773   0.79061   0.04805   0.00000  Uiso   1.00
C476   C     0.81810   0.73534   0.25148   0.00000  Uiso   1.00
C477   C     0.85893   0.87605   0.45195   0.00000  Uiso   1.00
C478   C     0.87795   0.92108   0.02149   0.00000  Uiso   1.00
C479   C     0.78872   0.74559   0.47851   0.00000  Uiso   1.00
C480   C     0.91134   0.96528   0.45098   0.00000  Uiso   1.00
C481   C     0.75533   0.70138   0.04902   0.00000  Uiso   1.00
C482   C     0.91774   0.67227   0.23932   0.00000  Uiso   1.00
C483   C     0.74892   0.99439   0.26069   0.00000  Uiso   1.00
C484   C     0.88168   0.92011   0.47464   0.00000  Uiso   1.00
C485   C     0.78499   0.74656   0.02536   0.00000  Uiso   1.00
C486   C     0.85665   0.98539   0.24703   0.00000  Uiso   1.00
C487   C     0.81002   0.68128   0.25298   0.00000  Uiso   1.00
C488   C     0.83396   0.83285   0.33629   0.00000  Uiso   1.00
C489   C     0.83270   0.83382   0.16371   0.00000  Uiso   1.00
C490   C     0.80902   0.79189   0.09460   0.00000  Uiso   1.00
Cl491  Cl    0.87783   0.93443   0.12373   0.00000  Uiso   1.00
Cl492  Cl    0.78884   0.73224   0.37626   0.00000  Uiso   1.00
H493   H     0.79463   0.75874   0.11470   0.00000  Uiso   1.00
H494   H     0.68252   0.95342   0.23464   0.00000  Uiso   1.00
H495   H     0.87203   0.90793   0.38530   0.00000  Uiso   1.00
H496   H     0.89563   0.95502   0.03839   0.00000  Uiso   1.00
H497   H     0.77104   0.71165   0.46160   0.00000  Uiso   1.00
H498   H     0.67131   0.79483   0.21607   0.00000  Uiso   1.00
H499   H     0.99535   0.87184   0.28393   0.00000  Uiso   1.00
H500   H     0.96960   0.99223   0.40199   0.00000  Uiso   1.00
H501   H     0.69706   0.67444   0.09801   0.00000  Uiso   1.00
H502   H     0.98415   0.71325   0.26538   0.00000  Uiso   1.00
N503   N     0.98344   0.81932   0.23783   0.00000  Uiso   1.00
N504   N     0.68322   0.84735   0.26217   0.00000  Uiso   1.00
O505   O     0.79642   0.91286   0.25298   0.00000  Uiso   1.00
O506   O     0.95195   0.95854   0.41478   0.00000  Uiso   1.00
O507   O     0.76469   0.99149   0.03556   0.00000  Uiso   1.00
O508   O     0.71471   0.70813   0.08522   0.00000  Uiso   1.00
O509   O     0.94103   0.67306   0.20115   0.00000  Uiso   1.00
O510   O     0.94672   0.69333   0.27556   0.00000  Uiso   1.00
O511   O     0.72564   0.99360   0.29886   0.00000  Uiso   1.00
O512   O     0.71995   0.97335   0.22445   0.00000  Uiso   1.00
O513   O     0.87025   0.75381   0.24701   0.00000  Uiso   1.00
O514   O     0.89280   0.90387   0.24518   0.00000  Uiso   1.00
O515   O     0.77387   0.76279   0.25481   0.00000  Uiso   1.00
O516   O     0.78514   0.83784   0.31997   0.00000  Uiso   1.00
O517   O     0.88153   0.82883   0.18002   0.00000  Uiso   1.00
O518   O     0.88152   0.82885   0.31217   0.00000  Uiso   1.00
O519   O     0.78515   0.83781   0.18782   0.00000  Uiso   1.00
O520   O     0.90197   0.67518   0.46444   0.00000  Uiso   1.00
Zn521  Zn    0.76898   0.83933   0.25521   0.00000  Uiso   1.00
Zn522  Zn    0.89769   0.82734   0.24479   0.00000  Uiso   1.00
C523   C     0.18190   0.26466   0.74852   0.00000  Uiso   1.00
C524   C     0.19098   0.20811   0.90539   0.00000  Uiso   1.00
C525   C     0.16457   0.16878   0.61625   0.00000  Uiso   1.00
C526   C     0.16876   0.16455   0.88375   0.00000  Uiso   1.00
C527   C     0.18608   0.21270   0.59312   0.00000  Uiso   1.00
C528   C     0.14726   0.12063   0.90688   0.00000  Uiso   1.00
C529   C     0.18737   0.21198   0.54615   0.00000  Uiso   1.00
C530   C     0.14597   0.12136   0.95385   0.00000  Uiso   1.00
C531   C     0.16539   0.16732   0.52353   0.00000  Uiso   1.00
C532   C     0.16794   0.16602   0.97647   0.00000  Uiso   1.00
C533   C     0.14107   0.12395   0.54805   0.00000  Uiso   1.00
C534   C     0.15143   0.06867   0.75148   0.00000  Uiso   1.00
C535   C     0.19227   0.20939   0.95195   0.00000  Uiso   1.00
C536   C     0.21128   0.25441   0.52149   0.00000  Uiso   1.00
C537   C     0.12205   0.07892   0.97851   0.00000  Uiso   1.00
C538   C     0.24467   0.29862   0.95098   0.00000  Uiso   1.00
C539   C     0.08866   0.03472   0.54902   0.00000  Uiso   1.00
C540   C     0.25108   0.00561   0.73932   0.00000  Uiso   1.00
C541   C     0.08226   0.32773   0.76069   0.00000  Uiso   1.00
C542   C     0.21501   0.25344   0.97464   0.00000  Uiso   1.00
C543   C     0.11832   0.07989   0.52536   0.00000  Uiso   1.00
C544   C     0.18998   0.31872   0.74703   0.00000  Uiso   1.00
C545   C     0.14335   0.01461   0.75298   0.00000  Uiso   1.00
C546   C     0.16730   0.16618   0.83629   0.00000  Uiso   1.00
C547   C     0.16604   0.16715   0.66371   0.00000  Uiso   1.00
C548   C     0.14235   0.12523   0.59460   0.00000  Uiso   1.00
Cl549  Cl    0.21116   0.26776   0.62373   0.00000  Uiso   1.00
Cl550  Cl    0.12217   0.06557   0.87626   0.00000  Uiso   1.00
H551   H     0.12797   0.09207   0.61470   0.00000  Uiso   1.00
H552   H     0.01586   0.28675   0.73464   0.00000  Uiso   1.00
H553   H     0.20537   0.24126   0.88530   0.00000  Uiso   1.00
H554   H     0.22896   0.28835   0.53839   0.00000  Uiso   1.00
H555   H     0.10438   0.04498   0.96160   0.00000  Uiso   1.00
H556   H     0.00465   0.12816   0.71607   0.00000  Uiso   1.00
H557   H     0.32869   0.20517   0.78393   0.00000  Uiso   1.00
H558   H     0.30294   0.32556   0.90199   0.00000  Uiso   1.00
H559   H     0.03040   0.00777   0.59801   0.00000  Uiso   1.00
H560   H     0.31748   0.04658   0.76538   0.00000  Uiso   1.00
N561   N     0.31678   0.15265   0.73783   0.00000  Uiso   1.00
N562   N     0.01656   0.18068   0.76217   0.00000  Uiso   1.00
O563   O     0.12975   0.24619   0.75298   0.00000  Uiso   1.00
O564   O     0.28529   0.29187   0.91478   0.00000  Uiso   1.00
O565   O     0.09803   0.32482   0.53556   0.00000  Uiso   1.00
O566   O     0.04805   0.04146   0.58522   0.00000  Uiso   1.00
O567   O     0.27436   0.00639   0.70115   0.00000  Uiso   1.00
O568   O     0.28005   0.02666   0.77556   0.00000  Uiso   1.00
O569   O     0.05898   0.32694   0.79886   0.00000  Uiso   1.00
O570   O     0.05328   0.30668   0.72445   0.00000  Uiso   1.00
O571   O     0.20358   0.08714   0.74701   0.00000  Uiso   1.00
O572   O     0.22613   0.23721   0.74518   0.00000  Uiso   1.00
O573   O     0.10720   0.09613   0.75481   0.00000  Uiso   1.00
O574   O     0.11847   0.17117   0.81997   0.00000  Uiso   1.00
O575   O     0.21486   0.16216   0.68002   0.00000  Uiso   1.00
O576   O     0.21485   0.16219   0.81217   0.00000  Uiso   1.00
O577   O     0.11848   0.17115   0.68782   0.00000  Uiso   1.00
O578   O     0.23531   0.00851   0.96444   0.00000  Uiso   1.00
Zn579  Zn    0.10231   0.17266   0.75521   0.00000  Uiso   1.00
Zn580  Zn    0.23102   0.16067   0.74479   0.00000  Uiso   1.00
C581   C     0.51524   0.26466   0.74852   0.00000  Uiso   1.00
C582   C     0.52431   0.20811   0.90539   0.00000  Uiso   1.00
C583   C     0.49791   0.16878   0.61625   0.00000  Uiso   1.00
C584   C     0.50209   0.16455   0.88375   0.00000  Uiso   1.00
C585   C     0.51941   0.21270   0.59312   0.00000  Uiso   1.00
C586   C     0.48059   0.12063   0.90688   0.00000  Uiso   1.00
C587   C     0.52070   0.21198   0.54615   0.00000  Uiso   1.00
C588   C     0.47930   0.12136   0.95385   0.00000  Uiso   1.00
C589   C     0.49872   0.16732   0.52353   0.00000  Uiso   1.00
C590   C     0.50128   0.16602   0.97647   0.00000  Uiso   1.00
C591   C     0.47440   0.12395   0.54805   0.00000  Uiso   1.00
C592   C     0.48476   0.06867   0.75148   0.00000  Uiso   1.00
C593   C     0.52560   0.20939   0.95195   0.00000  Uiso   1.00
C594   C     0.54461   0.25441   0.52149   0.00000  Uiso   1.00
C595   C     0.45539   0.07892   0.97851   0.00000  Uiso   1.00
C596   C     0.57801   0.29862   0.95098   0.00000  Uiso   1.00
C597   C     0.42199   0.03472   0.54902   0.00000  Uiso   1.00
C598   C     0.58441   0.00561   0.73932   0.00000  Uiso   1.00
C599   C     0.41559   0.32773   0.76069   0.00000  Uiso   1.00
C600   C     0.54834   0.25344   0.97464   0.00000  Uiso   1.00
C601   C     0.45166   0.07989   0.52536   0.00000  Uiso   1.00
C602   C     0.52331   0.31872   0.74703   0.00000  Uiso   1.00
C603   C     0.47669   0.01461   0.75298   0.00000  Uiso   1.00
C604   C     0.50063   0.16618   0.83629   0.00000  Uiso   1.00
C605   C     0.49937   0.16715   0.66371   0.00000  Uiso   1.00
C606   C     0.47569   0.12523   0.59460   0.00000  Uiso   1.00
Cl607  Cl    0.54449   0.26776   0.62373   0.00000  Uiso   1.00
Cl608  Cl    0.45551   0.06557   0.87626   0.00000  Uiso   1.00
H609   H     0.46130   0.09207   0.61470   0.00000  Uiso   1.00
H610   H     0.34919   0.28675   0.73464   0.00000  Uiso   1.00
H611   H     0.53870   0.24126   0.88530   0.00000  Uiso   1.00
H612   H     0.56229   0.28835   0.53839   0.00000  Uiso   1.00
H613   H     0.43771   0.04498   0.96160   0.00000  Uiso   1.00
H614   H     0.33798   0.12816   0.71607   0.00000  Uiso   1.00
H615   H     0.66202   0.20517   0.78393   0.00000  Uiso   1.00
H616   H     0.63627   0.32556   0.90199   0.00000  Uiso   1.00
H617   H     0.36373   0.00777   0.59801   0.00000  Uiso   1.00
H618   H     0.65081   0.04658   0.76538   0.00000  Uiso   1.00
N619   N     0.65011   0.15265   0.73783   0.00000  Uiso   1.00
N620   N     0.34989   0.18068   0.76217   0.00000  Uiso   1.00
O621   O     0.46308   0.24619   0.75298   0.00000  Uiso   1.00
O622   O     0.61862   0.29187   0.91478   0.00000  Uiso   1.00
O623   O     0.43136   0.32482   0.53556   0.00000  Uiso   1.00
O624   O     0.38138   0.04146   0.58522   0.00000  Uiso   1.00
O625   O     0.60770   0.00639   0.70115   0.00000  Uiso   1.00
O626   O     0.61339   0.02666   0.77556   0.00000  Uiso   1.00
O627   O     0.39231   0.32694   0.79886   0.00000  Uiso   1.00
O628   O     0.38661   0.30668   0.72445   0.00000  Uiso   1.00
O629   O     0.53692   0.08714   0.74701   0.00000  Uiso   1.00
O630   O     0.55946   0.23721   0.74518   0.00000  Uiso   1.00
O631   O     0.44054   0.09613   0.75481   0.00000  Uiso   1.00
O632   O     0.45181   0.17117   0.81997   0.00000  Uiso   1.00
O633   O     0.54819   0.16216   0.68002   0.00000  Uiso   1.00
O634   O     0.54819   0.16219   0.81217   0.00000  Uiso   1.00
O635   O     0.45181   0.17115   0.68782   0.00000  Uiso   1.00
O636   O     0.56864   0.00851   0.96444   0.00000  Uiso   1.00
Zn637  Zn    0.43565   0.17266   0.75521   0.00000  Uiso   1.00
Zn638  Zn    0.56435   0.16067   0.74479   0.00000  Uiso   1.00
C639   C     0.84857   0.26466   0.74852   0.00000  Uiso   1.00
C640   C     0.85765   0.20811   0.90539   0.00000  Uiso   1.00
C641   C     0.83124   0.16878   0.61625   0.00000  Uiso   1.00
C642   C     0.83543   0.16455   0.88375   0.00000  Uiso   1.00
C643   C     0.85274   0.21270   0.59312   0.00000  Uiso   1.00
C644   C     0.81392   0.12063   0.90688   0.00000  Uiso   1.00
C645   C     0.85403   0.21198   0.54615   0.00000  Uiso   1.00
C646   C     0.81263   0.12136   0.95385   0.00000  Uiso   1.00
C647   C     0.83206   0.16732   0.52353   0.00000  Uiso   1.00
C648   C     0.83461   0.16602   0.97647   0.00000  Uiso   1.00
C649   C     0.80773   0.12395   0.54805   0.00000  Uiso   1.00
C650   C     0.81810   0.06867   0.75148   0.00000  Uiso   1.00
C651   C     0.85893   0.20939   0.95195   0.00000  Uiso   1.00
C652   C     0.87795   0.25441   0.52149   0.00000  Uiso   1.00
C653   C     0.78872   0.07892   0.97851   0.00000  Uiso   1.00
C654   C     0.91134   0.29862   0.95098   0.00000  Uiso   1.00
C655   C     0.75533   0.03472   0.54902   0.00000  Uiso   1.00
C656   C     0.91774   0.00561   0.73932   0.00000  Uiso   1.00
C657   C     0.74892   0.32773   0.76069   0.00000  Uiso   1.00
C658   C     0.88168   0.25344   0.97464   0.00000  Uiso   1.00
C659   C     0.78499   0.07989   0.52536   0.00000  Uiso   1.00
C660   C     0.85665   0.31872   0.74703   0.00000  Uiso   1.00
C661   C     0.81002   0.01461   0.75298   0.00000  Uiso   1.00
C662   C     0.83396   0.16618   0.83629   0.00000  Uiso   1.00
C663   C     0.83270   0.16715   0.66371   0.00000  Uiso   1.00
C664   C     0.80902   0.12523   0.59460   0.00000  Uiso   1.00
Cl665  Cl    0.87783   0.26776   0.62373   0.00000  Uiso   1.00
Cl666  Cl    0.78884   0.06557   0.87626   0.00000  Uiso   1.00
H667   H     0.79463   0.09207   0.61470   0.00000  Uiso   1.00
H668   H     0.68252   0.28675   0.73464   0.00000  Uiso   1.00
H669   H     0.87203   0.24126   0.88530   0.00000  Uiso   1.00
H670   H     0.89563   0.28835   0.53839   0.00000  Uiso   1.00
H671   H     0.77104   0.04498   0.96160   0.00000  Uiso   1.00
H672   H     0.67131   0.12816   0.71607   0.00000  Uiso   1.00
H673   H     0.99535   0.20517   0.78393   0.00000  Uiso   1.00
H674   H     0.96960   0.32556   0.90199   0.00000  Uiso   1.00
H675   H     0.69706   0.00777   0.59801   0.00000  Uiso   1.00
H676   H     0.98415   0.04658   0.76538   0.00000  Uiso   1.00
N677   N     0.98344   0.15265   0.73783   0.00000  Uiso   1.00
N678   N     0.68322   0.18068   0.76217   0.00000  Uiso   1.00
O679   O     0.79642   0.24619   0.75298   0.00000  Uiso   1.00
O680   O     0.95195   0.29187   0.91478   0.00000  Uiso   1.00
O681   O     0.76469   0.32482   0.53556   0.00000  Uiso   1.00
O682   O     0.71471   0.04146   0.58522   0.00000  Uiso   1.00
O683   O     0.94103   0.00639   0.70115   0.00000  Uiso   1.00
O684   O     0.94672   0.02666   0.77556   0.00000  Uiso   1.00
O685   O     0.72564   0.32694   0.79886   0.00000  Uiso   1.00
O686   O     0.71995   0.30668   0.72445   0.00000  Uiso   1.00
O687   O     0.87025   0.08714   0.74701   0.00000  Uiso   1.00
O688   O     0.89280   0.23721   0.74518   0.00000  Uiso   1.00
O689   O     0.77387   0.09613   0.75481   0.00000  Uiso   1.00
O690   O     0.78514   0.17117   0.81997   0.00000  Uiso   1.00
O691   O     0.88153   0.16216   0.68002   0.00000  Uiso   1.00
O692   O     0.88152   0.16219   0.81217   0.00000  Uiso   1.00
O693   O     0.78515   0.17115   0.68782   0.00000  Uiso   1.00
O694   O     0.90197   0.00851   0.96444   0.00000  Uiso   1.00
Zn695  Zn    0.76898   0.17266   0.75521   0.00000  Uiso   1.00
Zn696  Zn    0.89769   0.16067   0.74479   0.00000  Uiso   1.00
C697   C     0.18190   0.59800   0.74852   0.00000  Uiso   1.00
C698   C     0.19098   0.54144   0.90539   0.00000  Uiso   1.00
C699   C     0.16457   0.50211   0.61625   0.00000  Uiso   1.00
C700   C     0.16876   0.49789   0.88375   0.00000  Uiso   1.00
C701   C     0.18608   0.54604   0.59312   0.00000  Uiso   1.00
C702   C     0.14726   0.45396   0.90688   0.00000  Uiso   1.00
C703   C     0.18737   0.54531   0.54615   0.00000  Uiso   1.00
C704   C     0.14597   0.45469   0.95385   0.00000  Uiso   1.00
C705   C     0.16539   0.50065   0.52353   0.00000  Uiso   1.00
C706   C     0.16794   0.49935   0.97647   0.00000  Uiso   1.00
C707   C     0.14107   0.45728   0.54805   0.00000  Uiso   1.00
C708   C     0.15143   0.40200   0.75148   0.00000  Uiso   1.00
C709   C     0.19227   0.54272   0.95195   0.00000  Uiso   1.00
C710   C     0.21128   0.58774   0.52149   0.00000  Uiso   1.00
C711   C     0.12205   0.41226   0.97851   0.00000  Uiso   1.00
C712   C     0.24467   0.63195   0.95098   0.00000  Uiso   1.00
C713   C     0.08866   0.36805   0.54902   0.00000  Uiso   1.00
C714   C     0.25108   0.33894   0.73932   0.00000  Uiso   1.00
C715   C     0.08226   0.66106   0.76069   0.00000  Uiso   1.00
C716   C     0.21501   0.58678   0.97464   0.00000  Uiso   1.00
C717   C     0.11832   0.41322   0.52536   0.00000  Uiso   1.00
C718   C     0.18998   0.65206   0.74703   0.00000  Uiso   1.00
C719   C     0.14335   0.34795   0.75298   0.00000  Uiso   1.00
C720   C     0.16730   0.49952   0.83629   0.00000  Uiso   1.00
C721   C     0.16604   0.50048   0.66371   0.00000  Uiso   1.00
C722   C     0.14235   0.45856   0.59460   0.00000  Uiso   1.00
Cl723  Cl    0.21116   0.60110   0.62373   0.00000  Uiso   1.00
Cl724  Cl    0.12217   0.39890   0.87626   0.00000  Uiso   1.00
H725   H     0.12797   0.42541   0.61470   0.00000  Uiso   1.00
H726   H     0.01586   0.62008   0.73464   0.00000  Uiso   1.00
H727   H     0.20537   0.57459   0.88530   0.00000  Uiso   1.00
H728   H     0.22896   0.62169   0.53839   0.00000  Uiso   1.00
H729   H     0.10438   0.37831   0.96160   0.00000  Uiso   1.00
H730   H     0.00465   0.46149   0.71607   0.00000  Uiso   1.00
H731   H     0.32869   0.53851   0.78393   0.00000  Uiso   1.00
H732   H     0.30294   0.65889   0.90199   0.00000  Uiso   1.00
H733   H     0.03040   0.34111   0.59801   0.00000  Uiso   1.00
H734   H     0.31748   0.37992   0.76538   0.00000  Uiso   1.00
N735   N     0.31678   0.48598   0.73783   0.00000  Uiso   1.00
N736   N     0.01656   0.51402   0.76217   0.00000  Uiso   1.00
O737   O     0.12975   0.57952   0.75298   0.00000  Uiso   1.00
O738   O     0.28529   0.62520   0.91478   0.00000  Uiso   1.00
O739   O     0.09803   0.65815   0.53556   0.00000  Uiso   1.00
O740   O     0.04805   0.37480   0.58522   0.00000  Uiso   1.00
O741   O     0.27436   0.33972   0.70115   0.00000  Uiso   1.00
O742   O     0.28005   0.35999   0.77556   0.00000  Uiso   1.00
O743   O     0.05898   0.66027   0.79886   0.00000  Uiso   1.00
O744   O     0.05328   0.64002   0.72445   0.00000  Uiso   1.00
O745   O     0.20358   0.42048   0.74701   0.00000  Uiso   1.00
O746   O     0.22613   0.57054   0.74518   0.00000  Uiso   1.00
O747   O     0.10720   0.42946   0.75481   0.00000  Uiso   1.00
O748   O     0.11847   0.50450   0.81997   0.00000  Uiso   1.00
O749   O     0.21486   0.49550   0.68002   0.00000  Uiso   1.00
O750   O     0.21485   0.49552   0.81217   0.00000  Uiso   1.00
O751   O     0.11848   0.50448   0.68782   0.00000  Uiso   1.00
O752   O     0.23531   0.34185   0.96444   0.00000  Uiso   1.00
Zn753  Zn    0.10231   0.50600   0.75521   0.00000  Uiso   1.00
Zn754  Zn    0.23102   0.49400   0.74479   0.00000  Uiso   1.00
C755   C     0.51524   0.59800   0.74852   0.00000  Uiso   1.00
C756   C     0.52431   0.54144   0.90539   0.00000  Uiso   1.00
C757   C     0.49791   0.50211   0.61625   0.00000  Uiso   1.00
C758   C     0.50209   0.49789   0.88375   0.00000  Uiso   1.00
C759   C     0.51941   0.54604   0.59312   0.00000  Uiso   1.00
C760   C     0.48059   0.45396   0.90688   0.00000  Uiso   1.00
C761   C     0.52070   0.54531   0.54615   0.00000  Uiso   1.00
C762   C     0.47930   0.45469   0.95385   0.00000  Uiso   1.00
C763   C     0.49872   0.50065   0.52353   0.00000  Uiso   1.00
C764   C     0.50128   0.49935   0.97647   0.00000  Uiso   1.00
C765   C     0.47440   0.45728   0.54805   0.00000  Uiso   1.00
C766   C     0.48476   0.40200   0.75148   0.00000  Uiso   1.00
C767   C     0.52560   0.54272   0.95195   0.00000  Uiso   1.00
C768   C     0.54461   0.58774   0.52149   0.00000  Uiso   1.00
C769   C     0.45539   0.41226   0.97851   0.00000  Uiso   1.00
C770   C     0.57801   0.63195   0.95098   0.00000  Uiso   1.00
C771   C     0.42199   0.36805   0.54902   0.00000  Uiso   1.00
C772   C     0.58441   0.33894   0.73932   0.00000  Uiso   1.00
C773   C     0.41559   0.66106   0.76069   0.00000  Uiso   1.00
C774   C     0.54834   0.58678   0.97464   0.00000  Uiso   1.00
C775   C     0.45166   0.41322   0.52536   0.00000  Uiso   1.00
C776   C     0.52331   0.65206   0.74703   0.00000  Uiso   1.00
C777   C     0.47669   0.34795   0.75298   0.00000  Uiso   1.00
C778   C     0.50063   0.49952   0.83629   0.00000  Uiso   1.00
C779   C     0.49937   0.50048   0.66371   0.00000  Uiso   1.00
C780   C     0.47569   0.45856   0.59460   0.00000  Uiso   1.00
Cl781  Cl    0.54449   0.60110   0.62373   0.00000  Uiso   1.00
Cl782  Cl    0.45551   0.39890   0.87626   0.00000  Uiso   1.00
H783   H     0.46130   0.42541   0.61470   0.00000  Uiso   1.00
H784   H     0.34919   0.62008   0.73464   0.00000  Uiso   1.00
H785   H     0.53870   0.57459   0.88530   0.00000  Uiso   1.00
H786   H     0.56229   0.62169   0.53839   0.00000  Uiso   1.00
H787   H     0.43771   0.37831   0.96160   0.00000  Uiso   1.00
H788   H     0.33798   0.46149   0.71607   0.00000  Uiso   1.00
H789   H     0.66202   0.53851   0.78393   0.00000  Uiso   1.00
H790   H     0.63627   0.65889   0.90199   0.00000  Uiso   1.00
H791   H     0.36373   0.34111   0.59801   0.00000  Uiso   1.00
H792   H     0.65081   0.37992   0.76538   0.00000  Uiso   1.00
N793   N     0.65011   0.48598   0.73783   0.00000  Uiso   1.00
N794   N     0.34989   0.51402   0.76217   0.00000  Uiso   1.00
O795   O     0.46308   0.57952   0.75298   0.00000  Uiso   1.00
O796   O     0.61862   0.62520   0.91478   0.00000  Uiso   1.00
O797   O     0.43136   0.65815   0.53556   0.00000  Uiso   1.00
O798   O     0.38138   0.37480   0.58522   0.00000  Uiso   1.00
O799   O     0.60770   0.33972   0.70115   0.00000  Uiso   1.00
O800   O     0.61339   0.35999   0.77556   0.00000  Uiso   1.00
O801   O     0.39231   0.66027   0.79886   0.00000  Uiso   1.00
O802   O     0.38661   0.64002   0.72445   0.00000  Uiso   1.00
O803   O     0.53692   0.42048   0.74701   0.00000  Uiso   1.00
O804   O     0.55946   0.57054   0.74518   0.00000  Uiso   1.00
O805   O     0.44054   0.42946   0.75481   0.00000  Uiso   1.00
O806   O     0.45181   0.50450   0.81997   0.00000  Uiso   1.00
O807   O     0.54819   0.49550   0.68002   0.00000  Uiso   1.00
O808   O     0.54819   0.49552   0.81217   0.00000  Uiso   1.00
O809   O     0.45181   0.50448   0.68782   0.00000  Uiso   1.00
O810   O     0.56864   0.34185   0.96444   0.00000  Uiso   1.00
Zn811  Zn    0.43565   0.50600   0.75521   0.00000  Uiso   1.00
Zn812  Zn    0.56435   0.49400   0.74479   0.00000  Uiso   1.00
C813   C     0.84857   0.59800   0.74852   0.00000  Uiso   1.00
C814   C     0.85765   0.54144   0.90539   0.00000  Uiso   1.00
C815   C     0.83124   0.50211   0.61625   0.00000  Uiso   1.00
C816   C     0.83543   0.49789   0.88375   0.00000  Uiso   1.00
C817   C     0.85274   0.54604   0.59312   0.00000  Uiso   1.00
C818   C     0.81392   0.45396   0.90688   0.00000  Uiso   1.00
C819   C     0.85403   0.54531   0.54615   0.00000  Uiso   1.00
C820   C     0.81263   0.45469   0.95385   0.00000  Uiso   1.00
C821   C     0.83206   0.50065   0.52353   0.00000  Uiso   1.00
C822   C     0.83461   0.49935   0.97647   0.00000  Uiso   1.00
C823   C     0.80773   0.45728   0.54805   0.00000  Uiso   1.00
C824   C     0.81810   0.40200   0.75148   0.00000  Uiso   1.00
C825   C     0.85893   0.54272   0.95195   0.00000  Uiso   1.00
C826   C     0.87795   0.58774   0.52149   0.00000  Uiso   1.00
C827   C     0.78872   0.41226   0.97851   0.00000  Uiso   1.00
C828   C     0.91134   0.63195   0.95098   0.00000  Uiso   1.00
C829   C     0.75533   0.36805   0.54902   0.00000  Uiso   1.00
C830   C     0.91774   0.33894   0.73932   0.00000  Uiso   1.00
C831   C     0.74892   0.66106   0.76069   0.00000  Uiso   1.00
C832   C     0.88168   0.58678   0.97464   0.00000  Uiso   1.00
C833   C     0.78499   0.41322   0.52536   0.00000  Uiso   1.00
C834   C     0.85665   0.65206   0.74703   0.00000  Uiso   1.00
C835   C     0.81002   0.34795   0.75298   0.00000  Uiso   1.00
C836   C     0.83396   0.49952   0.83629   0.00000  Uiso   1.00
C837   C     0.83270   0.50048   0.66371   0.00000  Uiso   1.00
C838   C     0.80902   0.45856   0.59460   0.00000  Uiso   1.00
Cl839  Cl    0.87783   0.60110   0.62373   0.00000  Uiso   1.00
Cl840  Cl    0.78884   0.39890   0.87626   0.00000  Uiso   1.00
H841   H     0.79463   0.42541   0.61470   0.00000  Uiso   1.00
H842   H     0.68252   0.62008   0.73464   0.00000  Uiso   1.00
H843   H     0.87203   0.57459   0.88530   0.00000  Uiso   1.00
H844   H     0.89563   0.62169   0.53839   0.00000  Uiso   1.00
H845   H     0.77104   0.37831   0.96160   0.00000  Uiso   1.00
H846   H     0.67131   0.46149   0.71607   0.00000  Uiso   1.00
H847   H     0.99535   0.53851   0.78393   0.00000  Uiso   1.00
H848   H     0.96960   0.65889   0.90199   0.00000  Uiso   1.00
H849   H     0.69706   0.34111   0.59801   0.00000  Uiso   1.00
H850   H     0.98415   0.37992   0.76538   0.00000  Uiso   1.00
N851   N     0.98344   0.48598   0.73783   0.00000  Uiso   1.00
N852   N     0.68322   0.51402   0.76217   0.00000  Uiso   1.00
O853   O     0.79642   0.57952   0.75298   0.00000  Uiso   1.00
O854   O     0.95195   0.62520   0.91478   0.00000  Uiso   1.00
O855   O     0.76469   0.65815   0.53556   0.00000  Uiso   1.00
O856   O     0.71471   0.37480   0.58522   0.00000  Uiso   1.00
O857   O     0.94103   0.33972   0.70115   0.00000  Uiso   1.00
O858   O     0.94672   0.35999   0.77556   0.00000  Uiso   1.00
O859   O     0.72564   0.66027   0.79886   0.00000  Uiso   1.00
O860   O     0.71995   0.64002   0.72445   0.00000  Uiso   1.00
O861   O     0.87025   0.42048   0.74701   0.00000  Uiso   1.00
O862   O     0.89280   0.57054   0.74518   0.00000  Uiso   1.00
O863   O     0.77387   0.42946   0.75481   0.00000  Uiso   1.00
O864   O     0.78514   0.50450   0.81997   0.00000  Uiso   1.00
O865   O     0.88153   0.49550   0.68002   0.00000  Uiso   1.00
O866   O     0.88152   0.49552   0.81217   0.00000  Uiso   1.00
O867   O     0.78515   0.50448   0.68782   0.00000  Uiso   1.00
O868   O     0.90197   0.34185   0.96444   0.00000  Uiso   1.00
Zn869  Zn    0.76898   0.50600   0.75521   0.00000  Uiso   1.00
Zn870  Zn    0.89769   0.49400   0.74479   0.00000  Uiso   1.00
C871   C     0.18190   0.93133   0.74852   0.00000  Uiso   1.00
C872   C     0.19098   0.87477   0.90539   0.00000  Uiso   1.00
C873   C     0.16457   0.83545   0.61625   0.00000  Uiso   1.00
C874   C     0.16876   0.83122   0.88375   0.00000  Uiso   1.00
C875   C     0.18608   0.87937   0.59312   0.00000  Uiso   1.00
C876   C     0.14726   0.78730   0.90688   0.00000  Uiso   1.00
C877   C     0.18737   0.87864   0.54615   0.00000  Uiso   1.00
C878   C     0.14597   0.78802   0.95385   0.00000  Uiso   1.00
C879   C     0.16539   0.83398   0.52353   0.00000  Uiso   1.00
C880   C     0.16794   0.83268   0.97647   0.00000  Uiso   1.00
C881   C     0.14107   0.79061   0.54805   0.00000  Uiso   1.00
C882   C     0.15143   0.73534   0.75148   0.00000  Uiso   1.00
C883   C     0.19227   0.87605   0.95195   0.00000  Uiso   1.00
C884   C     0.21128   0.92108   0.52149   0.00000  Uiso   1.00
C885   C     0.12205   0.74559   0.97851   0.00000  Uiso   1.00
C886   C     0.24467   0.96528   0.95098   0.00000  Uiso   1.00
C887   C     0.08866   0.70138   0.54902   0.00000  Uiso   1.00
C888   C     0.25108   0.67227   0.73932   0.00000  Uiso   1.00
C889   C     0.08226   0.99439   0.76069   0.00000  Uiso   1.00
C890   C     0.21501   0.92011   0.97464   0.00000  Uiso   1.00
C891   C     0.11832   0.74656   0.52536   0.00000  Uiso   1.00
C892   C     0.18998   0.98539   0.74703   0.00000  Uiso   1.00
C893   C     0.14335   0.68128   0.75298   0.00000  Uiso   1.00
C894   C     0.16730   0.83285   0.83629   0.00000  Uiso   1.00
C895   C     0.16604   0.83382   0.66371   0.00000  Uiso   1.00
C896   C     0.14235   0.79189   0.59460   0.00000  Uiso   1.00
Cl897  Cl    0.21116   0.93443   0.62373   0.00000  Uiso   1.00
Cl898  Cl    0.12217   0.73224   0.87626   0.00000  Uiso   1.00
H899   H     0.12797   0.75874   0.61470   0.00000  Uiso   1.00
H900   H     0.01586   0.95342   0.73464   0.00000  Uiso   1.00
H901   H     0.20537   0.90793   0.88530   0.00000  Uiso   1.00
H902   H     0.22896   0.95502   0.53839   0.00000  Uiso   1.00
H903   H     0.10438   0.71165   0.96160   0.00000  Uiso   1.00
H904   H     0.00465   0.79483   0.71607   0.00000  Uiso   1.00
H905   H     0.32869   0.87184   0.78393   0.00000  Uiso   1.00
H906   H     0.30294   0.99223   0.90199   0.00000  Uiso   1.00
H907   H     0.03040   0.67444   0.59801   0.00000  Uiso   1.00
H908   H     0.31748   0.71325   0.76538   0.00000  Uiso   1.00
N909   N     0.31678   0.81932   0.73783   0.00000  Uiso   1.00
N910   N     0.01656   0.84735   0.76217   0.00000  Uiso   1.00
O911   O     0.12975   0.91286   0.75298   0.00000  Uiso   1.00
O912   O     0.28529   0.95854   0.91478   0.00000  Uiso   1.00
O913   O     0.09803   0.99149   0.53556   0.00000  Uiso   1.00
O914   O     0.04805   0.70813   0.58522   0.00000  Uiso   1.00
O915   O     0.27436   0.67306   0.70115   0.00000  Uiso   1.00
O916   O     0.28005   0.69333   0.77556   0.00000  Uiso   1.00
O917   O     0.05898   0.99360   0.79886   0.00000  Uiso   1.00
O918   O     0.05328   0.97335   0.72445   0.00000  Uiso   1.00
O919   O     0.20358   0.75381   0.74701   0.00000  Uiso   1.00
O920   O     0.22613   0.90387   0.74518   0.00000  Uiso   1.00
O921   O     0.10720   0.76279   0.75481   0.00000  Uiso   1.00
O922   O     0.11847   0.83784   0.81997   0.00000  Uiso   1.00
O923   O     0.21486   0.82883   0.68002   0.00000  Uiso   1.00
O924   O     0.21485   0.82885   0.81217   0.00000  Uiso   1.00
O925   O     0.11848   0.83781   0.68782   0.00000  Uiso   1.00
O926   O     0.23531   0.67518   0.96444   0.00000  Uiso   1.00
Zn927  Zn    0.10231   0.83933   0.75521   0.00000  Uiso   1.00
Zn928  Zn    0.23102   0.82734   0.74479   0.00000  Uiso   1.00
C929   C     0.51524   0.93133   0.74852   0.00000  Uiso   1.00
C930   C     0.52431   0.87477   0.90539   0.00000  Uiso   1.00
C931   C     0.49791   0.83545   0.61625   0.00000  Uiso   1.00
C932   C     0.50209   0.83122   0.88375   0.00000  Uiso   1.00
C933   C     0.51941   0.87937   0.59312   0.00000  Uiso   1.00
C934   C     0.48059   0.78730   0.90688   0.00000  Uiso   1.00
C935   C     0.52070   0.87864   0.54615   0.00000  Uiso   1.00
C936   C     0.47930   0.78802   0.95385   0.00000  Uiso   1.00
C937   C     0.49872   0.83398   0.52353   0.00000  Uiso   1.00
C938   C     0.50128   0.83268   0.97647   0.00000  Uiso   1.00
C939   C     0.47440   0.79061   0.54805   0.00000  Uiso   1.00
C940   C     0.48476   0.73534   0.75148   0.00000  Uiso   1.00
C941   C     0.52560   0.87605   0.95195   0.00000  Uiso   1.00
C942   C     0.54461   0.92108   0.52149   0.00000  Uiso   1.00
C943   C     0.45539   0.74559   0.97851   0.00000  Uiso   1.00
C944   C     0.57801   0.96528   0.95098   0.00000  Uiso   1.00
C945   C     0.42199   0.70138   0.54902   0.00000  Uiso   1.00
C946   C     0.58441   0.67227   0.73932   0.00000  Uiso   1.00
C947   C     0.41559   0.99439   0.76069   0.00000  Uiso   1.00
C948   C     0.54834   0.92011   0.97464   0.00000  Uiso   1.00
C949   C     0.45166   0.74656   0.52536   0.00000  Uiso   1.00
C950   C     0.52331   0.98539   0.74703   0.00000  Uiso   1.00
C951   C     0.47669   0.68128   0.75298   0.00000  Uiso   1.00
C952   C     0.50063   0.83285   0.83629   0.00000  Uiso   1.00
C953   C     0.49937   0.83382   0.66371   0.00000  Uiso   1.00
C954   C     0.47569   0.79189   0.59460   0.00000  Uiso   1.00
Cl955  Cl    0.54449   0.93443   0.62373   0.00000  Uiso   1.00
Cl956  Cl    0.45551   0.73224   0.87626   0.00000  Uiso   1.00
H957   H     0.46130   0.75874   0.61470   0.00000  Uiso   1.00
H958   H     0.34919   0.95342   0.73464   0.00000  Uiso   1.00
H959   H     0.53870   0.90793   0.88530   0.00000  Uiso   1.00
H960   H     0.56229   0.95502   0.53839   0.00000  Uiso   1.00
H961   H     0.43771   0.71165   0.96160   0.00000  Uiso   1.00
H962   H     0.33798   0.79483   0.71607   0.00000  Uiso   1.00
H963   H     0.66202   0.87184   0.78393   0.00000  Uiso   1.00
H964   H     0.63627   0.99223   0.90199   0.00000  Uiso   1.00
H965   H     0.36373   0.67444   0.59801   0.00000  Uiso   1.00
H966   H     0.65081   0.71325   0.76538   0.00000  Uiso   1.00
N967   N     0.65011   0.81932   0.73783   0.00000  Uiso   1.00
N968   N     0.34989   0.84735   0.76217   0.00000  Uiso   1.00
O969   O     0.46308   0.91286   0.75298   0.00000  Uiso   1.00
O970   O     0.61862   0.95854   0.91478   0.00000  Uiso   1.00
O971   O     0.43136   0.99149   0.53556   0.00000  Uiso   1.00
O972   O     0.38138   0.70813   0.58522   0.00000  Uiso   1.00
O973   O     0.60770   0.67306   0.70115   0.00000  Uiso   1.00
O974   O     0.61339   0.69333   0.77556   0.00000  Uiso   1.00
O975   O     0.39231   0.99360   0.79886   0.00000  Uiso   1.00
O976   O     0.38661   0.97335   0.72445   0.00000  Uiso   1.00
O977   O     0.53692   0.75381   0.74701   0.00000  Uiso   1.00
O978   O     0.55946   0.90387   0.74518   0.00000  Uiso   1.00
O979   O     0.44054   0.76279   0.75481   0.00000  Uiso   1.00
O980   O     0.45181   0.83784   0.81997   0.00000  Uiso   1.00
O981   O     0.54819   0.82883   0.68002   0.00000  Uiso   1.00
O982   O     0.54819   0.82885   0.81217   0.00000  Uiso   1.00
O983   O     0.45181   0.83781   0.68782   0.00000  Uiso   1.00
O984   O     0.56864   0.67518   0.96444   0.00000  Uiso   1.00
Zn985  Zn    0.43565   0.83933   0.75521   0.00000  Uiso   1.00
Zn986  Zn    0.56435   0.82734   0.74479   0.00000  Uiso   1.00
C987   C     0.84857   0.93133   0.74852   0.00000  Uiso   1.00
C988   C     0.85765   0.87477   0.90539   0.00000  Uiso   1.00
C989   C     0.83124   0.83545   0.61625   0.00000  Uiso   1.00
C990   C     0.83543   0.83122   0.88375   0.00000  Uiso   1.00
C991   C     0.85274   0.87937   0.59312   0.00000  Uiso   1.00
C992   C     0.81392   0.78730   0.90688   0.00000  Uiso   1.00
C993   C     0.85403   0.87864   0.54615   0.00000  Uiso   1.00
C994   C     0.81263   0.78802   0.95385   0.00000  Uiso   1.00
C995   C     0.83206   0.83398   0.52353   0.00000  Uiso   1.00
C996   C     0.83461   0.83268   0.97647   0.00000  Uiso   1.00
C997   C     0.80773   0.79061   0.54805   0.00000  Uiso   1.00
C998   C     0.81810   0.73534   0.75148   0.00000  Uiso   1.00
C999   C     0.85893   0.87605   0.95195   0.00000  Uiso   1.00
C1000  C     0.87795   0.92108   0.52149   0.00000  Uiso   1.00
C1001  C     0.78872   0.74559   0.97851   0.00000  Uiso   1.00
C1002  C     0.91134   0.96528   0.95098   0.00000  Uiso   1.00
C1003  C     0.75533   0.70138   0.54902   0.00000  Uiso   1.00
C1004  C     0.91774   0.67227   0.73932   0.00000  Uiso   1.00
C1005  C     0.74892   0.99439   0.76069   0.00000  Uiso   1.00
C1006  C     0.88168   0.92011   0.97464   0.00000  Uiso   1.00
C1007  C     0.78499   0.74656   0.52536   0.00000  Uiso   1.00
C1008  C     0.85665   0.98539   0.74703   0.00000  Uiso   1.00
C1009  C     0.81002   0.68128   0.75298   0.00000  Uiso   1.00
C1010  C     0.83396   0.83285   0.83629   0.00000  Uiso   1.00
C1011  C     0.83270   0.83382   0.66371   0.00000  Uiso   1.00
C1012  C     0.80902   0.79189   0.59460   0.00000  Uiso   1.00
Cl1013 Cl    0.87783   0.93443   0.62373   0.00000  Uiso   1.00
Cl1014 Cl    0.78884   0.73224   0.87626   0.00000  Uiso   1.00
H1015  H     0.79463   0.75874   0.61470   0.00000  Uiso   1.00
H1016  H     0.68252   0.95342   0.73464   0.00000  Uiso   1.00
H1017  H     0.87203   0.90793   0.88530   0.00000  Uiso   1.00
H1018  H     0.89563   0.95502   0.53839   0.00000  Uiso   1.00
H1019  H     0.77104   0.71165   0.96160   0.00000  Uiso   1.00
H1020  H     0.67131   0.79483   0.71607   0.00000  Uiso   1.00
H1021  H     0.99535   0.87184   0.78393   0.00000  Uiso   1.00
H1022  H     0.96960   0.99223   0.90199   0.00000  Uiso   1.00
H1023  H     0.69706   0.67444   0.59801   0.00000  Uiso   1.00
H1024  H     0.98415   0.71325   0.76538   0.00000  Uiso   1.00
N1025  N     0.98344   0.81932   0.73783   0.00000  Uiso   1.00
N1026  N     0.68322   0.84735   0.76217   0.00000  Uiso   1.00
O1027  O     0.79642   0.91286   0.75298   0.00000  Uiso   1.00
O1028  O     0.95195   0.95854   0.91478   0.00000  Uiso   1.00
O1029  O     0.76469   0.99149   0.53556   0.00000  Uiso   1.00
O1030  O     0.71471   0.70813   0.58522   0.00000  Uiso   1.00
O1031  O     0.94103   0.67306   0.70115   0.00000  Uiso   1.00
O1032  O     0.94672   0.69333   0.77556   0.00000  Uiso   1.00
O1033  O     0.72564   0.99360   0.79886   0.00000  Uiso   1.00
O1034  O     0.71995   0.97335   0.72445   0.00000  Uiso   1.00
O1035  O     0.87025   0.75381   0.74701   0.00000  Uiso   1.00
O1036  O     0.89280   0.90387   0.74518   0.00000  Uiso   1.00
O1037  O     0.77387   0.76279   0.75481   0.00000  Uiso   1.00
O1038  O     0.78514   0.83784   0.81997   0.00000  Uiso   1.00
O1039  O     0.88153   0.82883   0.68002   0.00000  Uiso   1.00
O1040  O     0.88152   0.82885   0.81217   0.00000  Uiso   1.00
O1041  O     0.78515   0.83781   0.68782   0.00000  Uiso   1.00
O1042  O     0.90197   0.67518   0.96444   0.00000  Uiso   1.00
Zn1043 Zn    0.76898   0.83933   0.75521   0.00000  Uiso   1.00
Zn1044 Zn    0.89769   0.82734   0.74479   0.00000  Uiso   1.00
loop_
_geom_bond_atom_site_label_1
_geom_bond_atom_site_label_2
_geom_bond_distance
_geom_bond_site_symmetry_2
_ccdc_geom_bond_type
C1     O50     1.297   .     A
C1     C22     1.415   .     S
C1     O41     1.273   .     A
C2     C4      1.384   .     A
C2     C13     1.388   .     A
C2     H31     1.082   .     S
C3     C26     1.384   .     A
C3     C25     1.418   .     S
C3     C5      1.394   .     A
C4     C24     1.418   .     S
C4     C6      1.394   .     A
C5     C7      1.396   .     A
C5     Cl27    1.776   .     S
C6     C8      1.396   .     A
C6     Cl28    1.776   .     S
C7     C9      1.419   .     A
C7     C14     1.401   .     A
C8     C15     1.401   .     A
C8     C10     1.419   .     A
C9     C11     1.421   .     A
C9     C532    1.398   1_554 S
C10    C13     1.421   .     A
C10    C531    1.398   .     S
C11    C21     1.414   .     A
C11    C26     1.388   .     A
C12    C23     1.415   .     S
C12    O49     1.273   .     A
C12    O51     1.297   .     A
C13    C20     1.414   .     A
C14    H32     1.082   .     S
C14    C542    1.391   1_554 S
C15    H33     1.082   .     S
C15    C543    1.391   .     S
C16    O42     1.399   .     S
C16    C20     1.487   .     S
C16    O230    1.223   .     S
C17    O44     1.399   .     S
C17    C21     1.487   .     S
C17    O391    1.223   1_545 S
C18    O46     1.397   .     S
C18    O45     1.223   .     D
C18    C370    1.485   1_545 S
C19    O47     1.223   .     D
C19    O48     1.397   .     S
C19    C197    1.485   .     S
C20    C536    1.391   .     S
C21    C537    1.391   1_554 S
C22    C192    1.485   .     S
C22    C197    1.375   .     S
C23    C370    1.375   1_545 S
C23    C367    1.485   1_545 S
C24    O52     1.286   .     A
C24    O54     1.285   .     A
C25    O53     1.286   .     A
C25    O55     1.285   .     A
C26    H29     1.082   .     S
H30    O48     1.012   .     S
H34    N155    1.029   1_455 S
H35    N98     1.029   .     S
H36    O42     1.014   .     S
H37    O44     1.014   .     S
H38    O46     1.012   .     S
N39    Zn58    2.021   .     S
N39    H92     1.029   .     S
N39    N98     1.279   .     S
N40    Zn57    2.021   .     S
N40    H151    1.029   1_455 S
N40    N155    1.279   1_455 S
O41    Zn57    1.984   .     S
O43    C191    1.223   .     S
O49    Zn58    1.984   .     S
O50    Zn58    2.016   .     S
O51    Zn57    2.016   .     S
O52    Zn57    1.993   .     S
O53    Zn58    1.993   .     S
O54    Zn58    2.014   .     S
O55    Zn57    2.014   .     S
O56    C364    1.223   1_545 S
C59    O108    1.297   .     A
C59    C80     1.415   .     S
C59    O99     1.273   .     A
C60    C62     1.384   .     A
C60    C71     1.388   .     A
C60    H89     1.082   .     S
C61    C84     1.384   .     A
C61    C83     1.418   .     S
C61    C63     1.394   .     A
C62    C82     1.418   .     S
C62    C64     1.394   .     A
C63    C65     1.396   .     A
C63    Cl85    1.776   .     S
C64    C66     1.396   .     A
C64    Cl86    1.776   .     S
C65    C67     1.419   .     A
C65    C72     1.401   .     A
C66    C73     1.401   .     A
C66    C68     1.419   .     A
C67    C69     1.421   .     A
C67    C590    1.398   1_554 S
C68    C71     1.421   .     A
C68    C589    1.398   .     S
C69    C79     1.414   .     A
C69    C84     1.388   .     A
C70    C81     1.415   .     S
C70    O107    1.273   .     A
C70    O109    1.297   .     A
C71    C78     1.414   .     A
C72    H90     1.082   .     S
C72    C600    1.391   1_554 S
C73    H91     1.082   .     S
C73    C601    1.391   .     S
C74    O100    1.399   .     S
C74    C78     1.487   .     S
C74    O288    1.223   .     S
C75    O102    1.399   .     S
C75    C79     1.487   .     S
C75    O449    1.223   1_545 S
C76    O104    1.397   .     S
C76    O103    1.223   .     D
C76    C428    1.485   1_545 S
C77    O105    1.223   .     D
C77    O106    1.397   .     S
C77    C255    1.485   .     S
C78    C594    1.391   .     S
C79    C595    1.391   1_554 S
C80    C250    1.485   .     S
C80    C255    1.375   .     S
C81    C428    1.375   1_545 S
C81    C425    1.485   1_545 S
C82    O110    1.286   .     A
C82    O112    1.285   .     A
C83    O111    1.286   .     A
C83    O113    1.285   .     A
C84    H87     1.082   .     S
H88    O106    1.012   .     S
H93    N156    1.029   .     S
H94    O100    1.014   .     S
H95    O102    1.014   .     S
H96    O104    1.012   .     S
N97    Zn116   2.021   .     S
N97    H150    1.029   .     S
N97    N156    1.279   .     S
N98    Zn115   2.021   .     S
O99    Zn115   1.984   .     S
O101   C249    1.223   .     S
O107   Zn116   1.984   .     S
O108   Zn116   2.016   .     S
O109   Zn115   2.016   .     S
O110   Zn115   1.993   .     S
O111   Zn116   1.993   .     S
O112   Zn116   2.014   .     S
O113   Zn115   2.014   .     S
O114   C422    1.223   1_545 S
C117   O166    1.297   .     A
C117   C138    1.415   .     S
C117   O157    1.273   .     A
C118   C120    1.384   .     A
C118   C129    1.388   .     A
C118   H147    1.082   .     S
C119   C142    1.384   .     A
C119   C141    1.418   .     S
C119   C121    1.394   .     A
C120   C140    1.418   .     S
C120   C122    1.394   .     A
C121   C123    1.396   .     A
C121   Cl143   1.776   .     S
C122   C124    1.396   .     A
C122   Cl144   1.776   .     S
C123   C125    1.419   .     A
C123   C130    1.401   .     A
C124   C131    1.401   .     A
C124   C126    1.419   .     A
C125   C127    1.421   .     A
C125   C648    1.398   1_554 S
C126   C129    1.421   .     A
C126   C647    1.398   .     S
C127   C137    1.414   .     A
C127   C142    1.388   .     A
C128   C139    1.415   .     S
C128   O165    1.273   .     A
C128   O167    1.297   .     A
C129   C136    1.414   .     A
C130   H148    1.082   .     S
C130   C658    1.391   1_554 S
C131   H149    1.082   .     S
C131   C659    1.391   .     S
C132   O158    1.399   .     S
C132   C136    1.487   .     S
C132   O346    1.223   .     S
C133   O160    1.399   .     S
C133   C137    1.487   .     S
C133   O507    1.223   1_545 S
C134   O162    1.397   .     S
C134   O161    1.223   .     D
C134   C486    1.485   1_545 S
C135   O163    1.223   .     D
C135   O164    1.397   .     S
C135   C313    1.485   .     S
C136   C652    1.391   .     S
C137   C653    1.391   1_554 S
C138   C308    1.485   .     S
C138   C313    1.375   .     S
C139   C486    1.375   1_545 S
C139   C483    1.485   1_545 S
C140   O168    1.286   .     A
C140   O170    1.285   .     A
C141   O169    1.286   .     A
C141   O171    1.285   .     A
C142   H145    1.082   .     S
H146   O164    1.012   .     S
H151   N40     1.029   1_655 S
H152   O158    1.014   .     S
H153   O160    1.014   .     S
H154   O162    1.012   .     S
N155   Zn174   2.021   .     S
N155   H34     1.029   1_655 S
N155   N40     1.279   1_655 S
N156   Zn173   2.021   .     S
O157   Zn173   1.984   .     S
O159   C307    1.223   .     S
O165   Zn174   1.984   .     S
O166   Zn174   2.016   .     S
O167   Zn173   2.016   .     S
O168   Zn173   1.993   .     S
O169   Zn174   1.993   .     S
O170   Zn174   2.014   .     S
O171   Zn173   2.014   .     S
O172   C480    1.223   1_545 S
C175   O224    1.297   .     A
C175   C196    1.415   .     S
C175   O215    1.273   .     A
C176   C178    1.384   .     A
C176   C187    1.388   .     A
C176   H205    1.082   .     S
C177   C200    1.384   .     A
C177   C199    1.418   .     S
C177   C179    1.394   .     A
C178   C198    1.418   .     S
C178   C180    1.394   .     A
C179   C181    1.396   .     A
C179   Cl201   1.776   .     S
C180   C182    1.396   .     A
C180   Cl202   1.776   .     S
C181   C183    1.419   .     A
C181   C188    1.401   .     A
C182   C189    1.401   .     A
C182   C184    1.419   .     A
C183   C185    1.421   .     A
C183   C706    1.398   1_554 S
C184   C187    1.421   .     A
C184   C705    1.398   .     S
C185   C195    1.414   .     A
C185   C200    1.388   .     A
C186   C197    1.415   .     S
C186   O223    1.273   .     A
C186   O225    1.297   .     A
C187   C194    1.414   .     A
C188   H206    1.082   .     S
C188   C716    1.391   1_554 S
C189   H207    1.082   .     S
C189   C717    1.391   .     S
C190   O216    1.399   .     S
C190   C194    1.487   .     S
C190   O404    1.223   .     S
C191   O218    1.399   .     S
C191   C195    1.487   .     S
C192   O220    1.397   .     S
C192   O219    1.223   .     D
C193   O221    1.223   .     D
C193   O222    1.397   .     S
C193   C371    1.485   .     S
C194   C710    1.391   .     S
C195   C711    1.391   1_554 S
C196   C366    1.485   .     S
C196   C371    1.375   .     S
C198   O226    1.286   .     A
C198   O228    1.285   .     A
C199   O227    1.286   .     A
C199   O229    1.285   .     A
C200   H203    1.082   .     S
H204   O222    1.012   .     S
H208   N329    1.029   1_455 S
H209   N272    1.029   .     S
H210   O216    1.014   .     S
H211   O218    1.014   .     S
H212   O220    1.012   .     S
N213   Zn232   2.021   .     S
N213   H266    1.029   .     S
N213   N272    1.279   .     S
N214   Zn231   2.021   .     S
N214   H325    1.029   1_455 S
N214   N329    1.279   1_455 S
O215   Zn231   1.984   .     S
O217   C365    1.223   .     S
O223   Zn232   1.984   .     S
O224   Zn232   2.016   .     S
O225   Zn231   2.016   .     S
O226   Zn231   1.993   .     S
O227   Zn232   1.993   .     S
O228   Zn232   2.014   .     S
O229   Zn231   2.014   .     S
C233   O282    1.297   .     A
C233   C254    1.415   .     S
C233   O273    1.273   .     A
C234   C236    1.384   .     A
C234   C245    1.388   .     A
C234   H263    1.082   .     S
C235   C258    1.384   .     A
C235   C257    1.418   .     S
C235   C237    1.394   .     A
C236   C256    1.418   .     S
C236   C238    1.394   .     A
C237   C239    1.396   .     A
C237   Cl259   1.776   .     S
C238   C240    1.396   .     A
C238   Cl260   1.776   .     S
C239   C241    1.419   .     A
C239   C246    1.401   .     A
C240   C247    1.401   .     A
C240   C242    1.419   .     A
C241   C243    1.421   .     A
C241   C764    1.398   1_554 S
C242   C245    1.421   .     A
C242   C763    1.398   .     S
C243   C253    1.414   .     A
C243   C258    1.388   .     A
C244   C255    1.415   .     S
C244   O281    1.273   .     A
C244   O283    1.297   .     A
C245   C252    1.414   .     A
C246   H264    1.082   .     S
C246   C774    1.391   1_554 S
C247   H265    1.082   .     S
C247   C775    1.391   .     S
C248   O274    1.399   .     S
C248   C252    1.487   .     S
C248   O462    1.223   .     S
C249   O276    1.399   .     S
C249   C253    1.487   .     S
C250   O278    1.397   .     S
C250   O277    1.223   .     D
C251   O279    1.223   .     D
C251   O280    1.397   .     S
C251   C429    1.485   .     S
C252   C768    1.391   .     S
C253   C769    1.391   1_554 S
C254   C424    1.485   .     S
C254   C429    1.375   .     S
C256   O284    1.286   .     A
C256   O286    1.285   .     A
C257   O285    1.286   .     A
C257   O287    1.285   .     A
C258   H261    1.082   .     S
H262   O280    1.012   .     S
H267   N330    1.029   .     S
H268   O274    1.014   .     S
H269   O276    1.014   .     S
H270   O278    1.012   .     S
N271   Zn290   2.021   .     S
N271   H324    1.029   .     S
N271   N330    1.279   .     S
N272   Zn289   2.021   .     S
O273   Zn289   1.984   .     S
O275   C423    1.223   .     S
O281   Zn290   1.984   .     S
O282   Zn290   2.016   .     S
O283   Zn289   2.016   .     S
O284   Zn289   1.993   .     S
O285   Zn290   1.993   .     S
O286   Zn290   2.014   .     S
O287   Zn289   2.014   .     S
C291   O340    1.297   .     A
C291   C312    1.415   .     S
C291   O331    1.273   .     A
C292   C294    1.384   .     A
C292   C303    1.388   .     A
C292   H321    1.082   .     S
C293   C316    1.384   .     A
C293   C315    1.418   .     S
C293   C295    1.394   .     A
C294   C314    1.418   .     S
C294   C296    1.394   .     A
C295   C297    1.396   .     A
C295   Cl317   1.776   .     S
C296   C298    1.396   .     A
C296   Cl318   1.776   .     S
C297   C299    1.419   .     A
C297   C304    1.401   .     A
C298   C305    1.401   .     A
C298   C300    1.419   .     A
C299   C301    1.421   .     A
C299   C822    1.398   1_554 S
C300   C303    1.421   .     A
C300   C821    1.398   .     S
C301   C311    1.414   .     A
C301   C316    1.388   .     A
C302   C313    1.415   .     S
C302   O339    1.273   .     A
C302   O341    1.297   .     A
C303   C310    1.414   .     A
C304   H322    1.082   .     S
C304   C832    1.391   1_554 S
C305   H323    1.082   .     S
C305   C833    1.391   .     S
C306   O332    1.399   .     S
C306   C310    1.487   .     S
C306   O520    1.223   .     S
C307   O334    1.399   .     S
C307   C311    1.487   .     S
C308   O336    1.397   .     S
C308   O335    1.223   .     D
C309   O337    1.223   .     D
C309   O338    1.397   .     S
C309   C487    1.485   .     S
C310   C826    1.391   .     S
C311   C827    1.391   1_554 S
C312   C482    1.485   .     S
C312   C487    1.375   .     S
C314   O342    1.286   .     A
C314   O344    1.285   .     A
C315   O343    1.286   .     A
C315   O345    1.285   .     A
C316   H319    1.082   .     S
H320   O338    1.012   .     S
H325   N214    1.029   1_655 S
H326   O332    1.014   .     S
H327   O334    1.014   .     S
H328   O336    1.012   .     S
N329   Zn348   2.021   .     S
N329   H208    1.029   1_655 S
N329   N214    1.279   1_655 S
N330   Zn347   2.021   .     S
O331   Zn347   1.984   .     S
O333   C481    1.223   .     S
O339   Zn348   1.984   .     S
O340   Zn348   2.016   .     S
O341   Zn347   2.016   .     S
O342   Zn347   1.993   .     S
O343   Zn348   1.993   .     S
O344   Zn348   2.014   .     S
O345   Zn347   2.014   .     S
C349   O398    1.297   .     A
C349   C370    1.415   .     S
C349   O389    1.273   .     A
C350   C352    1.384   .     A
C350   C361    1.388   .     A
C350   H379    1.082   .     S
C351   C374    1.384   .     A
C351   C373    1.418   .     S
C351   C353    1.394   .     A
C352   C372    1.418   .     S
C352   C354    1.394   .     A
C353   C355    1.396   .     A
C353   Cl375   1.776   .     S
C354   C356    1.396   .     A
C354   Cl376   1.776   .     S
C355   C357    1.419   .     A
C355   C362    1.401   .     A
C356   C363    1.401   .     A
C356   C358    1.419   .     A
C357   C359    1.421   .     A
C357   C880    1.398   1_554 S
C358   C361    1.421   .     A
C358   C879    1.398   .     S
C359   C369    1.414   .     A
C359   C374    1.388   .     A
C360   C371    1.415   .     S
C360   O397    1.273   .     A
C360   O399    1.297   .     A
C361   C368    1.414   .     A
C362   H380    1.082   .     S
C362   C890    1.391   1_554 S
C363   H381    1.082   .     S
C363   C891    1.391   .     S
C364   O390    1.399   .     S
C364   C368    1.487   .     S
C364   O56     1.223   1_565 S
C365   O392    1.399   .     S
C365   C369    1.487   .     S
C366   O394    1.397   .     S
C366   O393    1.223   .     D
C367   O395    1.223   .     D
C367   O396    1.397   .     S
C367   C23     1.485   1_565 S
C368   C884    1.391   .     S
C369   C885    1.391   1_554 S
C370   C18     1.485   1_565 S
C370   C23     1.375   1_565 S
C372   O400    1.286   .     A
C372   O402    1.285   .     A
C373   O401    1.286   .     A
C373   O403    1.285   .     A
C374   H377    1.082   .     S
H378   O396    1.012   .     S
H382   N503    1.029   1_455 S
H383   N446    1.029   .     S
H384   O390    1.014   .     S
H385   O392    1.014   .     S
H386   O394    1.012   .     S
N387   Zn406   2.021   .     S
N387   H440    1.029   .     S
N387   N446    1.279   .     S
N388   Zn405   2.021   .     S
N388   H499    1.029   1_455 S
N388   N503    1.279   1_455 S
O389   Zn405   1.984   .     S
O391   C17     1.223   1_565 S
O397   Zn406   1.984   .     S
O398   Zn406   2.016   .     S
O399   Zn405   2.016   .     S
O400   Zn405   1.993   .     S
O401   Zn406   1.993   .     S
O402   Zn406   2.014   .     S
O403   Zn405   2.014   .     S
C407   O456    1.297   .     A
C407   C428    1.415   .     S
C407   O447    1.273   .     A
C408   C410    1.384   .     A
C408   C419    1.388   .     A
C408   H437    1.082   .     S
C409   C432    1.384   .     A
C409   C431    1.418   .     S
C409   C411    1.394   .     A
C410   C430    1.418   .     S
C410   C412    1.394   .     A
C411   C413    1.396   .     A
C411   Cl433   1.776   .     S
C412   C414    1.396   .     A
C412   Cl434   1.776   .     S
C413   C415    1.419   .     A
C413   C420    1.401   .     A
C414   C421    1.401   .     A
C414   C416    1.419   .     A
C415   C417    1.421   .     A
C415   C938    1.398   1_554 S
C416   C419    1.421   .     A
C416   C937    1.398   .     S
C417   C427    1.414   .     A
C417   C432    1.388   .     A
C418   C429    1.415   .     S
C418   O455    1.273   .     A
C418   O457    1.297   .     A
C419   C426    1.414   .     A
C420   H438    1.082   .     S
C420   C948    1.391   1_554 S
C421   H439    1.082   .     S
C421   C949    1.391   .     S
C422   O448    1.399   .     S
C422   C426    1.487   .     S
C422   O114    1.223   1_565 S
C423   O450    1.399   .     S
C423   C427    1.487   .     S
C424   O452    1.397   .     S
C424   O451    1.223   .     D
C425   O453    1.223   .     D
C425   O454    1.397   .     S
C425   C81     1.485   1_565 S
C426   C942    1.391   .     S
C427   C943    1.391   1_554 S
C428   C76     1.485   1_565 S
C428   C81     1.375   1_565 S
C430   O458    1.286   .     A
C430   O460    1.285   .     A
C431   O459    1.286   .     A
C431   O461    1.285   .     A
C432   H435    1.082   .     S
H436   O454    1.012   .     S
H441   N504    1.029   .     S
H442   O448    1.014   .     S
H443   O450    1.014   .     S
H444   O452    1.012   .     S
N445   Zn464   2.021   .     S
N445   H498    1.029   .     S
N445   N504    1.279   .     S
N446   Zn463   2.021   .     S
O447   Zn463   1.984   .     S
O449   C75     1.223   1_565 S
O455   Zn464   1.984   .     S
O456   Zn464   2.016   .     S
O457   Zn463   2.016   .     S
O458   Zn463   1.993   .     S
O459   Zn464   1.993   .     S
O460   Zn464   2.014   .     S
O461   Zn463   2.014   .     S
C465   O514    1.297   .     A
C465   C486    1.415   .     S
C465   O505    1.273   .     A
C466   C468    1.384   .     A
C466   C477    1.388   .     A
C466   H495    1.082   .     S
C467   C490    1.384   .     A
C467   C489    1.418   .     S
C467   C469    1.394   .     A
C468   C488    1.418   .     S
C468   C470    1.394   .     A
C469   C471    1.396   .     A
C469   Cl491   1.776   .     S
C470   C472    1.396   .     A
C470   Cl492   1.776   .     S
C471   C473    1.419   .     A
C471   C478    1.401   .     A
C472   C479    1.401   .     A
C472   C474    1.419   .     A
C473   C475    1.421   .     A
C473   C996    1.398   1_554 S
C474   C477    1.421   .     A
C474   C995    1.398   .     S
C475   C485    1.414   .     A
C475   C490    1.388   .     A
C476   C487    1.415   .     S
C476   O513    1.273   .     A
C476   O515    1.297   .     A
C477   C484    1.414   .     A
C478   H496    1.082   .     S
C478   C1006   1.391   1_554 S
C479   H497    1.082   .     S
C479   C1007   1.391   .     S
C480   O506    1.399   .     S
C480   C484    1.487   .     S
C480   O172    1.223   1_565 S
C481   O508    1.399   .     S
C481   C485    1.487   .     S
C482   O510    1.397   .     S
C482   O509    1.223   .     D
C483   O511    1.223   .     D
C483   O512    1.397   .     S
C483   C139    1.485   1_565 S
C484   C1000   1.391   .     S
C485   C1001   1.391   1_554 S
C486   C134    1.485   1_565 S
C486   C139    1.375   1_565 S
C488   O516    1.286   .     A
C488   O518    1.285   .     A
C489   O517    1.286   .     A
C489   O519    1.285   .     A
C490   H493    1.082   .     S
H494   O512    1.012   .     S
H499   N388    1.029   1_655 S
H500   O506    1.014   .     S
H501   O508    1.014   .     S
H502   O510    1.012   .     S
N503   Zn522   2.021   .     S
N503   H382    1.029   1_655 S
N503   N388    1.279   1_655 S
N504   Zn521   2.021   .     S
O505   Zn521   1.984   .     S
O507   C133    1.223   1_565 S
O513   Zn522   1.984   .     S
O514   Zn522   2.016   .     S
O515   Zn521   2.016   .     S
O516   Zn521   1.993   .     S
O517   Zn522   1.993   .     S
O518   Zn522   2.014   .     S
O519   Zn521   2.014   .     S
C523   O572    1.297   .     A
C523   C544    1.415   .     S
C523   O563    1.273   .     A
C524   C526    1.384   .     A
C524   C535    1.388   .     A
C524   H553    1.082   .     S
C525   C548    1.384   .     A
C525   C547    1.418   .     S
C525   C527    1.394   .     A
C526   C546    1.418   .     S
C526   C528    1.394   .     A
C527   C529    1.396   .     A
C527   Cl549   1.776   .     S
C528   C530    1.396   .     A
C528   Cl550   1.776   .     S
C529   C531    1.419   .     A
C529   C536    1.401   .     A
C530   C537    1.401   .     A
C530   C532    1.419   .     A
C531   C533    1.421   .     A
C532   C535    1.421   .     A
C532   C9      1.398   1_556 S
C533   C543    1.414   .     A
C533   C548    1.388   .     A
C534   C545    1.415   .     S
C534   O571    1.273   .     A
C534   O573    1.297   .     A
C535   C542    1.414   .     A
C536   H554    1.082   .     S
C537   H555    1.082   .     S
C537   C21     1.391   1_556 S
C538   O564    1.399   .     S
C538   C542    1.487   .     S
C538   O752    1.223   .     S
C539   O566    1.399   .     S
C539   C543    1.487   .     S
C539   O913    1.223   1_545 S
C540   O568    1.397   .     S
C540   O567    1.223   .     D
C540   C892    1.485   1_545 S
C541   O569    1.223   .     D
C541   O570    1.397   .     S
C541   C719    1.485   .     S
C542   C14     1.391   1_556 S
C544   C714    1.485   .     S
C544   C719    1.375   .     S
C545   C892    1.375   1_545 S
C545   C889    1.485   1_545 S
C546   O574    1.286   .     A
C546   O576    1.285   .     A
C547   O575    1.286   .     A
C547   O577    1.285   .     A
C548   H551    1.082   .     S
H552   O570    1.012   .     S
H556   N677    1.029   1_455 S
H557   N620    1.029   .     S
H558   O564    1.014   .     S
H559   O566    1.014   .     S
H560   O568    1.012   .     S
N561   Zn580   2.021   .     S
N561   H614    1.029   .     S
N561   N620    1.279   .     S
N562   Zn579   2.021   .     S
N562   H673    1.029   1_455 S
N562   N677    1.279   1_455 S
O563   Zn579   1.984   .     S
O565   C713    1.223   .     S
O571   Zn580   1.984   .     S
O572   Zn580   2.016   .     S
O573   Zn579   2.016   .     S
O574   Zn579   1.993   .     S
O575   Zn580   1.993   .     S
O576   Zn580   2.014   .     S
O577   Zn579   2.014   .     S
O578   C886    1.223   1_545 S
C581   O630    1.297   .     A
C581   C602    1.415   .     S
C581   O621    1.273   .     A
C582   C584    1.384   .     A
C582   C593    1.388   .     A
C582   H611    1.082   .     S
C583   C606    1.384   .     A
C583   C605    1.418   .     S
C583   C585    1.394   .     A
C584   C604    1.418   .     S
C584   C586    1.394   .     A
C585   C587    1.396   .     A
C585   Cl607   1.776   .     S
C586   C588    1.396   .     A
C586   Cl608   1.776   .     S
C587   C589    1.419   .     A
C587   C594    1.401   .     A
C588   C595    1.401   .     A
C588   C590    1.419   .     A
C589   C591    1.421   .     A
C590   C593    1.421   .     A
C590   C67     1.398   1_556 S
C591   C601    1.414   .     A
C591   C606    1.388   .     A
C592   C603    1.415   .     S
C592   O629    1.273   .     A
C592   O631    1.297   .     A
C593   C600    1.414   .     A
C594   H612    1.082   .     S
C595   H613    1.082   .     S
C595   C79     1.391   1_556 S
C596   O622    1.399   .     S
C596   C600    1.487   .     S
C596   O810    1.223   .     S
C597   O624    1.399   .     S
C597   C601    1.487   .     S
C597   O971    1.223   1_545 S
C598   O626    1.397   .     S
C598   O625    1.223   .     D
C598   C950    1.485   1_545 S
C599   O627    1.223   .     D
C599   O628    1.397   .     S
C599   C777    1.485   .     S
C600   C72     1.391   1_556 S
C602   C772    1.485   .     S
C602   C777    1.375   .     S
C603   C950    1.375   1_545 S
C603   C947    1.485   1_545 S
C604   O632    1.286   .     A
C604   O634    1.285   .     A
C605   O633    1.286   .     A
C605   O635    1.285   .     A
C606   H609    1.082   .     S
H610   O628    1.012   .     S
H615   N678    1.029   .     S
H616   O622    1.014   .     S
H617   O624    1.014   .     S
H618   O626    1.012   .     S
N619   Zn638   2.021   .     S
N619   H672    1.029   .     S
N619   N678    1.279   .     S
N620   Zn637   2.021   .     S
O621   Zn637   1.984   .     S
O623   C771    1.223   .     S
O629   Zn638   1.984   .     S
O630   Zn638   2.016   .     S
O631   Zn637   2.016   .     S
O632   Zn637   1.993   .     S
O633   Zn638   1.993   .     S
O634   Zn638   2.014   .     S
O635   Zn637   2.014   .     S
O636   C944    1.223   1_545 S
C639   O688    1.297   .     A
C639   C660    1.415   .     S
C639   O679    1.273   .     A
C640   C642    1.384   .     A
C640   C651    1.388   .     A
C640   H669    1.082   .     S
C641   C664    1.384   .     A
C641   C663    1.418   .     S
C641   C643    1.394   .     A
C642   C662    1.418   .     S
C642   C644    1.394   .     A
C643   C645    1.396   .     A
C643   Cl665   1.776   .     S
C644   C646    1.396   .     A
C644   Cl666   1.776   .     S
C645   C647    1.419   .     A
C645   C652    1.401   .     A
C646   C653    1.401   .     A
C646   C648    1.419   .     A
C647   C649    1.421   .     A
C648   C651    1.421   .     A
C648   C125    1.398   1_556 S
C649   C659    1.414   .     A
C649   C664    1.388   .     A
C650   C661    1.415   .     S
C650   O687    1.273   .     A
C650   O689    1.297   .     A
C651   C658    1.414   .     A
C652   H670    1.082   .     S
C653   H671    1.082   .     S
C653   C137    1.391   1_556 S
C654   O680    1.399   .     S
C654   C658    1.487   .     S
C654   O868    1.223   .     S
C655   O682    1.399   .     S
C655   C659    1.487   .     S
C655   O1029   1.223   1_545 S
C656   O684    1.397   .     S
C656   O683    1.223   .     D
C656   C1008   1.485   1_545 S
C657   O685    1.223   .     D
C657   O686    1.397   .     S
C657   C835    1.485   .     S
C658   C130    1.391   1_556 S
C660   C830    1.485   .     S
C660   C835    1.375   .     S
C661   C1008   1.375   1_545 S
C661   C1005   1.485   1_545 S
C662   O690    1.286   .     A
C662   O692    1.285   .     A
C663   O691    1.286   .     A
C663   O693    1.285   .     A
C664   H667    1.082   .     S
H668   O686    1.012   .     S
H673   N562    1.029   1_655 S
H674   O680    1.014   .     S
H675   O682    1.014   .     S
H676   O684    1.012   .     S
N677   Zn696   2.021   .     S
N677   H556    1.029   1_655 S
N677   N562    1.279   1_655 S
N678   Zn695   2.021   .     S
O679   Zn695   1.984   .     S
O681   C829    1.223   .     S
O687   Zn696   1.984   .     S
O688   Zn696   2.016   .     S
O689   Zn695   2.016   .     S
O690   Zn695   1.993   .     S
O691   Zn696   1.993   .     S
O692   Zn696   2.014   .     S
O693   Zn695   2.014   .     S
O694   C1002   1.223   1_545 S
C697   O746    1.297   .     A
C697   C718    1.415   .     S
C697   O737    1.273   .     A
C698   C700    1.384   .     A
C698   C709    1.388   .     A
C698   H727    1.082   .     S
C699   C722    1.384   .     A
C699   C721    1.418   .     S
C699   C701    1.394   .     A
C700   C720    1.418   .     S
C700   C702    1.394   .     A
C701   C703    1.396   .     A
C701   Cl723   1.776   .     S
C702   C704    1.396   .     A
C702   Cl724   1.776   .     S
C703   C705    1.419   .     A
C703   C710    1.401   .     A
C704   C711    1.401   .     A
C704   C706    1.419   .     A
C705   C707    1.421   .     A
C706   C709    1.421   .     A
C706   C183    1.398   1_556 S
C707   C717    1.414   .     A
C707   C722    1.388   .     A
C708   C719    1.415   .     S
C708   O745    1.273   .     A
C708   O747    1.297   .     A
C709   C716    1.414   .     A
C710   H728    1.082   .     S
C711   H729    1.082   .     S
C711   C195    1.391   1_556 S
C712   O738    1.399   .     S
C712   C716    1.487   .     S
C712   O926    1.223   .     S
C713   O740    1.399   .     S
C713   C717    1.487   .     S
C714   O742    1.397   .     S
C714   O741    1.223   .     D
C715   O743    1.223   .     D
C715   O744    1.397   .     S
C715   C893    1.485   .     S
C716   C188    1.391   1_556 S
C718   C888    1.485   .     S
C718   C893    1.375   .     S
C720   O748    1.286   .     A
C720   O750    1.285   .     A
C721   O749    1.286   .     A
C721   O751    1.285   .     A
C722   H725    1.082   .     S
H726   O744    1.012   .     S
H730   N851    1.029   1_455 S
H731   N794    1.029   .     S
H732   O738    1.014   .     S
H733   O740    1.014   .     S
H734   O742    1.012   .     S
N735   Zn754   2.021   .     S
N735   H788    1.029   .     S
N735   N794    1.279   .     S
N736   Zn753   2.021   .     S
N736   H847    1.029   1_455 S
N736   N851    1.279   1_455 S
O737   Zn753   1.984   .     S
O739   C887    1.223   .     S
O745   Zn754   1.984   .     S
O746   Zn754   2.016   .     S
O747   Zn753   2.016   .     S
O748   Zn753   1.993   .     S
O749   Zn754   1.993   .     S
O750   Zn754   2.014   .     S
O751   Zn753   2.014   .     S
C755   O804    1.297   .     A
C755   C776    1.415   .     S
C755   O795    1.273   .     A
C756   C758    1.384   .     A
C756   C767    1.388   .     A
C756   H785    1.082   .     S
C757   C780    1.384   .     A
C757   C779    1.418   .     S
C757   C759    1.394   .     A
C758   C778    1.418   .     S
C758   C760    1.394   .     A
C759   C761    1.396   .     A
C759   Cl781   1.776   .     S
C760   C762    1.396   .     A
C760   Cl782   1.776   .     S
C761   C763    1.419   .     A
C761   C768    1.401   .     A
C762   C769    1.401   .     A
C762   C764    1.419   .     A
C763   C765    1.421   .     A
C764   C767    1.421   .     A
C764   C241    1.398   1_556 S
C765   C775    1.414   .     A
C765   C780    1.388   .     A
C766   C777    1.415   .     S
C766   O803    1.273   .     A
C766   O805    1.297   .     A
C767   C774    1.414   .     A
C768   H786    1.082   .     S
C769   H787    1.082   .     S
C769   C253    1.391   1_556 S
C770   O796    1.399   .     S
C770   C774    1.487   .     S
C770   O984    1.223   .     S
C771   O798    1.399   .     S
C771   C775    1.487   .     S
C772   O800    1.397   .     S
C772   O799    1.223   .     D
C773   O801    1.223   .     D
C773   O802    1.397   .     S
C773   C951    1.485   .     S
C774   C246    1.391   1_556 S
C776   C946    1.485   .     S
C776   C951    1.375   .     S
C778   O806    1.286   .     A
C778   O808    1.285   .     A
C779   O807    1.286   .     A
C779   O809    1.285   .     A
C780   H783    1.082   .     S
H784   O802    1.012   .     S
H789   N852    1.029   .     S
H790   O796    1.014   .     S
H791   O798    1.014   .     S
H792   O800    1.012   .     S
N793   Zn812   2.021   .     S
N793   H846    1.029   .     S
N793   N852    1.279   .     S
N794   Zn811   2.021   .     S
O795   Zn811   1.984   .     S
O797   C945    1.223   .     S
O803   Zn812   1.984   .     S
O804   Zn812   2.016   .     S
O805   Zn811   2.016   .     S
O806   Zn811   1.993   .     S
O807   Zn812   1.993   .     S
O808   Zn812   2.014   .     S
O809   Zn811   2.014   .     S
C813   O862    1.297   .     A
C813   C834    1.415   .     S
C813   O853    1.273   .     A
C814   C816    1.384   .     A
C814   C825    1.388   .     A
C814   H843    1.082   .     S
C815   C838    1.384   .     A
C815   C837    1.418   .     S
C815   C817    1.394   .     A
C816   C836    1.418   .     S
C816   C818    1.394   .     A
C817   C819    1.396   .     A
C817   Cl839   1.776   .     S
C818   C820    1.396   .     A
C818   Cl840   1.776   .     S
C819   C821    1.419   .     A
C819   C826    1.401   .     A
C820   C827    1.401   .     A
C820   C822    1.419   .     A
C821   C823    1.421   .     A
C822   C825    1.421   .     A
C822   C299    1.398   1_556 S
C823   C833    1.414   .     A
C823   C838    1.388   .     A
C824   C835    1.415   .     S
C824   O861    1.273   .     A
C824   O863    1.297   .     A
C825   C832    1.414   .     A
C826   H844    1.082   .     S
C827   H845    1.082   .     S
C827   C311    1.391   1_556 S
C828   O854    1.399   .     S
C828   C832    1.487   .     S
C828   O1042   1.223   .     S
C829   O856    1.399   .     S
C829   C833    1.487   .     S
C830   O858    1.397   .     S
C830   O857    1.223   .     D
C831   O859    1.223   .     D
C831   O860    1.397   .     S
C831   C1009   1.485   .     S
C832   C304    1.391   1_556 S
C834   C1004   1.485   .     S
C834   C1009   1.375   .     S
C836   O864    1.286   .     A
C836   O866    1.285   .     A
C837   O865    1.286   .     A
C837   O867    1.285   .     A
C838   H841    1.082   .     S
H842   O860    1.012   .     S
H847   N736    1.029   1_655 S
H848   O854    1.014   .     S
H849   O856    1.014   .     S
H850   O858    1.012   .     S
N851   Zn870   2.021   .     S
N851   H730    1.029   1_655 S
N851   N736    1.279   1_655 S
N852   Zn869   2.021   .     S
O853   Zn869   1.984   .     S
O855   C1003   1.223   .     S
O861   Zn870   1.984   .     S
O862   Zn870   2.016   .     S
O863   Zn869   2.016   .     S
O864   Zn869   1.993   .     S
O865   Zn870   1.993   .     S
O866   Zn870   2.014   .     S
O867   Zn869   2.014   .     S
C871   O920    1.297   .     A
C871   C892    1.415   .     S
C871   O911    1.273   .     A
C872   C874    1.384   .     A
C872   C883    1.388   .     A
C872   H901    1.082   .     S
C873   C896    1.384   .     A
C873   C895    1.418   .     S
C873   C875    1.394   .     A
C874   C894    1.418   .     S
C874   C876    1.394   .     A
C875   C877    1.396   .     A
C875   Cl897   1.776   .     S
C876   C878    1.396   .     A
C876   Cl898   1.776   .     S
C877   C879    1.419   .     A
C877   C884    1.401   .     A
C878   C885    1.401   .     A
C878   C880    1.419   .     A
C879   C881    1.421   .     A
C880   C883    1.421   .     A
C880   C357    1.398   1_556 S
C881   C891    1.414   .     A
C881   C896    1.388   .     A
C882   C893    1.415   .     S
C882   O919    1.273   .     A
C882   O921    1.297   .     A
C883   C890    1.414   .     A
C884   H902    1.082   .     S
C885   H903    1.082   .     S
C885   C369    1.391   1_556 S
C886   O912    1.399   .     S
C886   C890    1.487   .     S
C886   O578    1.223   1_565 S
C887   O914    1.399   .     S
C887   C891    1.487   .     S
C888   O916    1.397   .     S
C888   O915    1.223   .     D
C889   O917    1.223   .     D
C889   O918    1.397   .     S
C889   C545    1.485   1_565 S
C890   C362    1.391   1_556 S
C892   C540    1.485   1_565 S
C892   C545    1.375   1_565 S
C894   O922    1.286   .     A
C894   O924    1.285   .     A
C895   O923    1.286   .     A
C895   O925    1.285   .     A
C896   H899    1.082   .     S
H900   O918    1.012   .     S
H904   N1025   1.029   1_455 S
H905   N968    1.029   .     S
H906   O912    1.014   .     S
H907   O914    1.014   .     S
H908   O916    1.012   .     S
N909   Zn928   2.021   .     S
N909   H962    1.029   .     S
N909   N968    1.279   .     S
N910   Zn927   2.021   .     S
N910   H1021   1.029   1_455 S
N910   N1025   1.279   1_455 S
O911   Zn927   1.984   .     S
O913   C539    1.223   1_565 S
O919   Zn928   1.984   .     S
O920   Zn928   2.016   .     S
O921   Zn927   2.016   .     S
O922   Zn927   1.993   .     S
O923   Zn928   1.993   .     S
O924   Zn928   2.014   .     S
O925   Zn927   2.014   .     S
C929   O978    1.297   .     A
C929   C950    1.415   .     S
C929   O969    1.273   .     A
C930   C932    1.384   .     A
C930   C941    1.388   .     A
C930   H959    1.082   .     S
C931   C954    1.384   .     A
C931   C953    1.418   .     S
C931   C933    1.394   .     A
C932   C952    1.418   .     S
C932   C934    1.394   .     A
C933   C935    1.396   .     A
C933   Cl955   1.776   .     S
C934   C936    1.396   .     A
C934   Cl956   1.776   .     S
C935   C937    1.419   .     A
C935   C942    1.401   .     A
C936   C943    1.401   .     A
C936   C938    1.419   .     A
C937   C939    1.421   .     A
C938   C941    1.421   .     A
C938   C415    1.398   1_556 S
C939   C949    1.414   .     A
C939   C954    1.388   .     A
C940   C951    1.415   .     S
C940   O977    1.273   .     A
C940   O979    1.297   .     A
C941   C948    1.414   .     A
C942   H960    1.082   .     S
C943   H961    1.082   .     S
C943   C427    1.391   1_556 S
C944   O970    1.399   .     S
C944   C948    1.487   .     S
C944   O636    1.223   1_565 S
C945   O972    1.399   .     S
C945   C949    1.487   .     S
C946   O974    1.397   .     S
C946   O973    1.223   .     D
C947   O975    1.223   .     D
C947   O976    1.397   .     S
C947   C603    1.485   1_565 S
C948   C420    1.391   1_556 S
C950   C598    1.485   1_565 S
C950   C603    1.375   1_565 S
C952   O980    1.286   .     A
C952   O982    1.285   .     A
C953   O981    1.286   .     A
C953   O983    1.285   .     A
C954   H957    1.082   .     S
H958   O976    1.012   .     S
H963   N1026   1.029   .     S
H964   O970    1.014   .     S
H965   O972    1.014   .     S
H966   O974    1.012   .     S
N967   Zn986   2.021   .     S
N967   H1020   1.029   .     S
N967   N1026   1.279   .     S
N968   Zn985   2.021   .     S
O969   Zn985   1.984   .     S
O971   C597    1.223   1_565 S
O977   Zn986   1.984   .     S
O978   Zn986   2.016   .     S
O979   Zn985   2.016   .     S
O980   Zn985   1.993   .     S
O981   Zn986   1.993   .     S
O982   Zn986   2.014   .     S
O983   Zn985   2.014   .     S
C987   O1036   1.297   .     A
C987   C1008   1.415   .     S
C987   O1027   1.273   .     A
C988   C990    1.384   .     A
C988   C999    1.388   .     A
C988   H1017   1.082   .     S
C989   C1012   1.384   .     A
C989   C1011   1.418   .     S
C989   C991    1.394   .     A
C990   C1010   1.418   .     S
C990   C992    1.394   .     A
C991   C993    1.396   .     A
C991   Cl1013  1.776   .     S
C992   C994    1.396   .     A
C992   Cl1014  1.776   .     S
C993   C995    1.419   .     A
C993   C1000   1.401   .     A
C994   C1001   1.401   .     A
C994   C996    1.419   .     A
C995   C997    1.421   .     A
C996   C999    1.421   .     A
C996   C473    1.398   1_556 S
C997   C1007   1.414   .     A
C997   C1012   1.388   .     A
C998   C1009   1.415   .     S
C998   O1035   1.273   .     A
C998   O1037   1.297   .     A
C999   C1006   1.414   .     A
C1000  H1018   1.082   .     S
C1001  H1019   1.082   .     S
C1001  C485    1.391   1_556 S
C1002  O1028   1.399   .     S
C1002  C1006   1.487   .     S
C1002  O694    1.223   1_565 S
C1003  O1030   1.399   .     S
C1003  C1007   1.487   .     S
C1004  O1032   1.397   .     S
C1004  O1031   1.223   .     D
C1005  O1033   1.223   .     D
C1005  O1034   1.397   .     S
C1005  C661    1.485   1_565 S
C1006  C478    1.391   1_556 S
C1008  C656    1.485   1_565 S
C1008  C661    1.375   1_565 S
C1010  O1038   1.286   .     A
C1010  O1040   1.285   .     A
C1011  O1039   1.286   .     A
C1011  O1041   1.285   .     A
C1012  H1015   1.082   .     S
H1016  O1034   1.012   .     S
H1021  N910    1.029   1_655 S
H1022  O1028   1.014   .     S
H1023  O1030   1.014   .     S
H1024  O1032   1.012   .     S
N1025  Zn1044  2.021   .     S
N1025  H904    1.029   1_655 S
N1025  N910    1.279   1_655 S
N1026  Zn1043  2.021   .     S
O1027  Zn1043  1.984   .     S
O1029  C655    1.223   1_565 S
O1035  Zn1044  1.984   .     S
O1036  Zn1044  2.016   .     S
O1037  Zn1043  2.016   .     S
O1038  Zn1043  1.993   .     S
O1039  Zn1044  1.993   .     S
O1040  Zn1044  2.014   .     S
O1041  Zn1043  2.014   .     S
