data_str_m2_o1_o16_pcu_sym.156
_audit_creation_date              2020-01-03
_audit_creation_method            'Materials Studio'
_symmetry_space_group_name_H-M    'P1'
_symmetry_Int_Tables_number       1
_symmetry_cell_setting            triclinic
loop_
_symmetry_equiv_pos_as_xyz
  x,y,z
_cell_length_a                    28.7807
_cell_length_b                    32.4106
_cell_length_c                    26.9568
_cell_angle_alpha                 91.4502
_cell_angle_beta                  72.9981
_cell_angle_gamma                 88.1233
loop_
_atom_site_label
_atom_site_type_symbol
_atom_site_fract_x
_atom_site_fract_y
_atom_site_fract_z
_atom_site_U_iso_or_equiv
_atom_site_adp_type
_atom_site_occupancy
C1     C     0.16714   0.24583   0.24734   0.00000  Uiso   1.00
C2     C     0.14453   0.17064   0.48991   0.00000  Uiso   1.00
C3     C     0.15582   0.18083   0.43694   0.00000  Uiso   1.00
C4     C     0.17987   0.17687   0.01676   0.00000  Uiso   1.00
C5     C     0.22396   0.19618   0.49181   0.00000  Uiso   1.00
C6     C     0.23122   0.21008   0.44161   0.00000  Uiso   1.00
C7     C     0.19734   0.20350   0.41526   0.00000  Uiso   1.00
C8     C     0.17281   0.16418   0.06767   0.00000  Uiso   1.00
C9     C     0.25036   0.18973   0.06915   0.00000  Uiso   1.00
C10    C     0.12485   0.16856   0.40728   0.00000  Uiso   1.00
C11    C     0.21119   0.31059   0.21587   0.00000  Uiso   1.00
C12    C     0.14058   0.16817   0.35001   0.00000  Uiso   1.00
C13    C     0.21061   0.02056   0.21944   0.00000  Uiso   1.00
C14    C     0.16866   0.04299   0.24802   0.00000  Uiso   1.00
C15    C     0.12686   0.02299   0.27372   0.00000  Uiso   1.00
C16    C     0.12717   0.31387   0.27204   0.00000  Uiso   1.00
C17    C     0.16849   0.29062   0.24392   0.00000  Uiso   1.00
C18    C     0.29894   0.19609   0.27704   0.00000  Uiso   1.00
C19    C     0.01504   0.19803   0.27551   0.00000  Uiso   1.00
C20    C     0.03297   0.13608   0.22424   0.00000  Uiso   1.00
C21    C     0.31704   0.13645   0.22363   0.00000  Uiso   1.00
C22    C     0.16740   0.08752   0.24947   0.00000  Uiso   1.00
C23    C     0.19256   0.16690   0.15029   0.00000  Uiso   1.00
C24    C     0.25934   0.20201   0.01830   0.00000  Uiso   1.00
C25    C     0.20661   0.17210   0.09433   0.00000  Uiso   1.00
C26    C     0.07960   0.15263   0.43243   0.00000  Uiso   1.00
C27    C     0.06600   0.14695   0.48548   0.00000  Uiso   1.00
C28    C     0.09816   0.15501   0.01391   0.00000  Uiso   1.00
Cu29   Cu    0.11978   0.16666   0.25000   0.00000  Uiso   1.00
Cu30   Cu    0.21355   0.16667   0.25000   0.00000  Uiso   1.00
H31    H     0.27673   0.19582   0.08975   0.00000  Uiso   1.00
H32    H     0.24204   0.03741   0.19955   0.00000  Uiso   1.00
H33    H     0.09427   0.04022   0.29619   0.00000  Uiso   1.00
H34    H     0.09551   0.29924   0.29436   0.00000  Uiso   1.00
H35    H     0.27226   0.21953   0.29789   0.00000  Uiso   1.00
H36    H     0.05800   0.11162   0.20323   0.00000  Uiso   1.00
H37    H     0.30539   0.11225   0.20216   0.00000  Uiso   1.00
H38    H     0.26324   0.22607   0.42196   0.00000  Uiso   1.00
H39    H     0.14093   0.14834   0.08808   0.00000  Uiso   1.00
H40    H     0.05491   0.14365   0.41088   0.00000  Uiso   1.00
H41    H     0.08503   0.14944   0.05476   0.00000  Uiso   1.00
H42    H     0.03074   0.13506   0.00451   0.00000  Uiso   1.00
H43    H     0.20382   0.21742   0.37804   0.00000  Uiso   1.00
N44    N     0.04931   0.16666   0.24998   0.00000  Uiso   1.00
N45    N     0.28402   0.16669   0.25000   0.00000  Uiso   1.00
O46    O     0.12708   0.22678   0.25000   0.00000  Uiso   1.00
O47    O     0.20627   0.22679   0.25000   0.00000  Uiso   1.00
O48    O     0.10775   0.16665   0.32549   0.00000  Uiso   1.00
O49    O     0.18694   0.16666   0.32549   0.00000  Uiso   1.00
O50    O     0.12706   0.10654   0.25000   0.00000  Uiso   1.00
O51    O     0.20625   0.10655   0.25000   0.00000  Uiso   1.00
O52    O     0.14640   0.16667   0.17451   0.00000  Uiso   1.00
O53    O     0.22559   0.16668   0.17451   0.00000  Uiso   1.00
C54    C     0.02640   0.23936   0.29648   0.00000  Uiso   1.00
C55    C     0.03803   0.23786   0.34868   0.00000  Uiso   1.00
C56    C     0.01838   0.27647   0.38353   0.00000  Uiso   1.00
H57    H     0.03203   0.30508   0.36371   0.00000  Uiso   1.00
H58    H     0.31148   0.27887   0.39468   0.00000  Uiso   1.00
H59    H     0.03024   0.27497   0.41911   0.00000  Uiso   1.00
H60    H     0.02231   0.21024   0.36984   0.00000  Uiso   1.00
H61    H     0.07778   0.23641   0.34196   0.00000  Uiso   1.00
H62    H     0.05262   0.25525   0.26572   0.00000  Uiso   1.00
H63    H     0.32789   0.26140   0.30266   0.00000  Uiso   1.00
N64    N     0.30387   0.22184   0.49545   0.00000  Uiso   1.00
H65    H     0.32277   0.20543   0.46131   0.00000  Uiso   1.00
H66    H     0.29538   0.25188   0.48684   0.00000  Uiso   1.00
C67    C     0.25609   0.28567   0.18281   0.00000  Uiso   1.00
C68    C     0.29461   0.31032   0.14446   0.00000  Uiso   1.00
C69    C     0.00167   0.28171   0.10991   0.00000  Uiso   1.00
H70    H     0.01919   0.26294   0.13392   0.00000  Uiso   1.00
H71    H     0.32009   0.26083   0.08565   0.00000  Uiso   1.00
H72    H     0.02966   0.30039   0.08382   0.00000  Uiso   1.00
H73    H     0.27743   0.32826   0.11939   0.00000  Uiso   1.00
H74    H     0.31147   0.33190   0.16619   0.00000  Uiso   1.00
H75    H     0.27402   0.27013   0.20904   0.00000  Uiso   1.00
H76    H     0.24379   0.26159   0.15988   0.00000  Uiso   1.00
C77    C     0.50048   0.24583   0.24734   0.00000  Uiso   1.00
C78    C     0.47786   0.17064   0.48991   0.00000  Uiso   1.00
C79    C     0.48915   0.18083   0.43694   0.00000  Uiso   1.00
C80    C     0.51320   0.17687   0.01676   0.00000  Uiso   1.00
C81    C     0.55729   0.19618   0.49181   0.00000  Uiso   1.00
C82    C     0.56455   0.21008   0.44161   0.00000  Uiso   1.00
C83    C     0.53067   0.20350   0.41526   0.00000  Uiso   1.00
C84    C     0.50614   0.16418   0.06767   0.00000  Uiso   1.00
C85    C     0.58369   0.18973   0.06915   0.00000  Uiso   1.00
C86    C     0.45818   0.16856   0.40728   0.00000  Uiso   1.00
C87    C     0.54452   0.31059   0.21587   0.00000  Uiso   1.00
C88    C     0.47392   0.16817   0.35001   0.00000  Uiso   1.00
C89    C     0.54394   0.02056   0.21944   0.00000  Uiso   1.00
C90    C     0.50199   0.04299   0.24802   0.00000  Uiso   1.00
C91    C     0.46020   0.02299   0.27372   0.00000  Uiso   1.00
C92    C     0.46050   0.31387   0.27204   0.00000  Uiso   1.00
C93    C     0.50182   0.29062   0.24392   0.00000  Uiso   1.00
C94    C     0.63227   0.19609   0.27704   0.00000  Uiso   1.00
C95    C     0.34837   0.19803   0.27551   0.00000  Uiso   1.00
C96    C     0.36630   0.13608   0.22424   0.00000  Uiso   1.00
C97    C     0.65037   0.13645   0.22363   0.00000  Uiso   1.00
C98    C     0.50073   0.08752   0.24947   0.00000  Uiso   1.00
C99    C     0.52589   0.16690   0.15029   0.00000  Uiso   1.00
C100   C     0.59268   0.20201   0.01830   0.00000  Uiso   1.00
C101   C     0.53994   0.17210   0.09433   0.00000  Uiso   1.00
C102   C     0.41293   0.15263   0.43243   0.00000  Uiso   1.00
C103   C     0.39934   0.14695   0.48548   0.00000  Uiso   1.00
C104   C     0.43149   0.15501   0.01391   0.00000  Uiso   1.00
Cu105  Cu    0.45311   0.16666   0.25000   0.00000  Uiso   1.00
Cu106  Cu    0.54689   0.16667   0.25000   0.00000  Uiso   1.00
H107   H     0.61006   0.19582   0.08975   0.00000  Uiso   1.00
H108   H     0.57538   0.03741   0.19955   0.00000  Uiso   1.00
H109   H     0.42760   0.04022   0.29619   0.00000  Uiso   1.00
H110   H     0.42884   0.29924   0.29436   0.00000  Uiso   1.00
H111   H     0.60559   0.21953   0.29789   0.00000  Uiso   1.00
H112   H     0.39133   0.11162   0.20323   0.00000  Uiso   1.00
H113   H     0.63872   0.11225   0.20216   0.00000  Uiso   1.00
H114   H     0.59657   0.22607   0.42196   0.00000  Uiso   1.00
H115   H     0.47427   0.14834   0.08808   0.00000  Uiso   1.00
H116   H     0.38825   0.14365   0.41088   0.00000  Uiso   1.00
H117   H     0.41836   0.14944   0.05476   0.00000  Uiso   1.00
H118   H     0.36408   0.13506   0.00451   0.00000  Uiso   1.00
H119   H     0.53715   0.21742   0.37804   0.00000  Uiso   1.00
N120   N     0.38265   0.16666   0.24998   0.00000  Uiso   1.00
N121   N     0.61735   0.16669   0.25000   0.00000  Uiso   1.00
O122   O     0.46042   0.22678   0.25000   0.00000  Uiso   1.00
O123   O     0.53961   0.22679   0.25000   0.00000  Uiso   1.00
O124   O     0.44108   0.16665   0.32549   0.00000  Uiso   1.00
O125   O     0.52027   0.16666   0.32549   0.00000  Uiso   1.00
O126   O     0.46039   0.10654   0.25000   0.00000  Uiso   1.00
O127   O     0.53958   0.10655   0.25000   0.00000  Uiso   1.00
O128   O     0.47973   0.16667   0.17451   0.00000  Uiso   1.00
O129   O     0.55892   0.16668   0.17451   0.00000  Uiso   1.00
C130   C     0.35973   0.23936   0.29648   0.00000  Uiso   1.00
C131   C     0.37136   0.23786   0.34868   0.00000  Uiso   1.00
C132   C     0.35171   0.27647   0.38353   0.00000  Uiso   1.00
H133   H     0.36536   0.30508   0.36371   0.00000  Uiso   1.00
H134   H     0.64481   0.27887   0.39468   0.00000  Uiso   1.00
H135   H     0.36357   0.27497   0.41911   0.00000  Uiso   1.00
H136   H     0.35565   0.21024   0.36984   0.00000  Uiso   1.00
H137   H     0.41111   0.23641   0.34196   0.00000  Uiso   1.00
H138   H     0.38595   0.25525   0.26572   0.00000  Uiso   1.00
H139   H     0.66122   0.26140   0.30266   0.00000  Uiso   1.00
N140   N     0.63720   0.22184   0.49545   0.00000  Uiso   1.00
H141   H     0.65611   0.20543   0.46131   0.00000  Uiso   1.00
H142   H     0.62872   0.25188   0.48684   0.00000  Uiso   1.00
C143   C     0.58942   0.28567   0.18281   0.00000  Uiso   1.00
C144   C     0.62795   0.31032   0.14446   0.00000  Uiso   1.00
C145   C     0.33500   0.28171   0.10991   0.00000  Uiso   1.00
H146   H     0.35253   0.26294   0.13392   0.00000  Uiso   1.00
H147   H     0.65343   0.26083   0.08565   0.00000  Uiso   1.00
H148   H     0.36299   0.30039   0.08382   0.00000  Uiso   1.00
H149   H     0.61076   0.32826   0.11939   0.00000  Uiso   1.00
H150   H     0.64481   0.33190   0.16619   0.00000  Uiso   1.00
H151   H     0.60735   0.27013   0.20904   0.00000  Uiso   1.00
H152   H     0.57713   0.26159   0.15988   0.00000  Uiso   1.00
C153   C     0.83381   0.24583   0.24734   0.00000  Uiso   1.00
C154   C     0.81119   0.17064   0.48991   0.00000  Uiso   1.00
C155   C     0.82248   0.18083   0.43694   0.00000  Uiso   1.00
C156   C     0.84653   0.17687   0.01676   0.00000  Uiso   1.00
C157   C     0.89062   0.19618   0.49181   0.00000  Uiso   1.00
C158   C     0.89789   0.21008   0.44161   0.00000  Uiso   1.00
C159   C     0.86400   0.20350   0.41526   0.00000  Uiso   1.00
C160   C     0.83948   0.16418   0.06767   0.00000  Uiso   1.00
C161   C     0.91703   0.18973   0.06915   0.00000  Uiso   1.00
C162   C     0.79151   0.16856   0.40728   0.00000  Uiso   1.00
C163   C     0.87786   0.31059   0.21587   0.00000  Uiso   1.00
C164   C     0.80725   0.16817   0.35001   0.00000  Uiso   1.00
C165   C     0.87728   0.02056   0.21944   0.00000  Uiso   1.00
C166   C     0.83532   0.04299   0.24802   0.00000  Uiso   1.00
C167   C     0.79353   0.02299   0.27372   0.00000  Uiso   1.00
C168   C     0.79384   0.31387   0.27204   0.00000  Uiso   1.00
C169   C     0.83516   0.29062   0.24392   0.00000  Uiso   1.00
C170   C     0.96560   0.19609   0.27704   0.00000  Uiso   1.00
C171   C     0.68170   0.19803   0.27551   0.00000  Uiso   1.00
C172   C     0.69964   0.13608   0.22424   0.00000  Uiso   1.00
C173   C     0.98371   0.13645   0.22363   0.00000  Uiso   1.00
C174   C     0.83406   0.08752   0.24947   0.00000  Uiso   1.00
C175   C     0.85923   0.16690   0.15029   0.00000  Uiso   1.00
C176   C     0.92601   0.20201   0.01830   0.00000  Uiso   1.00
C177   C     0.87327   0.17210   0.09433   0.00000  Uiso   1.00
C178   C     0.74627   0.15263   0.43243   0.00000  Uiso   1.00
C179   C     0.73267   0.14695   0.48548   0.00000  Uiso   1.00
C180   C     0.76483   0.15501   0.01391   0.00000  Uiso   1.00
Cu181  Cu    0.78645   0.16666   0.25000   0.00000  Uiso   1.00
Cu182  Cu    0.88022   0.16667   0.25000   0.00000  Uiso   1.00
H183   H     0.94339   0.19582   0.08975   0.00000  Uiso   1.00
H184   H     0.90871   0.03741   0.19955   0.00000  Uiso   1.00
H185   H     0.76094   0.04022   0.29619   0.00000  Uiso   1.00
H186   H     0.76218   0.29924   0.29436   0.00000  Uiso   1.00
H187   H     0.93892   0.21953   0.29789   0.00000  Uiso   1.00
H188   H     0.72466   0.11162   0.20323   0.00000  Uiso   1.00
H189   H     0.97205   0.11225   0.20216   0.00000  Uiso   1.00
H190   H     0.92990   0.22607   0.42196   0.00000  Uiso   1.00
H191   H     0.80760   0.14834   0.08808   0.00000  Uiso   1.00
H192   H     0.72158   0.14365   0.41088   0.00000  Uiso   1.00
H193   H     0.75169   0.14944   0.05476   0.00000  Uiso   1.00
H194   H     0.69741   0.13506   0.00451   0.00000  Uiso   1.00
H195   H     0.87049   0.21742   0.37804   0.00000  Uiso   1.00
N196   N     0.71598   0.16666   0.24998   0.00000  Uiso   1.00
N197   N     0.95069   0.16669   0.25000   0.00000  Uiso   1.00
O198   O     0.79375   0.22678   0.25000   0.00000  Uiso   1.00
O199   O     0.87294   0.22679   0.25000   0.00000  Uiso   1.00
O200   O     0.77441   0.16665   0.32549   0.00000  Uiso   1.00
O201   O     0.85360   0.16666   0.32549   0.00000  Uiso   1.00
O202   O     0.79373   0.10654   0.25000   0.00000  Uiso   1.00
O203   O     0.87292   0.10655   0.25000   0.00000  Uiso   1.00
O204   O     0.81306   0.16667   0.17451   0.00000  Uiso   1.00
O205   O     0.89225   0.16668   0.17451   0.00000  Uiso   1.00
C206   C     0.69306   0.23936   0.29648   0.00000  Uiso   1.00
C207   C     0.70470   0.23786   0.34868   0.00000  Uiso   1.00
C208   C     0.68504   0.27647   0.38353   0.00000  Uiso   1.00
H209   H     0.69870   0.30508   0.36371   0.00000  Uiso   1.00
H210   H     0.97814   0.27887   0.39468   0.00000  Uiso   1.00
H211   H     0.69690   0.27497   0.41911   0.00000  Uiso   1.00
H212   H     0.68898   0.21024   0.36984   0.00000  Uiso   1.00
H213   H     0.74444   0.23641   0.34196   0.00000  Uiso   1.00
H214   H     0.71928   0.25525   0.26572   0.00000  Uiso   1.00
H215   H     0.99456   0.26140   0.30266   0.00000  Uiso   1.00
N216   N     0.97054   0.22184   0.49545   0.00000  Uiso   1.00
H217   H     0.98944   0.20543   0.46131   0.00000  Uiso   1.00
H218   H     0.96205   0.25188   0.48684   0.00000  Uiso   1.00
C219   C     0.92275   0.28567   0.18281   0.00000  Uiso   1.00
C220   C     0.96128   0.31032   0.14446   0.00000  Uiso   1.00
C221   C     0.66833   0.28171   0.10991   0.00000  Uiso   1.00
H222   H     0.68586   0.26294   0.13392   0.00000  Uiso   1.00
H223   H     0.98676   0.26083   0.08565   0.00000  Uiso   1.00
H224   H     0.69633   0.30039   0.08382   0.00000  Uiso   1.00
H225   H     0.94409   0.32826   0.11939   0.00000  Uiso   1.00
H226   H     0.97814   0.33190   0.16619   0.00000  Uiso   1.00
H227   H     0.94068   0.27013   0.20904   0.00000  Uiso   1.00
H228   H     0.91046   0.26159   0.15988   0.00000  Uiso   1.00
C229   C     0.16714   0.57916   0.24734   0.00000  Uiso   1.00
C230   C     0.14453   0.50397   0.48991   0.00000  Uiso   1.00
C231   C     0.15582   0.51416   0.43694   0.00000  Uiso   1.00
C232   C     0.17987   0.51020   0.01676   0.00000  Uiso   1.00
C233   C     0.22396   0.52951   0.49181   0.00000  Uiso   1.00
C234   C     0.23122   0.54341   0.44161   0.00000  Uiso   1.00
C235   C     0.19734   0.53683   0.41526   0.00000  Uiso   1.00
C236   C     0.17281   0.49751   0.06767   0.00000  Uiso   1.00
C237   C     0.25036   0.52307   0.06915   0.00000  Uiso   1.00
C238   C     0.12485   0.50189   0.40728   0.00000  Uiso   1.00
C239   C     0.21119   0.64392   0.21587   0.00000  Uiso   1.00
C240   C     0.14058   0.50151   0.35001   0.00000  Uiso   1.00
C241   C     0.21061   0.35390   0.21944   0.00000  Uiso   1.00
C242   C     0.16866   0.37632   0.24802   0.00000  Uiso   1.00
C243   C     0.12686   0.35633   0.27372   0.00000  Uiso   1.00
C244   C     0.12717   0.64721   0.27204   0.00000  Uiso   1.00
C245   C     0.16849   0.62396   0.24392   0.00000  Uiso   1.00
C246   C     0.29894   0.52943   0.27704   0.00000  Uiso   1.00
C247   C     0.01504   0.53136   0.27551   0.00000  Uiso   1.00
C248   C     0.03297   0.46941   0.22424   0.00000  Uiso   1.00
C249   C     0.31704   0.46978   0.22363   0.00000  Uiso   1.00
C250   C     0.16740   0.42086   0.24947   0.00000  Uiso   1.00
C251   C     0.19256   0.50023   0.15029   0.00000  Uiso   1.00
C252   C     0.25934   0.53535   0.01830   0.00000  Uiso   1.00
C253   C     0.20661   0.50543   0.09433   0.00000  Uiso   1.00
C254   C     0.07960   0.48596   0.43243   0.00000  Uiso   1.00
C255   C     0.06600   0.48029   0.48548   0.00000  Uiso   1.00
C256   C     0.09816   0.48834   0.01391   0.00000  Uiso   1.00
Cu257  Cu    0.11978   0.49999   0.25000   0.00000  Uiso   1.00
Cu258  Cu    0.21355   0.50001   0.25000   0.00000  Uiso   1.00
H259   H     0.27673   0.52915   0.08975   0.00000  Uiso   1.00
H260   H     0.24204   0.37075   0.19955   0.00000  Uiso   1.00
H261   H     0.09427   0.37356   0.29619   0.00000  Uiso   1.00
H262   H     0.09551   0.63257   0.29436   0.00000  Uiso   1.00
H263   H     0.27226   0.55286   0.29789   0.00000  Uiso   1.00
H264   H     0.05800   0.44495   0.20323   0.00000  Uiso   1.00
H265   H     0.30539   0.44559   0.20216   0.00000  Uiso   1.00
H266   H     0.26324   0.55941   0.42196   0.00000  Uiso   1.00
H267   H     0.14093   0.48167   0.08808   0.00000  Uiso   1.00
H268   H     0.05491   0.47699   0.41088   0.00000  Uiso   1.00
H269   H     0.08503   0.48277   0.05476   0.00000  Uiso   1.00
H270   H     0.03074   0.46839   0.00451   0.00000  Uiso   1.00
H271   H     0.20382   0.55076   0.37804   0.00000  Uiso   1.00
N272   N     0.04931   0.49999   0.24998   0.00000  Uiso   1.00
N273   N     0.28402   0.50002   0.25000   0.00000  Uiso   1.00
O274   O     0.12708   0.56011   0.25000   0.00000  Uiso   1.00
O275   O     0.20627   0.56012   0.25000   0.00000  Uiso   1.00
O276   O     0.10775   0.49998   0.32549   0.00000  Uiso   1.00
O277   O     0.18694   0.49999   0.32549   0.00000  Uiso   1.00
O278   O     0.12706   0.43988   0.25000   0.00000  Uiso   1.00
O279   O     0.20625   0.43989   0.25000   0.00000  Uiso   1.00
O280   O     0.14640   0.50001   0.17451   0.00000  Uiso   1.00
O281   O     0.22559   0.50002   0.17451   0.00000  Uiso   1.00
C282   C     0.02640   0.57270   0.29648   0.00000  Uiso   1.00
C283   C     0.03803   0.57119   0.34868   0.00000  Uiso   1.00
C284   C     0.01838   0.60980   0.38353   0.00000  Uiso   1.00
H285   H     0.03203   0.63841   0.36371   0.00000  Uiso   1.00
H286   H     0.31148   0.61220   0.39468   0.00000  Uiso   1.00
H287   H     0.03024   0.60830   0.41911   0.00000  Uiso   1.00
H288   H     0.02231   0.54357   0.36984   0.00000  Uiso   1.00
H289   H     0.07778   0.56974   0.34196   0.00000  Uiso   1.00
H290   H     0.05262   0.58858   0.26572   0.00000  Uiso   1.00
H291   H     0.32789   0.59474   0.30266   0.00000  Uiso   1.00
N292   N     0.30387   0.55517   0.49545   0.00000  Uiso   1.00
H293   H     0.32277   0.53877   0.46131   0.00000  Uiso   1.00
H294   H     0.29538   0.58522   0.48684   0.00000  Uiso   1.00
C295   C     0.25609   0.61900   0.18281   0.00000  Uiso   1.00
C296   C     0.29461   0.64366   0.14446   0.00000  Uiso   1.00
C297   C     0.00167   0.61504   0.10991   0.00000  Uiso   1.00
H298   H     0.01919   0.59628   0.13392   0.00000  Uiso   1.00
H299   H     0.32009   0.59416   0.08565   0.00000  Uiso   1.00
H300   H     0.02966   0.63372   0.08382   0.00000  Uiso   1.00
H301   H     0.27743   0.66159   0.11939   0.00000  Uiso   1.00
H302   H     0.31147   0.66523   0.16619   0.00000  Uiso   1.00
H303   H     0.27402   0.60346   0.20904   0.00000  Uiso   1.00
H304   H     0.24379   0.59493   0.15988   0.00000  Uiso   1.00
C305   C     0.50048   0.57916   0.24734   0.00000  Uiso   1.00
C306   C     0.47786   0.50397   0.48991   0.00000  Uiso   1.00
C307   C     0.48915   0.51416   0.43694   0.00000  Uiso   1.00
C308   C     0.51320   0.51020   0.01676   0.00000  Uiso   1.00
C309   C     0.55729   0.52951   0.49181   0.00000  Uiso   1.00
C310   C     0.56455   0.54341   0.44161   0.00000  Uiso   1.00
C311   C     0.53067   0.53683   0.41526   0.00000  Uiso   1.00
C312   C     0.50614   0.49751   0.06767   0.00000  Uiso   1.00
C313   C     0.58369   0.52307   0.06915   0.00000  Uiso   1.00
C314   C     0.45818   0.50189   0.40728   0.00000  Uiso   1.00
C315   C     0.54452   0.64392   0.21587   0.00000  Uiso   1.00
C316   C     0.47392   0.50151   0.35001   0.00000  Uiso   1.00
C317   C     0.54394   0.35390   0.21944   0.00000  Uiso   1.00
C318   C     0.50199   0.37632   0.24802   0.00000  Uiso   1.00
C319   C     0.46020   0.35633   0.27372   0.00000  Uiso   1.00
C320   C     0.46050   0.64721   0.27204   0.00000  Uiso   1.00
C321   C     0.50182   0.62396   0.24392   0.00000  Uiso   1.00
C322   C     0.63227   0.52943   0.27704   0.00000  Uiso   1.00
C323   C     0.34837   0.53136   0.27551   0.00000  Uiso   1.00
C324   C     0.36630   0.46941   0.22424   0.00000  Uiso   1.00
C325   C     0.65037   0.46978   0.22363   0.00000  Uiso   1.00
C326   C     0.50073   0.42086   0.24947   0.00000  Uiso   1.00
C327   C     0.52589   0.50023   0.15029   0.00000  Uiso   1.00
C328   C     0.59268   0.53535   0.01830   0.00000  Uiso   1.00
C329   C     0.53994   0.50543   0.09433   0.00000  Uiso   1.00
C330   C     0.41293   0.48596   0.43243   0.00000  Uiso   1.00
C331   C     0.39934   0.48029   0.48548   0.00000  Uiso   1.00
C332   C     0.43149   0.48834   0.01391   0.00000  Uiso   1.00
Cu333  Cu    0.45311   0.49999   0.25000   0.00000  Uiso   1.00
Cu334  Cu    0.54689   0.50001   0.25000   0.00000  Uiso   1.00
H335   H     0.61006   0.52915   0.08975   0.00000  Uiso   1.00
H336   H     0.57538   0.37075   0.19955   0.00000  Uiso   1.00
H337   H     0.42760   0.37356   0.29619   0.00000  Uiso   1.00
H338   H     0.42884   0.63257   0.29436   0.00000  Uiso   1.00
H339   H     0.60559   0.55286   0.29789   0.00000  Uiso   1.00
H340   H     0.39133   0.44495   0.20323   0.00000  Uiso   1.00
H341   H     0.63872   0.44559   0.20216   0.00000  Uiso   1.00
H342   H     0.59657   0.55941   0.42196   0.00000  Uiso   1.00
H343   H     0.47427   0.48167   0.08808   0.00000  Uiso   1.00
H344   H     0.38825   0.47699   0.41088   0.00000  Uiso   1.00
H345   H     0.41836   0.48277   0.05476   0.00000  Uiso   1.00
H346   H     0.36408   0.46839   0.00451   0.00000  Uiso   1.00
H347   H     0.53715   0.55076   0.37804   0.00000  Uiso   1.00
N348   N     0.38265   0.49999   0.24998   0.00000  Uiso   1.00
N349   N     0.61735   0.50002   0.25000   0.00000  Uiso   1.00
O350   O     0.46042   0.56011   0.25000   0.00000  Uiso   1.00
O351   O     0.53961   0.56012   0.25000   0.00000  Uiso   1.00
O352   O     0.44108   0.49998   0.32549   0.00000  Uiso   1.00
O353   O     0.52027   0.49999   0.32549   0.00000  Uiso   1.00
O354   O     0.46039   0.43988   0.25000   0.00000  Uiso   1.00
O355   O     0.53958   0.43989   0.25000   0.00000  Uiso   1.00
O356   O     0.47973   0.50001   0.17451   0.00000  Uiso   1.00
O357   O     0.55892   0.50002   0.17451   0.00000  Uiso   1.00
C358   C     0.35973   0.57270   0.29648   0.00000  Uiso   1.00
C359   C     0.37136   0.57119   0.34868   0.00000  Uiso   1.00
C360   C     0.35171   0.60980   0.38353   0.00000  Uiso   1.00
H361   H     0.36536   0.63841   0.36371   0.00000  Uiso   1.00
H362   H     0.64481   0.61220   0.39468   0.00000  Uiso   1.00
H363   H     0.36357   0.60830   0.41911   0.00000  Uiso   1.00
H364   H     0.35565   0.54357   0.36984   0.00000  Uiso   1.00
H365   H     0.41111   0.56974   0.34196   0.00000  Uiso   1.00
H366   H     0.38595   0.58858   0.26572   0.00000  Uiso   1.00
H367   H     0.66122   0.59474   0.30266   0.00000  Uiso   1.00
N368   N     0.63720   0.55517   0.49545   0.00000  Uiso   1.00
H369   H     0.65611   0.53877   0.46131   0.00000  Uiso   1.00
H370   H     0.62872   0.58522   0.48684   0.00000  Uiso   1.00
C371   C     0.58942   0.61900   0.18281   0.00000  Uiso   1.00
C372   C     0.62795   0.64366   0.14446   0.00000  Uiso   1.00
C373   C     0.33500   0.61504   0.10991   0.00000  Uiso   1.00
H374   H     0.35253   0.59628   0.13392   0.00000  Uiso   1.00
H375   H     0.65343   0.59416   0.08565   0.00000  Uiso   1.00
H376   H     0.36299   0.63372   0.08382   0.00000  Uiso   1.00
H377   H     0.61076   0.66159   0.11939   0.00000  Uiso   1.00
H378   H     0.64481   0.66523   0.16619   0.00000  Uiso   1.00
H379   H     0.60735   0.60346   0.20904   0.00000  Uiso   1.00
H380   H     0.57713   0.59493   0.15988   0.00000  Uiso   1.00
C381   C     0.83381   0.57916   0.24734   0.00000  Uiso   1.00
C382   C     0.81119   0.50397   0.48991   0.00000  Uiso   1.00
C383   C     0.82248   0.51416   0.43694   0.00000  Uiso   1.00
C384   C     0.84653   0.51020   0.01676   0.00000  Uiso   1.00
C385   C     0.89062   0.52951   0.49181   0.00000  Uiso   1.00
C386   C     0.89789   0.54341   0.44161   0.00000  Uiso   1.00
C387   C     0.86400   0.53683   0.41526   0.00000  Uiso   1.00
C388   C     0.83948   0.49751   0.06767   0.00000  Uiso   1.00
C389   C     0.91703   0.52307   0.06915   0.00000  Uiso   1.00
C390   C     0.79151   0.50189   0.40728   0.00000  Uiso   1.00
C391   C     0.87786   0.64392   0.21587   0.00000  Uiso   1.00
C392   C     0.80725   0.50151   0.35001   0.00000  Uiso   1.00
C393   C     0.87728   0.35390   0.21944   0.00000  Uiso   1.00
C394   C     0.83532   0.37632   0.24802   0.00000  Uiso   1.00
C395   C     0.79353   0.35633   0.27372   0.00000  Uiso   1.00
C396   C     0.79384   0.64721   0.27204   0.00000  Uiso   1.00
C397   C     0.83516   0.62396   0.24392   0.00000  Uiso   1.00
C398   C     0.96560   0.52943   0.27704   0.00000  Uiso   1.00
C399   C     0.68170   0.53136   0.27551   0.00000  Uiso   1.00
C400   C     0.69964   0.46941   0.22424   0.00000  Uiso   1.00
C401   C     0.98371   0.46978   0.22363   0.00000  Uiso   1.00
C402   C     0.83406   0.42086   0.24947   0.00000  Uiso   1.00
C403   C     0.85923   0.50023   0.15029   0.00000  Uiso   1.00
C404   C     0.92601   0.53535   0.01830   0.00000  Uiso   1.00
C405   C     0.87327   0.50543   0.09433   0.00000  Uiso   1.00
C406   C     0.74627   0.48596   0.43243   0.00000  Uiso   1.00
C407   C     0.73267   0.48029   0.48548   0.00000  Uiso   1.00
C408   C     0.76483   0.48834   0.01391   0.00000  Uiso   1.00
Cu409  Cu    0.78645   0.49999   0.25000   0.00000  Uiso   1.00
Cu410  Cu    0.88022   0.50001   0.25000   0.00000  Uiso   1.00
H411   H     0.94339   0.52915   0.08975   0.00000  Uiso   1.00
H412   H     0.90871   0.37075   0.19955   0.00000  Uiso   1.00
H413   H     0.76094   0.37356   0.29619   0.00000  Uiso   1.00
H414   H     0.76218   0.63257   0.29436   0.00000  Uiso   1.00
H415   H     0.93892   0.55286   0.29789   0.00000  Uiso   1.00
H416   H     0.72466   0.44495   0.20323   0.00000  Uiso   1.00
H417   H     0.97205   0.44559   0.20216   0.00000  Uiso   1.00
H418   H     0.92990   0.55941   0.42196   0.00000  Uiso   1.00
H419   H     0.80760   0.48167   0.08808   0.00000  Uiso   1.00
H420   H     0.72158   0.47699   0.41088   0.00000  Uiso   1.00
H421   H     0.75169   0.48277   0.05476   0.00000  Uiso   1.00
H422   H     0.69741   0.46839   0.00451   0.00000  Uiso   1.00
H423   H     0.87049   0.55076   0.37804   0.00000  Uiso   1.00
N424   N     0.71598   0.49999   0.24998   0.00000  Uiso   1.00
N425   N     0.95069   0.50002   0.25000   0.00000  Uiso   1.00
O426   O     0.79375   0.56011   0.25000   0.00000  Uiso   1.00
O427   O     0.87294   0.56012   0.25000   0.00000  Uiso   1.00
O428   O     0.77441   0.49998   0.32549   0.00000  Uiso   1.00
O429   O     0.85360   0.49999   0.32549   0.00000  Uiso   1.00
O430   O     0.79373   0.43988   0.25000   0.00000  Uiso   1.00
O431   O     0.87292   0.43989   0.25000   0.00000  Uiso   1.00
O432   O     0.81306   0.50001   0.17451   0.00000  Uiso   1.00
O433   O     0.89225   0.50002   0.17451   0.00000  Uiso   1.00
C434   C     0.69306   0.57270   0.29648   0.00000  Uiso   1.00
C435   C     0.70470   0.57119   0.34868   0.00000  Uiso   1.00
C436   C     0.68504   0.60980   0.38353   0.00000  Uiso   1.00
H437   H     0.69870   0.63841   0.36371   0.00000  Uiso   1.00
H438   H     0.97814   0.61220   0.39468   0.00000  Uiso   1.00
H439   H     0.69690   0.60830   0.41911   0.00000  Uiso   1.00
H440   H     0.68898   0.54357   0.36984   0.00000  Uiso   1.00
H441   H     0.74444   0.56974   0.34196   0.00000  Uiso   1.00
H442   H     0.71928   0.58858   0.26572   0.00000  Uiso   1.00
H443   H     0.99456   0.59474   0.30266   0.00000  Uiso   1.00
N444   N     0.97054   0.55517   0.49545   0.00000  Uiso   1.00
H445   H     0.98944   0.53877   0.46131   0.00000  Uiso   1.00
H446   H     0.96205   0.58522   0.48684   0.00000  Uiso   1.00
C447   C     0.92275   0.61900   0.18281   0.00000  Uiso   1.00
C448   C     0.96128   0.64366   0.14446   0.00000  Uiso   1.00
C449   C     0.66833   0.61504   0.10991   0.00000  Uiso   1.00
H450   H     0.68586   0.59628   0.13392   0.00000  Uiso   1.00
H451   H     0.98676   0.59416   0.08565   0.00000  Uiso   1.00
H452   H     0.69633   0.63372   0.08382   0.00000  Uiso   1.00
H453   H     0.94409   0.66159   0.11939   0.00000  Uiso   1.00
H454   H     0.97814   0.66523   0.16619   0.00000  Uiso   1.00
H455   H     0.94068   0.60346   0.20904   0.00000  Uiso   1.00
H456   H     0.91046   0.59493   0.15988   0.00000  Uiso   1.00
C457   C     0.16714   0.91249   0.24734   0.00000  Uiso   1.00
C458   C     0.14453   0.83730   0.48991   0.00000  Uiso   1.00
C459   C     0.15582   0.84749   0.43694   0.00000  Uiso   1.00
C460   C     0.17987   0.84353   0.01676   0.00000  Uiso   1.00
C461   C     0.22396   0.86285   0.49181   0.00000  Uiso   1.00
C462   C     0.23122   0.87674   0.44161   0.00000  Uiso   1.00
C463   C     0.19734   0.87017   0.41526   0.00000  Uiso   1.00
C464   C     0.17281   0.83084   0.06767   0.00000  Uiso   1.00
C465   C     0.25036   0.85640   0.06915   0.00000  Uiso   1.00
C466   C     0.12485   0.83522   0.40728   0.00000  Uiso   1.00
C467   C     0.21119   0.97725   0.21587   0.00000  Uiso   1.00
C468   C     0.14058   0.83484   0.35001   0.00000  Uiso   1.00
C469   C     0.21061   0.68723   0.21944   0.00000  Uiso   1.00
C470   C     0.16866   0.70966   0.24802   0.00000  Uiso   1.00
C471   C     0.12686   0.68966   0.27372   0.00000  Uiso   1.00
C472   C     0.12717   0.98054   0.27204   0.00000  Uiso   1.00
C473   C     0.16849   0.95729   0.24392   0.00000  Uiso   1.00
C474   C     0.29894   0.86276   0.27704   0.00000  Uiso   1.00
C475   C     0.01504   0.86470   0.27551   0.00000  Uiso   1.00
C476   C     0.03297   0.80275   0.22424   0.00000  Uiso   1.00
C477   C     0.31704   0.80311   0.22363   0.00000  Uiso   1.00
C478   C     0.16740   0.75419   0.24947   0.00000  Uiso   1.00
C479   C     0.19256   0.83357   0.15029   0.00000  Uiso   1.00
C480   C     0.25934   0.86868   0.01830   0.00000  Uiso   1.00
C481   C     0.20661   0.83876   0.09433   0.00000  Uiso   1.00
C482   C     0.07960   0.81929   0.43243   0.00000  Uiso   1.00
C483   C     0.06600   0.81362   0.48548   0.00000  Uiso   1.00
C484   C     0.09816   0.82168   0.01391   0.00000  Uiso   1.00
Cu485  Cu    0.11978   0.83333   0.25000   0.00000  Uiso   1.00
Cu486  Cu    0.21355   0.83334   0.25000   0.00000  Uiso   1.00
H487   H     0.27673   0.86249   0.08975   0.00000  Uiso   1.00
H488   H     0.24204   0.70408   0.19955   0.00000  Uiso   1.00
H489   H     0.09427   0.70689   0.29619   0.00000  Uiso   1.00
H490   H     0.09551   0.96591   0.29436   0.00000  Uiso   1.00
H491   H     0.27226   0.88620   0.29789   0.00000  Uiso   1.00
H492   H     0.05800   0.77829   0.20323   0.00000  Uiso   1.00
H493   H     0.30539   0.77892   0.20216   0.00000  Uiso   1.00
H494   H     0.26324   0.89274   0.42196   0.00000  Uiso   1.00
H495   H     0.14093   0.81500   0.08808   0.00000  Uiso   1.00
H496   H     0.05491   0.81032   0.41088   0.00000  Uiso   1.00
H497   H     0.08503   0.81611   0.05476   0.00000  Uiso   1.00
H498   H     0.03074   0.80173   0.00451   0.00000  Uiso   1.00
H499   H     0.20382   0.88409   0.37804   0.00000  Uiso   1.00
N500   N     0.04931   0.83332   0.24998   0.00000  Uiso   1.00
N501   N     0.28402   0.83335   0.25000   0.00000  Uiso   1.00
O502   O     0.12708   0.89345   0.25000   0.00000  Uiso   1.00
O503   O     0.20627   0.89346   0.25000   0.00000  Uiso   1.00
O504   O     0.10775   0.83332   0.32549   0.00000  Uiso   1.00
O505   O     0.18694   0.83333   0.32549   0.00000  Uiso   1.00
O506   O     0.12706   0.77321   0.25000   0.00000  Uiso   1.00
O507   O     0.20625   0.77322   0.25000   0.00000  Uiso   1.00
O508   O     0.14640   0.83334   0.17451   0.00000  Uiso   1.00
O509   O     0.22559   0.83335   0.17451   0.00000  Uiso   1.00
C510   C     0.02640   0.90603   0.29648   0.00000  Uiso   1.00
C511   C     0.03803   0.90453   0.34868   0.00000  Uiso   1.00
C512   C     0.01838   0.94314   0.38353   0.00000  Uiso   1.00
H513   H     0.03203   0.97175   0.36371   0.00000  Uiso   1.00
H514   H     0.31148   0.94553   0.39468   0.00000  Uiso   1.00
H515   H     0.03024   0.94164   0.41911   0.00000  Uiso   1.00
H516   H     0.02231   0.87691   0.36984   0.00000  Uiso   1.00
H517   H     0.07778   0.90307   0.34196   0.00000  Uiso   1.00
H518   H     0.05262   0.92192   0.26572   0.00000  Uiso   1.00
H519   H     0.32789   0.92807   0.30266   0.00000  Uiso   1.00
N520   N     0.30387   0.88850   0.49545   0.00000  Uiso   1.00
H521   H     0.32277   0.87210   0.46131   0.00000  Uiso   1.00
H522   H     0.29538   0.91855   0.48684   0.00000  Uiso   1.00
C523   C     0.25609   0.95233   0.18281   0.00000  Uiso   1.00
C524   C     0.29461   0.97699   0.14446   0.00000  Uiso   1.00
C525   C     0.00167   0.94838   0.10991   0.00000  Uiso   1.00
H526   H     0.01919   0.92961   0.13392   0.00000  Uiso   1.00
H527   H     0.32009   0.92750   0.08565   0.00000  Uiso   1.00
H528   H     0.02966   0.96706   0.08382   0.00000  Uiso   1.00
H529   H     0.27743   0.99492   0.11939   0.00000  Uiso   1.00
H530   H     0.31147   0.99857   0.16619   0.00000  Uiso   1.00
H531   H     0.27402   0.93680   0.20904   0.00000  Uiso   1.00
H532   H     0.24379   0.92826   0.15988   0.00000  Uiso   1.00
C533   C     0.50048   0.91249   0.24734   0.00000  Uiso   1.00
C534   C     0.47786   0.83730   0.48991   0.00000  Uiso   1.00
C535   C     0.48915   0.84749   0.43694   0.00000  Uiso   1.00
C536   C     0.51320   0.84353   0.01676   0.00000  Uiso   1.00
C537   C     0.55729   0.86285   0.49181   0.00000  Uiso   1.00
C538   C     0.56455   0.87674   0.44161   0.00000  Uiso   1.00
C539   C     0.53067   0.87017   0.41526   0.00000  Uiso   1.00
C540   C     0.50614   0.83084   0.06767   0.00000  Uiso   1.00
C541   C     0.58369   0.85640   0.06915   0.00000  Uiso   1.00
C542   C     0.45818   0.83522   0.40728   0.00000  Uiso   1.00
C543   C     0.54452   0.97725   0.21587   0.00000  Uiso   1.00
C544   C     0.47392   0.83484   0.35001   0.00000  Uiso   1.00
C545   C     0.54394   0.68723   0.21944   0.00000  Uiso   1.00
C546   C     0.50199   0.70966   0.24802   0.00000  Uiso   1.00
C547   C     0.46020   0.68966   0.27372   0.00000  Uiso   1.00
C548   C     0.46050   0.98054   0.27204   0.00000  Uiso   1.00
C549   C     0.50182   0.95729   0.24392   0.00000  Uiso   1.00
C550   C     0.63227   0.86276   0.27704   0.00000  Uiso   1.00
C551   C     0.34837   0.86470   0.27551   0.00000  Uiso   1.00
C552   C     0.36630   0.80275   0.22424   0.00000  Uiso   1.00
C553   C     0.65037   0.80311   0.22363   0.00000  Uiso   1.00
C554   C     0.50073   0.75419   0.24947   0.00000  Uiso   1.00
C555   C     0.52589   0.83357   0.15029   0.00000  Uiso   1.00
C556   C     0.59268   0.86868   0.01830   0.00000  Uiso   1.00
C557   C     0.53994   0.83876   0.09433   0.00000  Uiso   1.00
C558   C     0.41293   0.81929   0.43243   0.00000  Uiso   1.00
C559   C     0.39934   0.81362   0.48548   0.00000  Uiso   1.00
C560   C     0.43149   0.82168   0.01391   0.00000  Uiso   1.00
Cu561  Cu    0.45311   0.83333   0.25000   0.00000  Uiso   1.00
Cu562  Cu    0.54689   0.83334   0.25000   0.00000  Uiso   1.00
H563   H     0.61006   0.86249   0.08975   0.00000  Uiso   1.00
H564   H     0.57538   0.70408   0.19955   0.00000  Uiso   1.00
H565   H     0.42760   0.70689   0.29619   0.00000  Uiso   1.00
H566   H     0.42884   0.96591   0.29436   0.00000  Uiso   1.00
H567   H     0.60559   0.88620   0.29789   0.00000  Uiso   1.00
H568   H     0.39133   0.77829   0.20323   0.00000  Uiso   1.00
H569   H     0.63872   0.77892   0.20216   0.00000  Uiso   1.00
H570   H     0.59657   0.89274   0.42196   0.00000  Uiso   1.00
H571   H     0.47427   0.81500   0.08808   0.00000  Uiso   1.00
H572   H     0.38825   0.81032   0.41088   0.00000  Uiso   1.00
H573   H     0.41836   0.81611   0.05476   0.00000  Uiso   1.00
H574   H     0.36408   0.80173   0.00451   0.00000  Uiso   1.00
H575   H     0.53715   0.88409   0.37804   0.00000  Uiso   1.00
N576   N     0.38265   0.83332   0.24998   0.00000  Uiso   1.00
N577   N     0.61735   0.83335   0.25000   0.00000  Uiso   1.00
O578   O     0.46042   0.89345   0.25000   0.00000  Uiso   1.00
O579   O     0.53961   0.89346   0.25000   0.00000  Uiso   1.00
O580   O     0.44108   0.83332   0.32549   0.00000  Uiso   1.00
O581   O     0.52027   0.83333   0.32549   0.00000  Uiso   1.00
O582   O     0.46039   0.77321   0.25000   0.00000  Uiso   1.00
O583   O     0.53958   0.77322   0.25000   0.00000  Uiso   1.00
O584   O     0.47973   0.83334   0.17451   0.00000  Uiso   1.00
O585   O     0.55892   0.83335   0.17451   0.00000  Uiso   1.00
C586   C     0.35973   0.90603   0.29648   0.00000  Uiso   1.00
C587   C     0.37136   0.90453   0.34868   0.00000  Uiso   1.00
C588   C     0.35171   0.94314   0.38353   0.00000  Uiso   1.00
H589   H     0.36536   0.97175   0.36371   0.00000  Uiso   1.00
H590   H     0.64481   0.94553   0.39468   0.00000  Uiso   1.00
H591   H     0.36357   0.94164   0.41911   0.00000  Uiso   1.00
H592   H     0.35565   0.87691   0.36984   0.00000  Uiso   1.00
H593   H     0.41111   0.90307   0.34196   0.00000  Uiso   1.00
H594   H     0.38595   0.92192   0.26572   0.00000  Uiso   1.00
H595   H     0.66122   0.92807   0.30266   0.00000  Uiso   1.00
N596   N     0.63720   0.88850   0.49545   0.00000  Uiso   1.00
H597   H     0.65611   0.87210   0.46131   0.00000  Uiso   1.00
H598   H     0.62872   0.91855   0.48684   0.00000  Uiso   1.00
C599   C     0.58942   0.95233   0.18281   0.00000  Uiso   1.00
C600   C     0.62795   0.97699   0.14446   0.00000  Uiso   1.00
C601   C     0.33500   0.94838   0.10991   0.00000  Uiso   1.00
H602   H     0.35253   0.92961   0.13392   0.00000  Uiso   1.00
H603   H     0.65343   0.92750   0.08565   0.00000  Uiso   1.00
H604   H     0.36299   0.96706   0.08382   0.00000  Uiso   1.00
H605   H     0.61076   0.99492   0.11939   0.00000  Uiso   1.00
H606   H     0.64481   0.99857   0.16619   0.00000  Uiso   1.00
H607   H     0.60735   0.93680   0.20904   0.00000  Uiso   1.00
H608   H     0.57713   0.92826   0.15988   0.00000  Uiso   1.00
C609   C     0.83381   0.91249   0.24734   0.00000  Uiso   1.00
C610   C     0.81119   0.83730   0.48991   0.00000  Uiso   1.00
C611   C     0.82248   0.84749   0.43694   0.00000  Uiso   1.00
C612   C     0.84653   0.84353   0.01676   0.00000  Uiso   1.00
C613   C     0.89062   0.86285   0.49181   0.00000  Uiso   1.00
C614   C     0.89789   0.87674   0.44161   0.00000  Uiso   1.00
C615   C     0.86400   0.87017   0.41526   0.00000  Uiso   1.00
C616   C     0.83948   0.83084   0.06767   0.00000  Uiso   1.00
C617   C     0.91703   0.85640   0.06915   0.00000  Uiso   1.00
C618   C     0.79151   0.83522   0.40728   0.00000  Uiso   1.00
C619   C     0.87786   0.97725   0.21587   0.00000  Uiso   1.00
C620   C     0.80725   0.83484   0.35001   0.00000  Uiso   1.00
C621   C     0.87728   0.68723   0.21944   0.00000  Uiso   1.00
C622   C     0.83532   0.70966   0.24802   0.00000  Uiso   1.00
C623   C     0.79353   0.68966   0.27372   0.00000  Uiso   1.00
C624   C     0.79384   0.98054   0.27204   0.00000  Uiso   1.00
C625   C     0.83516   0.95729   0.24392   0.00000  Uiso   1.00
C626   C     0.96560   0.86276   0.27704   0.00000  Uiso   1.00
C627   C     0.68170   0.86470   0.27551   0.00000  Uiso   1.00
C628   C     0.69964   0.80275   0.22424   0.00000  Uiso   1.00
C629   C     0.98371   0.80311   0.22363   0.00000  Uiso   1.00
C630   C     0.83406   0.75419   0.24947   0.00000  Uiso   1.00
C631   C     0.85923   0.83357   0.15029   0.00000  Uiso   1.00
C632   C     0.92601   0.86868   0.01830   0.00000  Uiso   1.00
C633   C     0.87327   0.83876   0.09433   0.00000  Uiso   1.00
C634   C     0.74627   0.81929   0.43243   0.00000  Uiso   1.00
C635   C     0.73267   0.81362   0.48548   0.00000  Uiso   1.00
C636   C     0.76483   0.82168   0.01391   0.00000  Uiso   1.00
Cu637  Cu    0.78645   0.83333   0.25000   0.00000  Uiso   1.00
Cu638  Cu    0.88022   0.83334   0.25000   0.00000  Uiso   1.00
H639   H     0.94339   0.86249   0.08975   0.00000  Uiso   1.00
H640   H     0.90871   0.70408   0.19955   0.00000  Uiso   1.00
H641   H     0.76094   0.70689   0.29619   0.00000  Uiso   1.00
H642   H     0.76218   0.96591   0.29436   0.00000  Uiso   1.00
H643   H     0.93892   0.88620   0.29789   0.00000  Uiso   1.00
H644   H     0.72466   0.77829   0.20323   0.00000  Uiso   1.00
H645   H     0.97205   0.77892   0.20216   0.00000  Uiso   1.00
H646   H     0.92990   0.89274   0.42196   0.00000  Uiso   1.00
H647   H     0.80760   0.81500   0.08808   0.00000  Uiso   1.00
H648   H     0.72158   0.81032   0.41088   0.00000  Uiso   1.00
H649   H     0.75169   0.81611   0.05476   0.00000  Uiso   1.00
H650   H     0.69741   0.80173   0.00451   0.00000  Uiso   1.00
H651   H     0.87049   0.88409   0.37804   0.00000  Uiso   1.00
N652   N     0.71598   0.83332   0.24998   0.00000  Uiso   1.00
N653   N     0.95069   0.83335   0.25000   0.00000  Uiso   1.00
O654   O     0.79375   0.89345   0.25000   0.00000  Uiso   1.00
O655   O     0.87294   0.89346   0.25000   0.00000  Uiso   1.00
O656   O     0.77441   0.83332   0.32549   0.00000  Uiso   1.00
O657   O     0.85360   0.83333   0.32549   0.00000  Uiso   1.00
O658   O     0.79373   0.77321   0.25000   0.00000  Uiso   1.00
O659   O     0.87292   0.77322   0.25000   0.00000  Uiso   1.00
O660   O     0.81306   0.83334   0.17451   0.00000  Uiso   1.00
O661   O     0.89225   0.83335   0.17451   0.00000  Uiso   1.00
C662   C     0.69306   0.90603   0.29648   0.00000  Uiso   1.00
C663   C     0.70470   0.90453   0.34868   0.00000  Uiso   1.00
C664   C     0.68504   0.94314   0.38353   0.00000  Uiso   1.00
H665   H     0.69870   0.97175   0.36371   0.00000  Uiso   1.00
H666   H     0.97814   0.94553   0.39468   0.00000  Uiso   1.00
H667   H     0.69690   0.94164   0.41911   0.00000  Uiso   1.00
H668   H     0.68898   0.87691   0.36984   0.00000  Uiso   1.00
H669   H     0.74444   0.90307   0.34196   0.00000  Uiso   1.00
H670   H     0.71928   0.92192   0.26572   0.00000  Uiso   1.00
H671   H     0.99456   0.92807   0.30266   0.00000  Uiso   1.00
N672   N     0.97054   0.88850   0.49545   0.00000  Uiso   1.00
H673   H     0.98944   0.87210   0.46131   0.00000  Uiso   1.00
H674   H     0.96205   0.91855   0.48684   0.00000  Uiso   1.00
C675   C     0.92275   0.95233   0.18281   0.00000  Uiso   1.00
C676   C     0.96128   0.97699   0.14446   0.00000  Uiso   1.00
C677   C     0.66833   0.94838   0.10991   0.00000  Uiso   1.00
H678   H     0.68586   0.92961   0.13392   0.00000  Uiso   1.00
H679   H     0.98676   0.92750   0.08565   0.00000  Uiso   1.00
H680   H     0.69633   0.96706   0.08382   0.00000  Uiso   1.00
H681   H     0.94409   0.99492   0.11939   0.00000  Uiso   1.00
H682   H     0.97814   0.99857   0.16619   0.00000  Uiso   1.00
H683   H     0.94068   0.93680   0.20904   0.00000  Uiso   1.00
H684   H     0.91046   0.92826   0.15988   0.00000  Uiso   1.00
C685   C     0.16714   0.24583   0.74734   0.00000  Uiso   1.00
C686   C     0.14453   0.17064   0.98991   0.00000  Uiso   1.00
C687   C     0.15582   0.18083   0.93694   0.00000  Uiso   1.00
C688   C     0.17987   0.17687   0.51676   0.00000  Uiso   1.00
C689   C     0.22396   0.19618   0.99181   0.00000  Uiso   1.00
C690   C     0.23122   0.21008   0.94161   0.00000  Uiso   1.00
C691   C     0.19734   0.20350   0.91526   0.00000  Uiso   1.00
C692   C     0.17281   0.16418   0.56767   0.00000  Uiso   1.00
C693   C     0.25036   0.18973   0.56915   0.00000  Uiso   1.00
C694   C     0.12485   0.16856   0.90728   0.00000  Uiso   1.00
C695   C     0.21119   0.31059   0.71587   0.00000  Uiso   1.00
C696   C     0.14058   0.16817   0.85001   0.00000  Uiso   1.00
C697   C     0.21061   0.02056   0.71944   0.00000  Uiso   1.00
C698   C     0.16866   0.04299   0.74802   0.00000  Uiso   1.00
C699   C     0.12686   0.02299   0.77372   0.00000  Uiso   1.00
C700   C     0.12717   0.31387   0.77204   0.00000  Uiso   1.00
C701   C     0.16849   0.29062   0.74392   0.00000  Uiso   1.00
C702   C     0.29894   0.19609   0.77704   0.00000  Uiso   1.00
C703   C     0.01504   0.19803   0.77551   0.00000  Uiso   1.00
C704   C     0.03297   0.13608   0.72424   0.00000  Uiso   1.00
C705   C     0.31704   0.13645   0.72363   0.00000  Uiso   1.00
C706   C     0.16740   0.08752   0.74947   0.00000  Uiso   1.00
C707   C     0.19256   0.16690   0.65029   0.00000  Uiso   1.00
C708   C     0.25934   0.20201   0.51830   0.00000  Uiso   1.00
C709   C     0.20661   0.17210   0.59433   0.00000  Uiso   1.00
C710   C     0.07960   0.15263   0.93243   0.00000  Uiso   1.00
C711   C     0.06600   0.14695   0.98548   0.00000  Uiso   1.00
C712   C     0.09816   0.15501   0.51391   0.00000  Uiso   1.00
Cu713  Cu    0.11978   0.16666   0.75000   0.00000  Uiso   1.00
Cu714  Cu    0.21355   0.16667   0.75000   0.00000  Uiso   1.00
H715   H     0.27673   0.19582   0.58975   0.00000  Uiso   1.00
H716   H     0.24204   0.03741   0.69955   0.00000  Uiso   1.00
H717   H     0.09427   0.04022   0.79619   0.00000  Uiso   1.00
H718   H     0.09551   0.29924   0.79436   0.00000  Uiso   1.00
H719   H     0.27226   0.21953   0.79789   0.00000  Uiso   1.00
H720   H     0.05800   0.11162   0.70323   0.00000  Uiso   1.00
H721   H     0.30539   0.11225   0.70216   0.00000  Uiso   1.00
H722   H     0.26324   0.22607   0.92196   0.00000  Uiso   1.00
H723   H     0.14093   0.14834   0.58808   0.00000  Uiso   1.00
H724   H     0.05491   0.14365   0.91088   0.00000  Uiso   1.00
H725   H     0.08503   0.14944   0.55476   0.00000  Uiso   1.00
H726   H     0.03074   0.13506   0.50451   0.00000  Uiso   1.00
H727   H     0.20382   0.21742   0.87804   0.00000  Uiso   1.00
N728   N     0.04931   0.16666   0.74998   0.00000  Uiso   1.00
N729   N     0.28402   0.16669   0.75000   0.00000  Uiso   1.00
O730   O     0.12708   0.22678   0.75000   0.00000  Uiso   1.00
O731   O     0.20627   0.22679   0.75000   0.00000  Uiso   1.00
O732   O     0.10775   0.16665   0.82549   0.00000  Uiso   1.00
O733   O     0.18694   0.16666   0.82549   0.00000  Uiso   1.00
O734   O     0.12706   0.10654   0.75000   0.00000  Uiso   1.00
O735   O     0.20625   0.10655   0.75000   0.00000  Uiso   1.00
O736   O     0.14640   0.16667   0.67451   0.00000  Uiso   1.00
O737   O     0.22559   0.16668   0.67451   0.00000  Uiso   1.00
C738   C     0.02640   0.23936   0.79648   0.00000  Uiso   1.00
C739   C     0.03803   0.23786   0.84868   0.00000  Uiso   1.00
C740   C     0.01838   0.27647   0.88353   0.00000  Uiso   1.00
H741   H     0.03203   0.30508   0.86371   0.00000  Uiso   1.00
H742   H     0.31148   0.27887   0.89468   0.00000  Uiso   1.00
H743   H     0.03024   0.27497   0.91911   0.00000  Uiso   1.00
H744   H     0.02231   0.21024   0.86984   0.00000  Uiso   1.00
H745   H     0.07778   0.23641   0.84196   0.00000  Uiso   1.00
H746   H     0.05262   0.25525   0.76572   0.00000  Uiso   1.00
H747   H     0.32789   0.26140   0.80266   0.00000  Uiso   1.00
N748   N     0.30387   0.22184   0.99545   0.00000  Uiso   1.00
H749   H     0.32277   0.20543   0.96131   0.00000  Uiso   1.00
H750   H     0.29538   0.25188   0.98684   0.00000  Uiso   1.00
C751   C     0.25609   0.28567   0.68281   0.00000  Uiso   1.00
C752   C     0.29461   0.31032   0.64446   0.00000  Uiso   1.00
C753   C     0.00167   0.28171   0.60991   0.00000  Uiso   1.00
H754   H     0.01919   0.26294   0.63392   0.00000  Uiso   1.00
H755   H     0.32009   0.26083   0.58565   0.00000  Uiso   1.00
H756   H     0.02966   0.30039   0.58382   0.00000  Uiso   1.00
H757   H     0.27743   0.32826   0.61939   0.00000  Uiso   1.00
H758   H     0.31147   0.33190   0.66619   0.00000  Uiso   1.00
H759   H     0.27402   0.27013   0.70904   0.00000  Uiso   1.00
H760   H     0.24379   0.26159   0.65988   0.00000  Uiso   1.00
C761   C     0.50048   0.24583   0.74734   0.00000  Uiso   1.00
C762   C     0.47786   0.17064   0.98991   0.00000  Uiso   1.00
C763   C     0.48915   0.18083   0.93694   0.00000  Uiso   1.00
C764   C     0.51320   0.17687   0.51676   0.00000  Uiso   1.00
C765   C     0.55729   0.19618   0.99181   0.00000  Uiso   1.00
C766   C     0.56455   0.21008   0.94161   0.00000  Uiso   1.00
C767   C     0.53067   0.20350   0.91526   0.00000  Uiso   1.00
C768   C     0.50614   0.16418   0.56767   0.00000  Uiso   1.00
C769   C     0.58369   0.18973   0.56915   0.00000  Uiso   1.00
C770   C     0.45818   0.16856   0.90728   0.00000  Uiso   1.00
C771   C     0.54452   0.31059   0.71587   0.00000  Uiso   1.00
C772   C     0.47392   0.16817   0.85001   0.00000  Uiso   1.00
C773   C     0.54394   0.02056   0.71944   0.00000  Uiso   1.00
C774   C     0.50199   0.04299   0.74802   0.00000  Uiso   1.00
C775   C     0.46020   0.02299   0.77372   0.00000  Uiso   1.00
C776   C     0.46050   0.31387   0.77204   0.00000  Uiso   1.00
C777   C     0.50182   0.29062   0.74392   0.00000  Uiso   1.00
C778   C     0.63227   0.19609   0.77704   0.00000  Uiso   1.00
C779   C     0.34837   0.19803   0.77551   0.00000  Uiso   1.00
C780   C     0.36630   0.13608   0.72424   0.00000  Uiso   1.00
C781   C     0.65037   0.13645   0.72363   0.00000  Uiso   1.00
C782   C     0.50073   0.08752   0.74947   0.00000  Uiso   1.00
C783   C     0.52589   0.16690   0.65029   0.00000  Uiso   1.00
C784   C     0.59268   0.20201   0.51830   0.00000  Uiso   1.00
C785   C     0.53994   0.17210   0.59433   0.00000  Uiso   1.00
C786   C     0.41293   0.15263   0.93243   0.00000  Uiso   1.00
C787   C     0.39934   0.14695   0.98548   0.00000  Uiso   1.00
C788   C     0.43149   0.15501   0.51391   0.00000  Uiso   1.00
Cu789  Cu    0.45311   0.16666   0.75000   0.00000  Uiso   1.00
Cu790  Cu    0.54689   0.16667   0.75000   0.00000  Uiso   1.00
H791   H     0.61006   0.19582   0.58975   0.00000  Uiso   1.00
H792   H     0.57538   0.03741   0.69955   0.00000  Uiso   1.00
H793   H     0.42760   0.04022   0.79619   0.00000  Uiso   1.00
H794   H     0.42884   0.29924   0.79436   0.00000  Uiso   1.00
H795   H     0.60559   0.21953   0.79789   0.00000  Uiso   1.00
H796   H     0.39133   0.11162   0.70323   0.00000  Uiso   1.00
H797   H     0.63872   0.11225   0.70216   0.00000  Uiso   1.00
H798   H     0.59657   0.22607   0.92196   0.00000  Uiso   1.00
H799   H     0.47427   0.14834   0.58808   0.00000  Uiso   1.00
H800   H     0.38825   0.14365   0.91088   0.00000  Uiso   1.00
H801   H     0.41836   0.14944   0.55476   0.00000  Uiso   1.00
H802   H     0.36408   0.13506   0.50451   0.00000  Uiso   1.00
H803   H     0.53715   0.21742   0.87804   0.00000  Uiso   1.00
N804   N     0.38265   0.16666   0.74998   0.00000  Uiso   1.00
N805   N     0.61735   0.16669   0.75000   0.00000  Uiso   1.00
O806   O     0.46042   0.22678   0.75000   0.00000  Uiso   1.00
O807   O     0.53961   0.22679   0.75000   0.00000  Uiso   1.00
O808   O     0.44108   0.16665   0.82549   0.00000  Uiso   1.00
O809   O     0.52027   0.16666   0.82549   0.00000  Uiso   1.00
O810   O     0.46039   0.10654   0.75000   0.00000  Uiso   1.00
O811   O     0.53958   0.10655   0.75000   0.00000  Uiso   1.00
O812   O     0.47973   0.16667   0.67451   0.00000  Uiso   1.00
O813   O     0.55892   0.16668   0.67451   0.00000  Uiso   1.00
C814   C     0.35973   0.23936   0.79648   0.00000  Uiso   1.00
C815   C     0.37136   0.23786   0.84868   0.00000  Uiso   1.00
C816   C     0.35171   0.27647   0.88353   0.00000  Uiso   1.00
H817   H     0.36536   0.30508   0.86371   0.00000  Uiso   1.00
H818   H     0.64481   0.27887   0.89468   0.00000  Uiso   1.00
H819   H     0.36357   0.27497   0.91911   0.00000  Uiso   1.00
H820   H     0.35565   0.21024   0.86984   0.00000  Uiso   1.00
H821   H     0.41111   0.23641   0.84196   0.00000  Uiso   1.00
H822   H     0.38595   0.25525   0.76572   0.00000  Uiso   1.00
H823   H     0.66122   0.26140   0.80266   0.00000  Uiso   1.00
N824   N     0.63720   0.22184   0.99545   0.00000  Uiso   1.00
H825   H     0.65611   0.20543   0.96131   0.00000  Uiso   1.00
H826   H     0.62872   0.25188   0.98684   0.00000  Uiso   1.00
C827   C     0.58942   0.28567   0.68281   0.00000  Uiso   1.00
C828   C     0.62795   0.31032   0.64446   0.00000  Uiso   1.00
C829   C     0.33500   0.28171   0.60991   0.00000  Uiso   1.00
H830   H     0.35253   0.26294   0.63392   0.00000  Uiso   1.00
H831   H     0.65343   0.26083   0.58565   0.00000  Uiso   1.00
H832   H     0.36299   0.30039   0.58382   0.00000  Uiso   1.00
H833   H     0.61076   0.32826   0.61939   0.00000  Uiso   1.00
H834   H     0.64481   0.33190   0.66619   0.00000  Uiso   1.00
H835   H     0.60735   0.27013   0.70904   0.00000  Uiso   1.00
H836   H     0.57713   0.26159   0.65988   0.00000  Uiso   1.00
C837   C     0.83381   0.24583   0.74734   0.00000  Uiso   1.00
C838   C     0.81119   0.17064   0.98991   0.00000  Uiso   1.00
C839   C     0.82248   0.18083   0.93694   0.00000  Uiso   1.00
C840   C     0.84653   0.17687   0.51676   0.00000  Uiso   1.00
C841   C     0.89062   0.19618   0.99181   0.00000  Uiso   1.00
C842   C     0.89789   0.21008   0.94161   0.00000  Uiso   1.00
C843   C     0.86400   0.20350   0.91526   0.00000  Uiso   1.00
C844   C     0.83948   0.16418   0.56767   0.00000  Uiso   1.00
C845   C     0.91703   0.18973   0.56915   0.00000  Uiso   1.00
C846   C     0.79151   0.16856   0.90728   0.00000  Uiso   1.00
C847   C     0.87786   0.31059   0.71587   0.00000  Uiso   1.00
C848   C     0.80725   0.16817   0.85001   0.00000  Uiso   1.00
C849   C     0.87728   0.02056   0.71944   0.00000  Uiso   1.00
C850   C     0.83532   0.04299   0.74802   0.00000  Uiso   1.00
C851   C     0.79353   0.02299   0.77372   0.00000  Uiso   1.00
C852   C     0.79384   0.31387   0.77204   0.00000  Uiso   1.00
C853   C     0.83516   0.29062   0.74392   0.00000  Uiso   1.00
C854   C     0.96560   0.19609   0.77704   0.00000  Uiso   1.00
C855   C     0.68170   0.19803   0.77551   0.00000  Uiso   1.00
C856   C     0.69964   0.13608   0.72424   0.00000  Uiso   1.00
C857   C     0.98371   0.13645   0.72363   0.00000  Uiso   1.00
C858   C     0.83406   0.08752   0.74947   0.00000  Uiso   1.00
C859   C     0.85923   0.16690   0.65029   0.00000  Uiso   1.00
C860   C     0.92601   0.20201   0.51830   0.00000  Uiso   1.00
C861   C     0.87327   0.17210   0.59433   0.00000  Uiso   1.00
C862   C     0.74627   0.15263   0.93243   0.00000  Uiso   1.00
C863   C     0.73267   0.14695   0.98548   0.00000  Uiso   1.00
C864   C     0.76483   0.15501   0.51391   0.00000  Uiso   1.00
Cu865  Cu    0.78645   0.16666   0.75000   0.00000  Uiso   1.00
Cu866  Cu    0.88022   0.16667   0.75000   0.00000  Uiso   1.00
H867   H     0.94339   0.19582   0.58975   0.00000  Uiso   1.00
H868   H     0.90871   0.03741   0.69955   0.00000  Uiso   1.00
H869   H     0.76094   0.04022   0.79619   0.00000  Uiso   1.00
H870   H     0.76218   0.29924   0.79436   0.00000  Uiso   1.00
H871   H     0.93892   0.21953   0.79789   0.00000  Uiso   1.00
H872   H     0.72466   0.11162   0.70323   0.00000  Uiso   1.00
H873   H     0.97205   0.11225   0.70216   0.00000  Uiso   1.00
H874   H     0.92990   0.22607   0.92196   0.00000  Uiso   1.00
H875   H     0.80760   0.14834   0.58808   0.00000  Uiso   1.00
H876   H     0.72158   0.14365   0.91088   0.00000  Uiso   1.00
H877   H     0.75169   0.14944   0.55476   0.00000  Uiso   1.00
H878   H     0.69741   0.13506   0.50451   0.00000  Uiso   1.00
H879   H     0.87049   0.21742   0.87804   0.00000  Uiso   1.00
N880   N     0.71598   0.16666   0.74998   0.00000  Uiso   1.00
N881   N     0.95069   0.16669   0.75000   0.00000  Uiso   1.00
O882   O     0.79375   0.22678   0.75000   0.00000  Uiso   1.00
O883   O     0.87294   0.22679   0.75000   0.00000  Uiso   1.00
O884   O     0.77441   0.16665   0.82549   0.00000  Uiso   1.00
O885   O     0.85360   0.16666   0.82549   0.00000  Uiso   1.00
O886   O     0.79373   0.10654   0.75000   0.00000  Uiso   1.00
O887   O     0.87292   0.10655   0.75000   0.00000  Uiso   1.00
O888   O     0.81306   0.16667   0.67451   0.00000  Uiso   1.00
O889   O     0.89225   0.16668   0.67451   0.00000  Uiso   1.00
C890   C     0.69306   0.23936   0.79648   0.00000  Uiso   1.00
C891   C     0.70470   0.23786   0.84868   0.00000  Uiso   1.00
C892   C     0.68504   0.27647   0.88353   0.00000  Uiso   1.00
H893   H     0.69870   0.30508   0.86371   0.00000  Uiso   1.00
H894   H     0.97814   0.27887   0.89468   0.00000  Uiso   1.00
H895   H     0.69690   0.27497   0.91911   0.00000  Uiso   1.00
H896   H     0.68898   0.21024   0.86984   0.00000  Uiso   1.00
H897   H     0.74444   0.23641   0.84196   0.00000  Uiso   1.00
H898   H     0.71928   0.25525   0.76572   0.00000  Uiso   1.00
H899   H     0.99456   0.26140   0.80266   0.00000  Uiso   1.00
N900   N     0.97054   0.22184   0.99545   0.00000  Uiso   1.00
H901   H     0.98944   0.20543   0.96131   0.00000  Uiso   1.00
H902   H     0.96205   0.25188   0.98684   0.00000  Uiso   1.00
C903   C     0.92275   0.28567   0.68281   0.00000  Uiso   1.00
C904   C     0.96128   0.31032   0.64446   0.00000  Uiso   1.00
C905   C     0.66833   0.28171   0.60991   0.00000  Uiso   1.00
H906   H     0.68586   0.26294   0.63392   0.00000  Uiso   1.00
H907   H     0.98676   0.26083   0.58565   0.00000  Uiso   1.00
H908   H     0.69633   0.30039   0.58382   0.00000  Uiso   1.00
H909   H     0.94409   0.32826   0.61939   0.00000  Uiso   1.00
H910   H     0.97814   0.33190   0.66619   0.00000  Uiso   1.00
H911   H     0.94068   0.27013   0.70904   0.00000  Uiso   1.00
H912   H     0.91046   0.26159   0.65988   0.00000  Uiso   1.00
C913   C     0.16714   0.57916   0.74734   0.00000  Uiso   1.00
C914   C     0.14453   0.50397   0.98991   0.00000  Uiso   1.00
C915   C     0.15582   0.51416   0.93694   0.00000  Uiso   1.00
C916   C     0.17987   0.51020   0.51676   0.00000  Uiso   1.00
C917   C     0.22396   0.52951   0.99181   0.00000  Uiso   1.00
C918   C     0.23122   0.54341   0.94161   0.00000  Uiso   1.00
C919   C     0.19734   0.53683   0.91526   0.00000  Uiso   1.00
C920   C     0.17281   0.49751   0.56767   0.00000  Uiso   1.00
C921   C     0.25036   0.52307   0.56915   0.00000  Uiso   1.00
C922   C     0.12485   0.50189   0.90728   0.00000  Uiso   1.00
C923   C     0.21119   0.64392   0.71587   0.00000  Uiso   1.00
C924   C     0.14058   0.50151   0.85001   0.00000  Uiso   1.00
C925   C     0.21061   0.35390   0.71944   0.00000  Uiso   1.00
C926   C     0.16866   0.37632   0.74802   0.00000  Uiso   1.00
C927   C     0.12686   0.35633   0.77372   0.00000  Uiso   1.00
C928   C     0.12717   0.64721   0.77204   0.00000  Uiso   1.00
C929   C     0.16849   0.62396   0.74392   0.00000  Uiso   1.00
C930   C     0.29894   0.52943   0.77704   0.00000  Uiso   1.00
C931   C     0.01504   0.53136   0.77551   0.00000  Uiso   1.00
C932   C     0.03297   0.46941   0.72424   0.00000  Uiso   1.00
C933   C     0.31704   0.46978   0.72363   0.00000  Uiso   1.00
C934   C     0.16740   0.42086   0.74947   0.00000  Uiso   1.00
C935   C     0.19256   0.50023   0.65029   0.00000  Uiso   1.00
C936   C     0.25934   0.53535   0.51830   0.00000  Uiso   1.00
C937   C     0.20661   0.50543   0.59433   0.00000  Uiso   1.00
C938   C     0.07960   0.48596   0.93243   0.00000  Uiso   1.00
C939   C     0.06600   0.48029   0.98548   0.00000  Uiso   1.00
C940   C     0.09816   0.48834   0.51391   0.00000  Uiso   1.00
Cu941  Cu    0.11978   0.49999   0.75000   0.00000  Uiso   1.00
Cu942  Cu    0.21355   0.50001   0.75000   0.00000  Uiso   1.00
H943   H     0.27673   0.52915   0.58975   0.00000  Uiso   1.00
H944   H     0.24204   0.37075   0.69955   0.00000  Uiso   1.00
H945   H     0.09427   0.37356   0.79619   0.00000  Uiso   1.00
H946   H     0.09551   0.63257   0.79436   0.00000  Uiso   1.00
H947   H     0.27226   0.55286   0.79789   0.00000  Uiso   1.00
H948   H     0.05800   0.44495   0.70323   0.00000  Uiso   1.00
H949   H     0.30539   0.44559   0.70216   0.00000  Uiso   1.00
H950   H     0.26324   0.55941   0.92196   0.00000  Uiso   1.00
H951   H     0.14093   0.48167   0.58808   0.00000  Uiso   1.00
H952   H     0.05491   0.47699   0.91088   0.00000  Uiso   1.00
H953   H     0.08503   0.48277   0.55476   0.00000  Uiso   1.00
H954   H     0.03074   0.46839   0.50451   0.00000  Uiso   1.00
H955   H     0.20382   0.55076   0.87804   0.00000  Uiso   1.00
N956   N     0.04931   0.49999   0.74998   0.00000  Uiso   1.00
N957   N     0.28402   0.50002   0.75000   0.00000  Uiso   1.00
O958   O     0.12708   0.56011   0.75000   0.00000  Uiso   1.00
O959   O     0.20627   0.56012   0.75000   0.00000  Uiso   1.00
O960   O     0.10775   0.49998   0.82549   0.00000  Uiso   1.00
O961   O     0.18694   0.49999   0.82549   0.00000  Uiso   1.00
O962   O     0.12706   0.43988   0.75000   0.00000  Uiso   1.00
O963   O     0.20625   0.43989   0.75000   0.00000  Uiso   1.00
O964   O     0.14640   0.50001   0.67451   0.00000  Uiso   1.00
O965   O     0.22559   0.50002   0.67451   0.00000  Uiso   1.00
C966   C     0.02640   0.57270   0.79648   0.00000  Uiso   1.00
C967   C     0.03803   0.57119   0.84868   0.00000  Uiso   1.00
C968   C     0.01838   0.60980   0.88353   0.00000  Uiso   1.00
H969   H     0.03203   0.63841   0.86371   0.00000  Uiso   1.00
H970   H     0.31148   0.61220   0.89468   0.00000  Uiso   1.00
H971   H     0.03024   0.60830   0.91911   0.00000  Uiso   1.00
H972   H     0.02231   0.54357   0.86984   0.00000  Uiso   1.00
H973   H     0.07778   0.56974   0.84196   0.00000  Uiso   1.00
H974   H     0.05262   0.58858   0.76572   0.00000  Uiso   1.00
H975   H     0.32789   0.59474   0.80266   0.00000  Uiso   1.00
N976   N     0.30387   0.55517   0.99545   0.00000  Uiso   1.00
H977   H     0.32277   0.53877   0.96131   0.00000  Uiso   1.00
H978   H     0.29538   0.58522   0.98684   0.00000  Uiso   1.00
C979   C     0.25609   0.61900   0.68281   0.00000  Uiso   1.00
C980   C     0.29461   0.64366   0.64446   0.00000  Uiso   1.00
C981   C     0.00167   0.61504   0.60991   0.00000  Uiso   1.00
H982   H     0.01919   0.59628   0.63392   0.00000  Uiso   1.00
H983   H     0.32009   0.59416   0.58565   0.00000  Uiso   1.00
H984   H     0.02966   0.63372   0.58382   0.00000  Uiso   1.00
H985   H     0.27743   0.66159   0.61939   0.00000  Uiso   1.00
H986   H     0.31147   0.66523   0.66619   0.00000  Uiso   1.00
H987   H     0.27402   0.60346   0.70904   0.00000  Uiso   1.00
H988   H     0.24379   0.59493   0.65988   0.00000  Uiso   1.00
C989   C     0.50048   0.57916   0.74734   0.00000  Uiso   1.00
C990   C     0.47786   0.50397   0.98991   0.00000  Uiso   1.00
C991   C     0.48915   0.51416   0.93694   0.00000  Uiso   1.00
C992   C     0.51320   0.51020   0.51676   0.00000  Uiso   1.00
C993   C     0.55729   0.52951   0.99181   0.00000  Uiso   1.00
C994   C     0.56455   0.54341   0.94161   0.00000  Uiso   1.00
C995   C     0.53067   0.53683   0.91526   0.00000  Uiso   1.00
C996   C     0.50614   0.49751   0.56767   0.00000  Uiso   1.00
C997   C     0.58369   0.52307   0.56915   0.00000  Uiso   1.00
C998   C     0.45818   0.50189   0.90728   0.00000  Uiso   1.00
C999   C     0.54452   0.64392   0.71587   0.00000  Uiso   1.00
C1000  C     0.47392   0.50151   0.85001   0.00000  Uiso   1.00
C1001  C     0.54394   0.35390   0.71944   0.00000  Uiso   1.00
C1002  C     0.50199   0.37632   0.74802   0.00000  Uiso   1.00
C1003  C     0.46020   0.35633   0.77372   0.00000  Uiso   1.00
C1004  C     0.46050   0.64721   0.77204   0.00000  Uiso   1.00
C1005  C     0.50182   0.62396   0.74392   0.00000  Uiso   1.00
C1006  C     0.63227   0.52943   0.77704   0.00000  Uiso   1.00
C1007  C     0.34837   0.53136   0.77551   0.00000  Uiso   1.00
C1008  C     0.36630   0.46941   0.72424   0.00000  Uiso   1.00
C1009  C     0.65037   0.46978   0.72363   0.00000  Uiso   1.00
C1010  C     0.50073   0.42086   0.74947   0.00000  Uiso   1.00
C1011  C     0.52589   0.50023   0.65029   0.00000  Uiso   1.00
C1012  C     0.59268   0.53535   0.51830   0.00000  Uiso   1.00
C1013  C     0.53994   0.50543   0.59433   0.00000  Uiso   1.00
C1014  C     0.41293   0.48596   0.93243   0.00000  Uiso   1.00
C1015  C     0.39934   0.48029   0.98548   0.00000  Uiso   1.00
C1016  C     0.43149   0.48834   0.51391   0.00000  Uiso   1.00
Cu1017 Cu    0.45311   0.49999   0.75000   0.00000  Uiso   1.00
Cu1018 Cu    0.54689   0.50001   0.75000   0.00000  Uiso   1.00
H1019  H     0.61006   0.52915   0.58975   0.00000  Uiso   1.00
H1020  H     0.57538   0.37075   0.69955   0.00000  Uiso   1.00
H1021  H     0.42760   0.37356   0.79619   0.00000  Uiso   1.00
H1022  H     0.42884   0.63257   0.79436   0.00000  Uiso   1.00
H1023  H     0.60559   0.55286   0.79789   0.00000  Uiso   1.00
H1024  H     0.39133   0.44495   0.70323   0.00000  Uiso   1.00
H1025  H     0.63872   0.44559   0.70216   0.00000  Uiso   1.00
H1026  H     0.59657   0.55941   0.92196   0.00000  Uiso   1.00
H1027  H     0.47427   0.48167   0.58808   0.00000  Uiso   1.00
H1028  H     0.38825   0.47699   0.91088   0.00000  Uiso   1.00
H1029  H     0.41836   0.48277   0.55476   0.00000  Uiso   1.00
H1030  H     0.36408   0.46839   0.50451   0.00000  Uiso   1.00
H1031  H     0.53715   0.55076   0.87804   0.00000  Uiso   1.00
N1032  N     0.38265   0.49999   0.74998   0.00000  Uiso   1.00
N1033  N     0.61735   0.50002   0.75000   0.00000  Uiso   1.00
O1034  O     0.46042   0.56011   0.75000   0.00000  Uiso   1.00
O1035  O     0.53961   0.56012   0.75000   0.00000  Uiso   1.00
O1036  O     0.44108   0.49998   0.82549   0.00000  Uiso   1.00
O1037  O     0.52027   0.49999   0.82549   0.00000  Uiso   1.00
O1038  O     0.46039   0.43988   0.75000   0.00000  Uiso   1.00
O1039  O     0.53958   0.43989   0.75000   0.00000  Uiso   1.00
O1040  O     0.47973   0.50001   0.67451   0.00000  Uiso   1.00
O1041  O     0.55892   0.50002   0.67451   0.00000  Uiso   1.00
C1042  C     0.35973   0.57270   0.79648   0.00000  Uiso   1.00
C1043  C     0.37136   0.57119   0.84868   0.00000  Uiso   1.00
C1044  C     0.35171   0.60980   0.88353   0.00000  Uiso   1.00
H1045  H     0.36536   0.63841   0.86371   0.00000  Uiso   1.00
H1046  H     0.64481   0.61220   0.89468   0.00000  Uiso   1.00
H1047  H     0.36357   0.60830   0.91911   0.00000  Uiso   1.00
H1048  H     0.35565   0.54357   0.86984   0.00000  Uiso   1.00
H1049  H     0.41111   0.56974   0.84196   0.00000  Uiso   1.00
H1050  H     0.38595   0.58858   0.76572   0.00000  Uiso   1.00
H1051  H     0.66122   0.59474   0.80266   0.00000  Uiso   1.00
N1052  N     0.63720   0.55517   0.99545   0.00000  Uiso   1.00
H1053  H     0.65611   0.53877   0.96131   0.00000  Uiso   1.00
H1054  H     0.62872   0.58522   0.98684   0.00000  Uiso   1.00
C1055  C     0.58942   0.61900   0.68281   0.00000  Uiso   1.00
C1056  C     0.62795   0.64366   0.64446   0.00000  Uiso   1.00
C1057  C     0.33500   0.61504   0.60991   0.00000  Uiso   1.00
H1058  H     0.35253   0.59628   0.63392   0.00000  Uiso   1.00
H1059  H     0.65343   0.59416   0.58565   0.00000  Uiso   1.00
H1060  H     0.36299   0.63372   0.58382   0.00000  Uiso   1.00
H1061  H     0.61076   0.66159   0.61939   0.00000  Uiso   1.00
H1062  H     0.64481   0.66523   0.66619   0.00000  Uiso   1.00
H1063  H     0.60735   0.60346   0.70904   0.00000  Uiso   1.00
H1064  H     0.57713   0.59493   0.65988   0.00000  Uiso   1.00
C1065  C     0.83381   0.57916   0.74734   0.00000  Uiso   1.00
C1066  C     0.81119   0.50397   0.98991   0.00000  Uiso   1.00
C1067  C     0.82248   0.51416   0.93694   0.00000  Uiso   1.00
C1068  C     0.84653   0.51020   0.51676   0.00000  Uiso   1.00
C1069  C     0.89062   0.52951   0.99181   0.00000  Uiso   1.00
C1070  C     0.89789   0.54341   0.94161   0.00000  Uiso   1.00
C1071  C     0.86400   0.53683   0.91526   0.00000  Uiso   1.00
C1072  C     0.83948   0.49751   0.56767   0.00000  Uiso   1.00
C1073  C     0.91703   0.52307   0.56915   0.00000  Uiso   1.00
C1074  C     0.79151   0.50189   0.90728   0.00000  Uiso   1.00
C1075  C     0.87786   0.64392   0.71587   0.00000  Uiso   1.00
C1076  C     0.80725   0.50151   0.85001   0.00000  Uiso   1.00
C1077  C     0.87728   0.35390   0.71944   0.00000  Uiso   1.00
C1078  C     0.83532   0.37632   0.74802   0.00000  Uiso   1.00
C1079  C     0.79353   0.35633   0.77372   0.00000  Uiso   1.00
C1080  C     0.79384   0.64721   0.77204   0.00000  Uiso   1.00
C1081  C     0.83516   0.62396   0.74392   0.00000  Uiso   1.00
C1082  C     0.96560   0.52943   0.77704   0.00000  Uiso   1.00
C1083  C     0.68170   0.53136   0.77551   0.00000  Uiso   1.00
C1084  C     0.69964   0.46941   0.72424   0.00000  Uiso   1.00
C1085  C     0.98371   0.46978   0.72363   0.00000  Uiso   1.00
C1086  C     0.83406   0.42086   0.74947   0.00000  Uiso   1.00
C1087  C     0.85923   0.50023   0.65029   0.00000  Uiso   1.00
C1088  C     0.92601   0.53535   0.51830   0.00000  Uiso   1.00
C1089  C     0.87327   0.50543   0.59433   0.00000  Uiso   1.00
C1090  C     0.74627   0.48596   0.93243   0.00000  Uiso   1.00
C1091  C     0.73267   0.48029   0.98548   0.00000  Uiso   1.00
C1092  C     0.76483   0.48834   0.51391   0.00000  Uiso   1.00
Cu1093 Cu    0.78645   0.49999   0.75000   0.00000  Uiso   1.00
Cu1094 Cu    0.88022   0.50001   0.75000   0.00000  Uiso   1.00
H1095  H     0.94339   0.52915   0.58975   0.00000  Uiso   1.00
H1096  H     0.90871   0.37075   0.69955   0.00000  Uiso   1.00
H1097  H     0.76094   0.37356   0.79619   0.00000  Uiso   1.00
H1098  H     0.76218   0.63257   0.79436   0.00000  Uiso   1.00
H1099  H     0.93892   0.55286   0.79789   0.00000  Uiso   1.00
H1100  H     0.72466   0.44495   0.70323   0.00000  Uiso   1.00
H1101  H     0.97205   0.44559   0.70216   0.00000  Uiso   1.00
H1102  H     0.92990   0.55941   0.92196   0.00000  Uiso   1.00
H1103  H     0.80760   0.48167   0.58808   0.00000  Uiso   1.00
H1104  H     0.72158   0.47699   0.91088   0.00000  Uiso   1.00
H1105  H     0.75169   0.48277   0.55476   0.00000  Uiso   1.00
H1106  H     0.69741   0.46839   0.50451   0.00000  Uiso   1.00
H1107  H     0.87049   0.55076   0.87804   0.00000  Uiso   1.00
N1108  N     0.71598   0.49999   0.74998   0.00000  Uiso   1.00
N1109  N     0.95069   0.50002   0.75000   0.00000  Uiso   1.00
O1110  O     0.79375   0.56011   0.75000   0.00000  Uiso   1.00
O1111  O     0.87294   0.56012   0.75000   0.00000  Uiso   1.00
O1112  O     0.77441   0.49998   0.82549   0.00000  Uiso   1.00
O1113  O     0.85360   0.49999   0.82549   0.00000  Uiso   1.00
O1114  O     0.79373   0.43988   0.75000   0.00000  Uiso   1.00
O1115  O     0.87292   0.43989   0.75000   0.00000  Uiso   1.00
O1116  O     0.81306   0.50001   0.67451   0.00000  Uiso   1.00
O1117  O     0.89225   0.50002   0.67451   0.00000  Uiso   1.00
C1118  C     0.69306   0.57270   0.79648   0.00000  Uiso   1.00
C1119  C     0.70470   0.57119   0.84868   0.00000  Uiso   1.00
C1120  C     0.68504   0.60980   0.88353   0.00000  Uiso   1.00
H1121  H     0.69870   0.63841   0.86371   0.00000  Uiso   1.00
H1122  H     0.97814   0.61220   0.89468   0.00000  Uiso   1.00
H1123  H     0.69690   0.60830   0.91911   0.00000  Uiso   1.00
H1124  H     0.68898   0.54357   0.86984   0.00000  Uiso   1.00
H1125  H     0.74444   0.56974   0.84196   0.00000  Uiso   1.00
H1126  H     0.71928   0.58858   0.76572   0.00000  Uiso   1.00
H1127  H     0.99456   0.59474   0.80266   0.00000  Uiso   1.00
N1128  N     0.97054   0.55517   0.99545   0.00000  Uiso   1.00
H1129  H     0.98944   0.53877   0.96131   0.00000  Uiso   1.00
H1130  H     0.96205   0.58522   0.98684   0.00000  Uiso   1.00
C1131  C     0.92275   0.61900   0.68281   0.00000  Uiso   1.00
C1132  C     0.96128   0.64366   0.64446   0.00000  Uiso   1.00
C1133  C     0.66833   0.61504   0.60991   0.00000  Uiso   1.00
H1134  H     0.68586   0.59628   0.63392   0.00000  Uiso   1.00
H1135  H     0.98676   0.59416   0.58565   0.00000  Uiso   1.00
H1136  H     0.69633   0.63372   0.58382   0.00000  Uiso   1.00
H1137  H     0.94409   0.66159   0.61939   0.00000  Uiso   1.00
H1138  H     0.97814   0.66523   0.66619   0.00000  Uiso   1.00
H1139  H     0.94068   0.60346   0.70904   0.00000  Uiso   1.00
H1140  H     0.91046   0.59493   0.65988   0.00000  Uiso   1.00
C1141  C     0.16714   0.91249   0.74734   0.00000  Uiso   1.00
C1142  C     0.14453   0.83730   0.98991   0.00000  Uiso   1.00
C1143  C     0.15582   0.84749   0.93694   0.00000  Uiso   1.00
C1144  C     0.17987   0.84353   0.51676   0.00000  Uiso   1.00
C1145  C     0.22396   0.86285   0.99181   0.00000  Uiso   1.00
C1146  C     0.23122   0.87674   0.94161   0.00000  Uiso   1.00
C1147  C     0.19734   0.87017   0.91526   0.00000  Uiso   1.00
C1148  C     0.17281   0.83084   0.56767   0.00000  Uiso   1.00
C1149  C     0.25036   0.85640   0.56915   0.00000  Uiso   1.00
C1150  C     0.12485   0.83522   0.90728   0.00000  Uiso   1.00
C1151  C     0.21119   0.97725   0.71587   0.00000  Uiso   1.00
C1152  C     0.14058   0.83484   0.85001   0.00000  Uiso   1.00
C1153  C     0.21061   0.68723   0.71944   0.00000  Uiso   1.00
C1154  C     0.16866   0.70966   0.74802   0.00000  Uiso   1.00
C1155  C     0.12686   0.68966   0.77372   0.00000  Uiso   1.00
C1156  C     0.12717   0.98054   0.77204   0.00000  Uiso   1.00
C1157  C     0.16849   0.95729   0.74392   0.00000  Uiso   1.00
C1158  C     0.29894   0.86276   0.77704   0.00000  Uiso   1.00
C1159  C     0.01504   0.86470   0.77551   0.00000  Uiso   1.00
C1160  C     0.03297   0.80275   0.72424   0.00000  Uiso   1.00
C1161  C     0.31704   0.80311   0.72363   0.00000  Uiso   1.00
C1162  C     0.16740   0.75419   0.74947   0.00000  Uiso   1.00
C1163  C     0.19256   0.83357   0.65029   0.00000  Uiso   1.00
C1164  C     0.25934   0.86868   0.51830   0.00000  Uiso   1.00
C1165  C     0.20661   0.83876   0.59433   0.00000  Uiso   1.00
C1166  C     0.07960   0.81929   0.93243   0.00000  Uiso   1.00
C1167  C     0.06600   0.81362   0.98548   0.00000  Uiso   1.00
C1168  C     0.09816   0.82168   0.51391   0.00000  Uiso   1.00
Cu1169 Cu    0.11978   0.83333   0.75000   0.00000  Uiso   1.00
Cu1170 Cu    0.21355   0.83334   0.75000   0.00000  Uiso   1.00
H1171  H     0.27673   0.86249   0.58975   0.00000  Uiso   1.00
H1172  H     0.24204   0.70408   0.69955   0.00000  Uiso   1.00
H1173  H     0.09427   0.70689   0.79619   0.00000  Uiso   1.00
H1174  H     0.09551   0.96591   0.79436   0.00000  Uiso   1.00
H1175  H     0.27226   0.88620   0.79789   0.00000  Uiso   1.00
H1176  H     0.05800   0.77829   0.70323   0.00000  Uiso   1.00
H1177  H     0.30539   0.77892   0.70216   0.00000  Uiso   1.00
H1178  H     0.26324   0.89274   0.92196   0.00000  Uiso   1.00
H1179  H     0.14093   0.81500   0.58808   0.00000  Uiso   1.00
H1180  H     0.05491   0.81032   0.91088   0.00000  Uiso   1.00
H1181  H     0.08503   0.81611   0.55476   0.00000  Uiso   1.00
H1182  H     0.03074   0.80173   0.50451   0.00000  Uiso   1.00
H1183  H     0.20382   0.88409   0.87804   0.00000  Uiso   1.00
N1184  N     0.04931   0.83332   0.74998   0.00000  Uiso   1.00
N1185  N     0.28402   0.83335   0.75000   0.00000  Uiso   1.00
O1186  O     0.12708   0.89345   0.75000   0.00000  Uiso   1.00
O1187  O     0.20627   0.89346   0.75000   0.00000  Uiso   1.00
O1188  O     0.10775   0.83332   0.82549   0.00000  Uiso   1.00
O1189  O     0.18694   0.83333   0.82549   0.00000  Uiso   1.00
O1190  O     0.12706   0.77321   0.75000   0.00000  Uiso   1.00
O1191  O     0.20625   0.77322   0.75000   0.00000  Uiso   1.00
O1192  O     0.14640   0.83334   0.67451   0.00000  Uiso   1.00
O1193  O     0.22559   0.83335   0.67451   0.00000  Uiso   1.00
C1194  C     0.02640   0.90603   0.79648   0.00000  Uiso   1.00
C1195  C     0.03803   0.90453   0.84868   0.00000  Uiso   1.00
C1196  C     0.01838   0.94314   0.88353   0.00000  Uiso   1.00
H1197  H     0.03203   0.97175   0.86371   0.00000  Uiso   1.00
H1198  H     0.31148   0.94553   0.89468   0.00000  Uiso   1.00
H1199  H     0.03024   0.94164   0.91911   0.00000  Uiso   1.00
H1200  H     0.02231   0.87691   0.86984   0.00000  Uiso   1.00
H1201  H     0.07778   0.90307   0.84196   0.00000  Uiso   1.00
H1202  H     0.05262   0.92192   0.76572   0.00000  Uiso   1.00
H1203  H     0.32789   0.92807   0.80266   0.00000  Uiso   1.00
N1204  N     0.30387   0.88850   0.99545   0.00000  Uiso   1.00
H1205  H     0.32277   0.87210   0.96131   0.00000  Uiso   1.00
H1206  H     0.29538   0.91855   0.98684   0.00000  Uiso   1.00
C1207  C     0.25609   0.95233   0.68281   0.00000  Uiso   1.00
C1208  C     0.29461   0.97699   0.64446   0.00000  Uiso   1.00
C1209  C     0.00167   0.94838   0.60991   0.00000  Uiso   1.00
H1210  H     0.01919   0.92961   0.63392   0.00000  Uiso   1.00
H1211  H     0.32009   0.92750   0.58565   0.00000  Uiso   1.00
H1212  H     0.02966   0.96706   0.58382   0.00000  Uiso   1.00
H1213  H     0.27743   0.99492   0.61939   0.00000  Uiso   1.00
H1214  H     0.31147   0.99857   0.66619   0.00000  Uiso   1.00
H1215  H     0.27402   0.93680   0.70904   0.00000  Uiso   1.00
H1216  H     0.24379   0.92826   0.65988   0.00000  Uiso   1.00
C1217  C     0.50048   0.91249   0.74734   0.00000  Uiso   1.00
C1218  C     0.47786   0.83730   0.98991   0.00000  Uiso   1.00
C1219  C     0.48915   0.84749   0.93694   0.00000  Uiso   1.00
C1220  C     0.51320   0.84353   0.51676   0.00000  Uiso   1.00
C1221  C     0.55729   0.86285   0.99181   0.00000  Uiso   1.00
C1222  C     0.56455   0.87674   0.94161   0.00000  Uiso   1.00
C1223  C     0.53067   0.87017   0.91526   0.00000  Uiso   1.00
C1224  C     0.50614   0.83084   0.56767   0.00000  Uiso   1.00
C1225  C     0.58369   0.85640   0.56915   0.00000  Uiso   1.00
C1226  C     0.45818   0.83522   0.90728   0.00000  Uiso   1.00
C1227  C     0.54452   0.97725   0.71587   0.00000  Uiso   1.00
C1228  C     0.47392   0.83484   0.85001   0.00000  Uiso   1.00
C1229  C     0.54394   0.68723   0.71944   0.00000  Uiso   1.00
C1230  C     0.50199   0.70966   0.74802   0.00000  Uiso   1.00
C1231  C     0.46020   0.68966   0.77372   0.00000  Uiso   1.00
C1232  C     0.46050   0.98054   0.77204   0.00000  Uiso   1.00
C1233  C     0.50182   0.95729   0.74392   0.00000  Uiso   1.00
C1234  C     0.63227   0.86276   0.77704   0.00000  Uiso   1.00
C1235  C     0.34837   0.86470   0.77551   0.00000  Uiso   1.00
C1236  C     0.36630   0.80275   0.72424   0.00000  Uiso   1.00
C1237  C     0.65037   0.80311   0.72363   0.00000  Uiso   1.00
C1238  C     0.50073   0.75419   0.74947   0.00000  Uiso   1.00
C1239  C     0.52589   0.83357   0.65029   0.00000  Uiso   1.00
C1240  C     0.59268   0.86868   0.51830   0.00000  Uiso   1.00
C1241  C     0.53994   0.83876   0.59433   0.00000  Uiso   1.00
C1242  C     0.41293   0.81929   0.93243   0.00000  Uiso   1.00
C1243  C     0.39934   0.81362   0.98548   0.00000  Uiso   1.00
C1244  C     0.43149   0.82168   0.51391   0.00000  Uiso   1.00
Cu1245 Cu    0.45311   0.83333   0.75000   0.00000  Uiso   1.00
Cu1246 Cu    0.54689   0.83334   0.75000   0.00000  Uiso   1.00
H1247  H     0.61006   0.86249   0.58975   0.00000  Uiso   1.00
H1248  H     0.57538   0.70408   0.69955   0.00000  Uiso   1.00
H1249  H     0.42760   0.70689   0.79619   0.00000  Uiso   1.00
H1250  H     0.42884   0.96591   0.79436   0.00000  Uiso   1.00
H1251  H     0.60559   0.88620   0.79789   0.00000  Uiso   1.00
H1252  H     0.39133   0.77829   0.70323   0.00000  Uiso   1.00
H1253  H     0.63872   0.77892   0.70216   0.00000  Uiso   1.00
H1254  H     0.59657   0.89274   0.92196   0.00000  Uiso   1.00
H1255  H     0.47427   0.81500   0.58808   0.00000  Uiso   1.00
H1256  H     0.38825   0.81032   0.91088   0.00000  Uiso   1.00
H1257  H     0.41836   0.81611   0.55476   0.00000  Uiso   1.00
H1258  H     0.36408   0.80173   0.50451   0.00000  Uiso   1.00
H1259  H     0.53715   0.88409   0.87804   0.00000  Uiso   1.00
N1260  N     0.38265   0.83332   0.74998   0.00000  Uiso   1.00
N1261  N     0.61735   0.83335   0.75000   0.00000  Uiso   1.00
O1262  O     0.46042   0.89345   0.75000   0.00000  Uiso   1.00
O1263  O     0.53961   0.89346   0.75000   0.00000  Uiso   1.00
O1264  O     0.44108   0.83332   0.82549   0.00000  Uiso   1.00
O1265  O     0.52027   0.83333   0.82549   0.00000  Uiso   1.00
O1266  O     0.46039   0.77321   0.75000   0.00000  Uiso   1.00
O1267  O     0.53958   0.77322   0.75000   0.00000  Uiso   1.00
O1268  O     0.47973   0.83334   0.67451   0.00000  Uiso   1.00
O1269  O     0.55892   0.83335   0.67451   0.00000  Uiso   1.00
C1270  C     0.35973   0.90603   0.79648   0.00000  Uiso   1.00
C1271  C     0.37136   0.90453   0.84868   0.00000  Uiso   1.00
C1272  C     0.35171   0.94314   0.88353   0.00000  Uiso   1.00
H1273  H     0.36536   0.97175   0.86371   0.00000  Uiso   1.00
H1274  H     0.64481   0.94553   0.89468   0.00000  Uiso   1.00
H1275  H     0.36357   0.94164   0.91911   0.00000  Uiso   1.00
H1276  H     0.35565   0.87691   0.86984   0.00000  Uiso   1.00
H1277  H     0.41111   0.90307   0.84196   0.00000  Uiso   1.00
H1278  H     0.38595   0.92192   0.76572   0.00000  Uiso   1.00
H1279  H     0.66122   0.92807   0.80266   0.00000  Uiso   1.00
N1280  N     0.63720   0.88850   0.99545   0.00000  Uiso   1.00
H1281  H     0.65611   0.87210   0.96131   0.00000  Uiso   1.00
H1282  H     0.62872   0.91855   0.98684   0.00000  Uiso   1.00
C1283  C     0.58942   0.95233   0.68281   0.00000  Uiso   1.00
C1284  C     0.62795   0.97699   0.64446   0.00000  Uiso   1.00
C1285  C     0.33500   0.94838   0.60991   0.00000  Uiso   1.00
H1286  H     0.35253   0.92961   0.63392   0.00000  Uiso   1.00
H1287  H     0.65343   0.92750   0.58565   0.00000  Uiso   1.00
H1288  H     0.36299   0.96706   0.58382   0.00000  Uiso   1.00
H1289  H     0.61076   0.99492   0.61939   0.00000  Uiso   1.00
H1290  H     0.64481   0.99857   0.66619   0.00000  Uiso   1.00
H1291  H     0.60735   0.93680   0.70904   0.00000  Uiso   1.00
H1292  H     0.57713   0.92826   0.65988   0.00000  Uiso   1.00
C1293  C     0.83381   0.91249   0.74734   0.00000  Uiso   1.00
C1294  C     0.81119   0.83730   0.98991   0.00000  Uiso   1.00
C1295  C     0.82248   0.84749   0.93694   0.00000  Uiso   1.00
C1296  C     0.84653   0.84353   0.51676   0.00000  Uiso   1.00
C1297  C     0.89062   0.86285   0.99181   0.00000  Uiso   1.00
C1298  C     0.89789   0.87674   0.94161   0.00000  Uiso   1.00
C1299  C     0.86400   0.87017   0.91526   0.00000  Uiso   1.00
C1300  C     0.83948   0.83084   0.56767   0.00000  Uiso   1.00
C1301  C     0.91703   0.85640   0.56915   0.00000  Uiso   1.00
C1302  C     0.79151   0.83522   0.90728   0.00000  Uiso   1.00
C1303  C     0.87786   0.97725   0.71587   0.00000  Uiso   1.00
C1304  C     0.80725   0.83484   0.85001   0.00000  Uiso   1.00
C1305  C     0.87728   0.68723   0.71944   0.00000  Uiso   1.00
C1306  C     0.83532   0.70966   0.74802   0.00000  Uiso   1.00
C1307  C     0.79353   0.68966   0.77372   0.00000  Uiso   1.00
C1308  C     0.79384   0.98054   0.77204   0.00000  Uiso   1.00
C1309  C     0.83516   0.95729   0.74392   0.00000  Uiso   1.00
C1310  C     0.96560   0.86276   0.77704   0.00000  Uiso   1.00
C1311  C     0.68170   0.86470   0.77551   0.00000  Uiso   1.00
C1312  C     0.69964   0.80275   0.72424   0.00000  Uiso   1.00
C1313  C     0.98371   0.80311   0.72363   0.00000  Uiso   1.00
C1314  C     0.83406   0.75419   0.74947   0.00000  Uiso   1.00
C1315  C     0.85923   0.83357   0.65029   0.00000  Uiso   1.00
C1316  C     0.92601   0.86868   0.51830   0.00000  Uiso   1.00
C1317  C     0.87327   0.83876   0.59433   0.00000  Uiso   1.00
C1318  C     0.74627   0.81929   0.93243   0.00000  Uiso   1.00
C1319  C     0.73267   0.81362   0.98548   0.00000  Uiso   1.00
C1320  C     0.76483   0.82168   0.51391   0.00000  Uiso   1.00
Cu1321 Cu    0.78645   0.83333   0.75000   0.00000  Uiso   1.00
Cu1322 Cu    0.88022   0.83334   0.75000   0.00000  Uiso   1.00
H1323  H     0.94339   0.86249   0.58975   0.00000  Uiso   1.00
H1324  H     0.90871   0.70408   0.69955   0.00000  Uiso   1.00
H1325  H     0.76094   0.70689   0.79619   0.00000  Uiso   1.00
H1326  H     0.76218   0.96591   0.79436   0.00000  Uiso   1.00
H1327  H     0.93892   0.88620   0.79789   0.00000  Uiso   1.00
H1328  H     0.72466   0.77829   0.70323   0.00000  Uiso   1.00
H1329  H     0.97205   0.77892   0.70216   0.00000  Uiso   1.00
H1330  H     0.92990   0.89274   0.92196   0.00000  Uiso   1.00
H1331  H     0.80760   0.81500   0.58808   0.00000  Uiso   1.00
H1332  H     0.72158   0.81032   0.91088   0.00000  Uiso   1.00
H1333  H     0.75169   0.81611   0.55476   0.00000  Uiso   1.00
H1334  H     0.69741   0.80173   0.50451   0.00000  Uiso   1.00
H1335  H     0.87049   0.88409   0.87804   0.00000  Uiso   1.00
N1336  N     0.71598   0.83332   0.74998   0.00000  Uiso   1.00
N1337  N     0.95069   0.83335   0.75000   0.00000  Uiso   1.00
O1338  O     0.79375   0.89345   0.75000   0.00000  Uiso   1.00
O1339  O     0.87294   0.89346   0.75000   0.00000  Uiso   1.00
O1340  O     0.77441   0.83332   0.82549   0.00000  Uiso   1.00
O1341  O     0.85360   0.83333   0.82549   0.00000  Uiso   1.00
O1342  O     0.79373   0.77321   0.75000   0.00000  Uiso   1.00
O1343  O     0.87292   0.77322   0.75000   0.00000  Uiso   1.00
O1344  O     0.81306   0.83334   0.67451   0.00000  Uiso   1.00
O1345  O     0.89225   0.83335   0.67451   0.00000  Uiso   1.00
C1346  C     0.69306   0.90603   0.79648   0.00000  Uiso   1.00
C1347  C     0.70470   0.90453   0.84868   0.00000  Uiso   1.00
C1348  C     0.68504   0.94314   0.88353   0.00000  Uiso   1.00
H1349  H     0.69870   0.97175   0.86371   0.00000  Uiso   1.00
H1350  H     0.97814   0.94553   0.89468   0.00000  Uiso   1.00
H1351  H     0.69690   0.94164   0.91911   0.00000  Uiso   1.00
H1352  H     0.68898   0.87691   0.86984   0.00000  Uiso   1.00
H1353  H     0.74444   0.90307   0.84196   0.00000  Uiso   1.00
H1354  H     0.71928   0.92192   0.76572   0.00000  Uiso   1.00
H1355  H     0.99456   0.92807   0.80266   0.00000  Uiso   1.00
N1356  N     0.97054   0.88850   0.99545   0.00000  Uiso   1.00
H1357  H     0.98944   0.87210   0.96131   0.00000  Uiso   1.00
H1358  H     0.96205   0.91855   0.98684   0.00000  Uiso   1.00
C1359  C     0.92275   0.95233   0.68281   0.00000  Uiso   1.00
C1360  C     0.96128   0.97699   0.64446   0.00000  Uiso   1.00
C1361  C     0.66833   0.94838   0.60991   0.00000  Uiso   1.00
H1362  H     0.68586   0.92961   0.63392   0.00000  Uiso   1.00
H1363  H     0.98676   0.92750   0.58565   0.00000  Uiso   1.00
H1364  H     0.69633   0.96706   0.58382   0.00000  Uiso   1.00
H1365  H     0.94409   0.99492   0.61939   0.00000  Uiso   1.00
H1366  H     0.97814   0.99857   0.66619   0.00000  Uiso   1.00
H1367  H     0.94068   0.93680   0.70904   0.00000  Uiso   1.00
H1368  H     0.91046   0.92826   0.65988   0.00000  Uiso   1.00
loop_
_geom_bond_atom_site_label_1
_geom_bond_atom_site_label_2
_geom_bond_distance
_geom_bond_site_symmetry_2
_ccdc_geom_bond_type
C1     O46     1.310   .     A
C1     O47     1.288   .     A
C1     C17     1.458   .     S
C2     C3      1.419   .     A
C2     C688    1.427   .     S
C2     C712    1.418   .     S
C3     C7      1.407   .     A
C3     C10     1.420   .     A
C4     C8      1.402   .     A
C4     C686    1.427   1_554 S
C4     C689    1.424   1_554 S
C5     C6      1.396   .     A
C5     C688    1.424   .     S
C5     C708    1.419   .     S
C6     H38     1.076   .     S
C6     C7      1.383   .     A
C7     H43     1.079   .     S
C8     H39     1.076   .     S
C8     C25     1.394   .     A
C9     C25     1.393   .     A
C9     C24     1.390   .     A
C9     H31     1.083   .     S
C10    C26     1.403   .     A
C10    C12     1.476   .     S
C11    C67     1.529   .     S
C11    C17     1.426   .     A
C11    C241    1.404   .     S
C12    O49     1.303   .     A
C12    O48     1.303   .     A
C13    H32     1.081   .     S
C13    C14     1.396   .     A
C13    C467    1.404   1_545 S
C14    C22     1.442   .     S
C14    C15     1.390   .     A
C15    H33     1.084   .     S
C15    C472    1.375   1_545 S
C16    H34     1.067   .     S
C16    C17     1.394   .     A
C16    C243    1.375   .     S
C18    H35     1.082   .     S
C18    N45     1.341   .     A
C18    C95     1.415   .     S
C19    C54     1.523   .     S
C19    N44     1.408   .     A
C19    C170    1.415   1_455 S
C20    N44     1.368   .     A
C20    H36     1.081   .     S
C20    C173    1.422   1_455 S
C21    N45     1.370   .     A
C21    H37     1.082   .     S
C21    C96     1.422   .     S
C22    O50     1.293   .     A
C22    O51     1.298   .     A
C23    O53     1.301   .     A
C23    O52     1.298   .     A
C23    C25     1.459   .     S
C24    C689    1.419   1_554 S
C24    N748    1.431   1_554 S
C26    C27     1.387   .     A
C26    H40     1.083   .     S
C27    C712    1.390   .     S
C27    H726    1.083   .     S
C28    H41     1.077   .     S
C28    C711    1.390   1_554 S
C28    C686    1.418   1_554 S
Cu29   O50     1.953   .     S
Cu29   O48     1.962   .     S
Cu29   Cu30    2.699   .     S
Cu29   N44     2.028   .     S
Cu29   O46     1.967   .     S
Cu29   O52     1.954   .     S
Cu30   O51     1.967   .     S
Cu30   N45     2.028   .     S
Cu30   O53     1.962   .     S
Cu30   O47     1.953   .     S
Cu30   O49     1.954   .     S
H42    C711    1.083   1_554 S
C54    H62     1.097   .     S
C54    C55     1.540   .     S
C54    H215    1.113   1_455 S
C55    C56     1.534   .     S
C55    H61     1.104   .     S
C55    H60     1.110   .     S
C56    H57     1.107   .     S
C56    H59     1.110   .     S
C56    H210    1.108   1_455 S
H58    C132    1.108   .     S
H63    C130    1.113   .     S
N64    H66     1.045   .     S
N64    H65     1.044   .     S
N64    C708    1.431   .     S
C67    C68     1.538   .     S
C67    H75     1.111   .     S
C67    H76     1.112   .     S
C68    H74     1.111   .     S
C68    H73     1.112   .     S
C68    C145    1.527   .     S
C69    H72     1.110   .     S
C69    H70     1.111   .     S
C69    C220    1.527   1_455 S
C69    H223    1.109   1_455 S
H71    C145    1.109   .     S
C77    O122    1.310   .     A
C77    O123    1.288   .     A
C77    C93     1.458   .     S
C78    C79     1.419   .     A
C78    C764    1.427   .     S
C78    C788    1.418   .     S
C79    C83     1.407   .     A
C79    C86     1.420   .     A
C80    C84     1.402   .     A
C80    C762    1.427   1_554 S
C80    C765    1.424   1_554 S
C81    C82     1.396   .     A
C81    C764    1.424   .     S
C81    C784    1.419   .     S
C82    H114    1.076   .     S
C82    C83     1.383   .     A
C83    H119    1.079   .     S
C84    H115    1.076   .     S
C84    C101    1.394   .     A
C85    C101    1.393   .     A
C85    C100    1.390   .     A
C85    H107    1.083   .     S
C86    C102    1.403   .     A
C86    C88     1.476   .     S
C87    C143    1.529   .     S
C87    C93     1.426   .     A
C87    C317    1.404   .     S
C88    O125    1.303   .     A
C88    O124    1.303   .     A
C89    H108    1.081   .     S
C89    C90     1.396   .     A
C89    C543    1.404   1_545 S
C90    C98     1.442   .     S
C90    C91     1.390   .     A
C91    H109    1.084   .     S
C91    C548    1.375   1_545 S
C92    H110    1.067   .     S
C92    C93     1.394   .     A
C92    C319    1.375   .     S
C94    H111    1.082   .     S
C94    N121    1.341   .     A
C94    C171    1.415   .     S
C95    C130    1.523   .     S
C95    N120    1.408   .     A
C96    N120    1.368   .     A
C96    H112    1.081   .     S
C97    N121    1.370   .     A
C97    H113    1.082   .     S
C97    C172    1.422   .     S
C98    O126    1.293   .     A
C98    O127    1.298   .     A
C99    O129    1.301   .     A
C99    O128    1.298   .     A
C99    C101    1.459   .     S
C100   C765    1.419   1_554 S
C100   N824    1.431   1_554 S
C102   C103    1.387   .     A
C102   H116    1.083   .     S
C103   C788    1.390   .     S
C103   H802    1.083   .     S
C104   H117    1.077   .     S
C104   C787    1.390   1_554 S
C104   C762    1.418   1_554 S
Cu105  O126    1.953   .     S
Cu105  O124    1.962   .     S
Cu105  Cu106   2.699   .     S
Cu105  N120    2.028   .     S
Cu105  O122    1.967   .     S
Cu105  O128    1.954   .     S
Cu106  O127    1.967   .     S
Cu106  N121    2.028   .     S
Cu106  O129    1.962   .     S
Cu106  O123    1.953   .     S
Cu106  O125    1.954   .     S
H118   C787    1.083   1_554 S
C130   H138    1.097   .     S
C130   C131    1.540   .     S
C131   C132    1.534   .     S
C131   H137    1.104   .     S
C131   H136    1.110   .     S
C132   H133    1.107   .     S
C132   H135    1.110   .     S
H134   C208    1.108   .     S
H139   C206    1.113   .     S
N140   H142    1.045   .     S
N140   H141    1.044   .     S
N140   C784    1.431   .     S
C143   C144    1.538   .     S
C143   H151    1.111   .     S
C143   H152    1.112   .     S
C144   H150    1.111   .     S
C144   H149    1.112   .     S
C144   C221    1.527   .     S
C145   H148    1.110   .     S
C145   H146    1.111   .     S
H147   C221    1.109   .     S
C153   O198    1.310   .     A
C153   O199    1.288   .     A
C153   C169    1.458   .     S
C154   C155    1.419   .     A
C154   C840    1.427   .     S
C154   C864    1.418   .     S
C155   C159    1.407   .     A
C155   C162    1.420   .     A
C156   C160    1.402   .     A
C156   C838    1.427   1_554 S
C156   C841    1.424   1_554 S
C157   C158    1.396   .     A
C157   C840    1.424   .     S
C157   C860    1.419   .     S
C158   H190    1.076   .     S
C158   C159    1.383   .     A
C159   H195    1.079   .     S
C160   H191    1.076   .     S
C160   C177    1.394   .     A
C161   C177    1.393   .     A
C161   C176    1.390   .     A
C161   H183    1.083   .     S
C162   C178    1.403   .     A
C162   C164    1.476   .     S
C163   C219    1.529   .     S
C163   C169    1.426   .     A
C163   C393    1.404   .     S
C164   O201    1.303   .     A
C164   O200    1.303   .     A
C165   H184    1.081   .     S
C165   C166    1.396   .     A
C165   C619    1.404   1_545 S
C166   C174    1.442   .     S
C166   C167    1.390   .     A
C167   H185    1.084   .     S
C167   C624    1.375   1_545 S
C168   H186    1.067   .     S
C168   C169    1.394   .     A
C168   C395    1.375   .     S
C170   H187    1.082   .     S
C170   N197    1.341   .     A
C170   C19     1.415   1_655 S
C171   C206    1.523   .     S
C171   N196    1.408   .     A
C172   N196    1.368   .     A
C172   H188    1.081   .     S
C173   N197    1.370   .     A
C173   H189    1.082   .     S
C173   C20     1.422   1_655 S
C174   O202    1.293   .     A
C174   O203    1.298   .     A
C175   O205    1.301   .     A
C175   O204    1.298   .     A
C175   C177    1.459   .     S
C176   C841    1.419   1_554 S
C176   N900    1.431   1_554 S
C178   C179    1.387   .     A
C178   H192    1.083   .     S
C179   C864    1.390   .     S
C179   H878    1.083   .     S
C180   H193    1.077   .     S
C180   C863    1.390   1_554 S
C180   C838    1.418   1_554 S
Cu181  O202    1.953   .     S
Cu181  O200    1.962   .     S
Cu181  Cu182   2.699   .     S
Cu181  N196    2.028   .     S
Cu181  O198    1.967   .     S
Cu181  O204    1.954   .     S
Cu182  O203    1.967   .     S
Cu182  N197    2.028   .     S
Cu182  O205    1.962   .     S
Cu182  O199    1.953   .     S
Cu182  O201    1.954   .     S
H194   C863    1.083   1_554 S
C206   H214    1.097   .     S
C206   C207    1.540   .     S
C207   C208    1.534   .     S
C207   H213    1.104   .     S
C207   H212    1.110   .     S
C208   H209    1.107   .     S
C208   H211    1.110   .     S
H210   C56     1.108   1_655 S
H215   C54     1.113   1_655 S
N216   H218    1.045   .     S
N216   H217    1.044   .     S
N216   C860    1.431   .     S
C219   C220    1.538   .     S
C219   H227    1.111   .     S
C219   H228    1.112   .     S
C220   H226    1.111   .     S
C220   H225    1.112   .     S
C220   C69     1.527   1_655 S
C221   H224    1.110   .     S
C221   H222    1.111   .     S
H223   C69     1.109   1_655 S
C229   O274    1.310   .     A
C229   O275    1.288   .     A
C229   C245    1.458   .     S
C230   C231    1.419   .     A
C230   C916    1.427   .     S
C230   C940    1.418   .     S
C231   C235    1.407   .     A
C231   C238    1.420   .     A
C232   C236    1.402   .     A
C232   C914    1.427   1_554 S
C232   C917    1.424   1_554 S
C233   C234    1.396   .     A
C233   C916    1.424   .     S
C233   C936    1.419   .     S
C234   H266    1.076   .     S
C234   C235    1.383   .     A
C235   H271    1.079   .     S
C236   H267    1.076   .     S
C236   C253    1.394   .     A
C237   C253    1.393   .     A
C237   C252    1.390   .     A
C237   H259    1.083   .     S
C238   C254    1.403   .     A
C238   C240    1.476   .     S
C239   C295    1.529   .     S
C239   C245    1.426   .     A
C239   C469    1.404   .     S
C240   O277    1.303   .     A
C240   O276    1.303   .     A
C241   H260    1.081   .     S
C241   C242    1.396   .     A
C242   C250    1.442   .     S
C242   C243    1.390   .     A
C243   H261    1.084   .     S
C244   H262    1.067   .     S
C244   C245    1.394   .     A
C244   C471    1.375   .     S
C246   H263    1.082   .     S
C246   N273    1.341   .     A
C246   C323    1.415   .     S
C247   C282    1.523   .     S
C247   N272    1.408   .     A
C247   C398    1.415   1_455 S
C248   N272    1.368   .     A
C248   H264    1.081   .     S
C248   C401    1.422   1_455 S
C249   N273    1.370   .     A
C249   H265    1.082   .     S
C249   C324    1.422   .     S
C250   O278    1.293   .     A
C250   O279    1.298   .     A
C251   O281    1.301   .     A
C251   O280    1.298   .     A
C251   C253    1.459   .     S
C252   C917    1.419   1_554 S
C252   N976    1.431   1_554 S
C254   C255    1.387   .     A
C254   H268    1.083   .     S
C255   C940    1.390   .     S
C255   H954    1.083   .     S
C256   H269    1.077   .     S
C256   C939    1.390   1_554 S
C256   C914    1.418   1_554 S
Cu257  O278    1.953   .     S
Cu257  O276    1.962   .     S
Cu257  Cu258   2.699   .     S
Cu257  N272    2.028   .     S
Cu257  O274    1.967   .     S
Cu257  O280    1.954   .     S
Cu258  O279    1.967   .     S
Cu258  N273    2.028   .     S
Cu258  O281    1.962   .     S
Cu258  O275    1.953   .     S
Cu258  O277    1.954   .     S
H270   C939    1.083   1_554 S
C282   H290    1.097   .     S
C282   C283    1.540   .     S
C282   H443    1.113   1_455 S
C283   C284    1.534   .     S
C283   H289    1.104   .     S
C283   H288    1.110   .     S
C284   H285    1.107   .     S
C284   H287    1.110   .     S
C284   H438    1.108   1_455 S
H286   C360    1.108   .     S
H291   C358    1.113   .     S
N292   H294    1.045   .     S
N292   H293    1.044   .     S
N292   C936    1.431   .     S
C295   C296    1.538   .     S
C295   H303    1.111   .     S
C295   H304    1.112   .     S
C296   H302    1.111   .     S
C296   H301    1.112   .     S
C296   C373    1.527   .     S
C297   H300    1.110   .     S
C297   H298    1.111   .     S
C297   C448    1.527   1_455 S
C297   H451    1.109   1_455 S
H299   C373    1.109   .     S
C305   O350    1.310   .     A
C305   O351    1.288   .     A
C305   C321    1.458   .     S
C306   C307    1.419   .     A
C306   C992    1.427   .     S
C306   C1016   1.418   .     S
C307   C311    1.407   .     A
C307   C314    1.420   .     A
C308   C312    1.402   .     A
C308   C990    1.427   1_554 S
C308   C993    1.424   1_554 S
C309   C310    1.396   .     A
C309   C992    1.424   .     S
C309   C1012   1.419   .     S
C310   H342    1.076   .     S
C310   C311    1.383   .     A
C311   H347    1.079   .     S
C312   H343    1.076   .     S
C312   C329    1.394   .     A
C313   C329    1.393   .     A
C313   C328    1.390   .     A
C313   H335    1.083   .     S
C314   C330    1.403   .     A
C314   C316    1.476   .     S
C315   C371    1.529   .     S
C315   C321    1.426   .     A
C315   C545    1.404   .     S
C316   O353    1.303   .     A
C316   O352    1.303   .     A
C317   H336    1.081   .     S
C317   C318    1.396   .     A
C318   C326    1.442   .     S
C318   C319    1.390   .     A
C319   H337    1.084   .     S
C320   H338    1.067   .     S
C320   C321    1.394   .     A
C320   C547    1.375   .     S
C322   H339    1.082   .     S
C322   N349    1.341   .     A
C322   C399    1.415   .     S
C323   C358    1.523   .     S
C323   N348    1.408   .     A
C324   N348    1.368   .     A
C324   H340    1.081   .     S
C325   N349    1.370   .     A
C325   H341    1.082   .     S
C325   C400    1.422   .     S
C326   O354    1.293   .     A
C326   O355    1.298   .     A
C327   O357    1.301   .     A
C327   O356    1.298   .     A
C327   C329    1.459   .     S
C328   C993    1.419   1_554 S
C328   N1052   1.431   1_554 S
C330   C331    1.387   .     A
C330   H344    1.083   .     S
C331   C1016   1.390   .     S
C331   H1030   1.083   .     S
C332   H345    1.077   .     S
C332   C1015   1.390   1_554 S
C332   C990    1.418   1_554 S
Cu333  O354    1.953   .     S
Cu333  O352    1.962   .     S
Cu333  Cu334   2.699   .     S
Cu333  N348    2.028   .     S
Cu333  O350    1.967   .     S
Cu333  O356    1.954   .     S
Cu334  O355    1.967   .     S
Cu334  N349    2.028   .     S
Cu334  O357    1.962   .     S
Cu334  O351    1.953   .     S
Cu334  O353    1.954   .     S
H346   C1015   1.083   1_554 S
C358   H366    1.097   .     S
C358   C359    1.540   .     S
C359   C360    1.534   .     S
C359   H365    1.104   .     S
C359   H364    1.110   .     S
C360   H361    1.107   .     S
C360   H363    1.110   .     S
H362   C436    1.108   .     S
H367   C434    1.113   .     S
N368   H370    1.045   .     S
N368   H369    1.044   .     S
N368   C1012   1.431   .     S
C371   C372    1.538   .     S
C371   H379    1.111   .     S
C371   H380    1.112   .     S
C372   H378    1.111   .     S
C372   H377    1.112   .     S
C372   C449    1.527   .     S
C373   H376    1.110   .     S
C373   H374    1.111   .     S
H375   C449    1.109   .     S
C381   O426    1.310   .     A
C381   O427    1.288   .     A
C381   C397    1.458   .     S
C382   C383    1.419   .     A
C382   C1068   1.427   .     S
C382   C1092   1.418   .     S
C383   C387    1.407   .     A
C383   C390    1.420   .     A
C384   C388    1.402   .     A
C384   C1066   1.427   1_554 S
C384   C1069   1.424   1_554 S
C385   C386    1.396   .     A
C385   C1068   1.424   .     S
C385   C1088   1.419   .     S
C386   H418    1.076   .     S
C386   C387    1.383   .     A
C387   H423    1.079   .     S
C388   H419    1.076   .     S
C388   C405    1.394   .     A
C389   C405    1.393   .     A
C389   C404    1.390   .     A
C389   H411    1.083   .     S
C390   C406    1.403   .     A
C390   C392    1.476   .     S
C391   C447    1.529   .     S
C391   C397    1.426   .     A
C391   C621    1.404   .     S
C392   O429    1.303   .     A
C392   O428    1.303   .     A
C393   H412    1.081   .     S
C393   C394    1.396   .     A
C394   C402    1.442   .     S
C394   C395    1.390   .     A
C395   H413    1.084   .     S
C396   H414    1.067   .     S
C396   C397    1.394   .     A
C396   C623    1.375   .     S
C398   H415    1.082   .     S
C398   N425    1.341   .     A
C398   C247    1.415   1_655 S
C399   C434    1.523   .     S
C399   N424    1.408   .     A
C400   N424    1.368   .     A
C400   H416    1.081   .     S
C401   N425    1.370   .     A
C401   H417    1.082   .     S
C401   C248    1.422   1_655 S
C402   O430    1.293   .     A
C402   O431    1.298   .     A
C403   O433    1.301   .     A
C403   O432    1.298   .     A
C403   C405    1.459   .     S
C404   C1069   1.419   1_554 S
C404   N1128   1.431   1_554 S
C406   C407    1.387   .     A
C406   H420    1.083   .     S
C407   C1092   1.390   .     S
C407   H1106   1.083   .     S
C408   H421    1.077   .     S
C408   C1091   1.390   1_554 S
C408   C1066   1.418   1_554 S
Cu409  O430    1.953   .     S
Cu409  O428    1.962   .     S
Cu409  Cu410   2.699   .     S
Cu409  N424    2.028   .     S
Cu409  O426    1.967   .     S
Cu409  O432    1.954   .     S
Cu410  O431    1.967   .     S
Cu410  N425    2.028   .     S
Cu410  O433    1.962   .     S
Cu410  O427    1.953   .     S
Cu410  O429    1.954   .     S
H422   C1091   1.083   1_554 S
C434   H442    1.097   .     S
C434   C435    1.540   .     S
C435   C436    1.534   .     S
C435   H441    1.104   .     S
C435   H440    1.110   .     S
C436   H437    1.107   .     S
C436   H439    1.110   .     S
H438   C284    1.108   1_655 S
H443   C282    1.113   1_655 S
N444   H446    1.045   .     S
N444   H445    1.044   .     S
N444   C1088   1.431   .     S
C447   C448    1.538   .     S
C447   H455    1.111   .     S
C447   H456    1.112   .     S
C448   H454    1.111   .     S
C448   H453    1.112   .     S
C448   C297    1.527   1_655 S
C449   H452    1.110   .     S
C449   H450    1.111   .     S
H451   C297    1.109   1_655 S
C457   O502    1.310   .     A
C457   O503    1.288   .     A
C457   C473    1.458   .     S
C458   C459    1.419   .     A
C458   C1144   1.427   .     S
C458   C1168   1.418   .     S
C459   C463    1.407   .     A
C459   C466    1.420   .     A
C460   C464    1.402   .     A
C460   C1142   1.427   1_554 S
C460   C1145   1.424   1_554 S
C461   C462    1.396   .     A
C461   C1144   1.424   .     S
C461   C1164   1.419   .     S
C462   H494    1.076   .     S
C462   C463    1.383   .     A
C463   H499    1.079   .     S
C464   H495    1.076   .     S
C464   C481    1.394   .     A
C465   C481    1.393   .     A
C465   C480    1.390   .     A
C465   H487    1.083   .     S
C466   C482    1.403   .     A
C466   C468    1.476   .     S
C467   C523    1.529   .     S
C467   C473    1.426   .     A
C467   C13     1.404   1_565 S
C468   O505    1.303   .     A
C468   O504    1.303   .     A
C469   H488    1.081   .     S
C469   C470    1.396   .     A
C470   C478    1.442   .     S
C470   C471    1.390   .     A
C471   H489    1.084   .     S
C472   H490    1.067   .     S
C472   C473    1.394   .     A
C472   C15     1.375   1_565 S
C474   H491    1.082   .     S
C474   N501    1.341   .     A
C474   C551    1.415   .     S
C475   C510    1.523   .     S
C475   N500    1.408   .     A
C475   C626    1.415   1_455 S
C476   N500    1.368   .     A
C476   H492    1.081   .     S
C476   C629    1.422   1_455 S
C477   N501    1.370   .     A
C477   H493    1.082   .     S
C477   C552    1.422   .     S
C478   O506    1.293   .     A
C478   O507    1.298   .     A
C479   O509    1.301   .     A
C479   O508    1.298   .     A
C479   C481    1.459   .     S
C480   C1145   1.419   1_554 S
C480   N1204   1.431   1_554 S
C482   C483    1.387   .     A
C482   H496    1.083   .     S
C483   C1168   1.390   .     S
C483   H1182   1.083   .     S
C484   H497    1.077   .     S
C484   C1167   1.390   1_554 S
C484   C1142   1.418   1_554 S
Cu485  O506    1.953   .     S
Cu485  O504    1.962   .     S
Cu485  Cu486   2.699   .     S
Cu485  N500    2.028   .     S
Cu485  O502    1.967   .     S
Cu485  O508    1.954   .     S
Cu486  O507    1.967   .     S
Cu486  N501    2.028   .     S
Cu486  O509    1.962   .     S
Cu486  O503    1.953   .     S
Cu486  O505    1.954   .     S
H498   C1167   1.083   1_554 S
C510   H518    1.097   .     S
C510   C511    1.540   .     S
C510   H671    1.113   1_455 S
C511   C512    1.534   .     S
C511   H517    1.104   .     S
C511   H516    1.110   .     S
C512   H513    1.107   .     S
C512   H515    1.110   .     S
C512   H666    1.108   1_455 S
H514   C588    1.108   .     S
H519   C586    1.113   .     S
N520   H522    1.045   .     S
N520   H521    1.044   .     S
N520   C1164   1.431   .     S
C523   C524    1.538   .     S
C523   H531    1.111   .     S
C523   H532    1.112   .     S
C524   H530    1.111   .     S
C524   H529    1.112   .     S
C524   C601    1.527   .     S
C525   H528    1.110   .     S
C525   H526    1.111   .     S
C525   C676    1.527   1_455 S
C525   H679    1.109   1_455 S
H527   C601    1.109   .     S
C533   O578    1.310   .     A
C533   O579    1.288   .     A
C533   C549    1.458   .     S
C534   C535    1.419   .     A
C534   C1220   1.427   .     S
C534   C1244   1.418   .     S
C535   C539    1.407   .     A
C535   C542    1.420   .     A
C536   C540    1.402   .     A
C536   C1218   1.427   1_554 S
C536   C1221   1.424   1_554 S
C537   C538    1.396   .     A
C537   C1220   1.424   .     S
C537   C1240   1.419   .     S
C538   H570    1.076   .     S
C538   C539    1.383   .     A
C539   H575    1.079   .     S
C540   H571    1.076   .     S
C540   C557    1.394   .     A
C541   C557    1.393   .     A
C541   C556    1.390   .     A
C541   H563    1.083   .     S
C542   C558    1.403   .     A
C542   C544    1.476   .     S
C543   C599    1.529   .     S
C543   C549    1.426   .     A
C543   C89     1.404   1_565 S
C544   O581    1.303   .     A
C544   O580    1.303   .     A
C545   H564    1.081   .     S
C545   C546    1.396   .     A
C546   C554    1.442   .     S
C546   C547    1.390   .     A
C547   H565    1.084   .     S
C548   H566    1.067   .     S
C548   C549    1.394   .     A
C548   C91     1.375   1_565 S
C550   H567    1.082   .     S
C550   N577    1.341   .     A
C550   C627    1.415   .     S
C551   C586    1.523   .     S
C551   N576    1.408   .     A
C552   N576    1.368   .     A
C552   H568    1.081   .     S
C553   N577    1.370   .     A
C553   H569    1.082   .     S
C553   C628    1.422   .     S
C554   O582    1.293   .     A
C554   O583    1.298   .     A
C555   O585    1.301   .     A
C555   O584    1.298   .     A
C555   C557    1.459   .     S
C556   C1221   1.419   1_554 S
C556   N1280   1.431   1_554 S
C558   C559    1.387   .     A
C558   H572    1.083   .     S
C559   C1244   1.390   .     S
C559   H1258   1.083   .     S
C560   H573    1.077   .     S
C560   C1243   1.390   1_554 S
C560   C1218   1.418   1_554 S
Cu561  O582    1.953   .     S
Cu561  O580    1.962   .     S
Cu561  Cu562   2.699   .     S
Cu561  N576    2.028   .     S
Cu561  O578    1.967   .     S
Cu561  O584    1.954   .     S
Cu562  O583    1.967   .     S
Cu562  N577    2.028   .     S
Cu562  O585    1.962   .     S
Cu562  O579    1.953   .     S
Cu562  O581    1.954   .     S
H574   C1243   1.083   1_554 S
C586   H594    1.097   .     S
C586   C587    1.540   .     S
C587   C588    1.534   .     S
C587   H593    1.104   .     S
C587   H592    1.110   .     S
C588   H589    1.107   .     S
C588   H591    1.110   .     S
H590   C664    1.108   .     S
H595   C662    1.113   .     S
N596   H598    1.045   .     S
N596   H597    1.044   .     S
N596   C1240   1.431   .     S
C599   C600    1.538   .     S
C599   H607    1.111   .     S
C599   H608    1.112   .     S
C600   H606    1.111   .     S
C600   H605    1.112   .     S
C600   C677    1.527   .     S
C601   H604    1.110   .     S
C601   H602    1.111   .     S
H603   C677    1.109   .     S
C609   O654    1.310   .     A
C609   O655    1.288   .     A
C609   C625    1.458   .     S
C610   C611    1.419   .     A
C610   C1296   1.427   .     S
C610   C1320   1.418   .     S
C611   C615    1.407   .     A
C611   C618    1.420   .     A
C612   C616    1.402   .     A
C612   C1294   1.427   1_554 S
C612   C1297   1.424   1_554 S
C613   C614    1.396   .     A
C613   C1296   1.424   .     S
C613   C1316   1.419   .     S
C614   H646    1.076   .     S
C614   C615    1.383   .     A
C615   H651    1.079   .     S
C616   H647    1.076   .     S
C616   C633    1.394   .     A
C617   C633    1.393   .     A
C617   C632    1.390   .     A
C617   H639    1.083   .     S
C618   C634    1.403   .     A
C618   C620    1.476   .     S
C619   C675    1.529   .     S
C619   C625    1.426   .     A
C619   C165    1.404   1_565 S
C620   O657    1.303   .     A
C620   O656    1.303   .     A
C621   H640    1.081   .     S
C621   C622    1.396   .     A
C622   C630    1.442   .     S
C622   C623    1.390   .     A
C623   H641    1.084   .     S
C624   H642    1.067   .     S
C624   C625    1.394   .     A
C624   C167    1.375   1_565 S
C626   H643    1.082   .     S
C626   N653    1.341   .     A
C626   C475    1.415   1_655 S
C627   C662    1.523   .     S
C627   N652    1.408   .     A
C628   N652    1.368   .     A
C628   H644    1.081   .     S
C629   N653    1.370   .     A
C629   H645    1.082   .     S
C629   C476    1.422   1_655 S
C630   O658    1.293   .     A
C630   O659    1.298   .     A
C631   O661    1.301   .     A
C631   O660    1.298   .     A
C631   C633    1.459   .     S
C632   C1297   1.419   1_554 S
C632   N1356   1.431   1_554 S
C634   C635    1.387   .     A
C634   H648    1.083   .     S
C635   C1320   1.390   .     S
C635   H1334   1.083   .     S
C636   H649    1.077   .     S
C636   C1319   1.390   1_554 S
C636   C1294   1.418   1_554 S
Cu637  O658    1.953   .     S
Cu637  O656    1.962   .     S
Cu637  Cu638   2.699   .     S
Cu637  N652    2.028   .     S
Cu637  O654    1.967   .     S
Cu637  O660    1.954   .     S
Cu638  O659    1.967   .     S
Cu638  N653    2.028   .     S
Cu638  O661    1.962   .     S
Cu638  O655    1.953   .     S
Cu638  O657    1.954   .     S
H650   C1319   1.083   1_554 S
C662   H670    1.097   .     S
C662   C663    1.540   .     S
C663   C664    1.534   .     S
C663   H669    1.104   .     S
C663   H668    1.110   .     S
C664   H665    1.107   .     S
C664   H667    1.110   .     S
H666   C512    1.108   1_655 S
H671   C510    1.113   1_655 S
N672   H674    1.045   .     S
N672   H673    1.044   .     S
N672   C1316   1.431   .     S
C675   C676    1.538   .     S
C675   H683    1.111   .     S
C675   H684    1.112   .     S
C676   H682    1.111   .     S
C676   H681    1.112   .     S
C676   C525    1.527   1_655 S
C677   H680    1.110   .     S
C677   H678    1.111   .     S
H679   C525    1.109   1_655 S
C685   O730    1.310   .     A
C685   O731    1.288   .     A
C685   C701    1.458   .     S
C686   C687    1.419   .     A
C686   C4      1.427   1_556 S
C686   C28     1.418   1_556 S
C687   C691    1.407   .     A
C687   C694    1.420   .     A
C688   C692    1.402   .     A
C689   C690    1.396   .     A
C689   C4      1.424   1_556 S
C689   C24     1.419   1_556 S
C690   H722    1.076   .     S
C690   C691    1.383   .     A
C691   H727    1.079   .     S
C692   H723    1.076   .     S
C692   C709    1.394   .     A
C693   C709    1.393   .     A
C693   C708    1.390   .     A
C693   H715    1.083   .     S
C694   C710    1.403   .     A
C694   C696    1.476   .     S
C695   C751    1.529   .     S
C695   C701    1.426   .     A
C695   C925    1.404   .     S
C696   O733    1.303   .     A
C696   O732    1.303   .     A
C697   H716    1.081   .     S
C697   C698    1.396   .     A
C697   C1151   1.404   1_545 S
C698   C706    1.442   .     S
C698   C699    1.390   .     A
C699   H717    1.084   .     S
C699   C1156   1.375   1_545 S
C700   H718    1.067   .     S
C700   C701    1.394   .     A
C700   C927    1.375   .     S
C702   H719    1.082   .     S
C702   N729    1.341   .     A
C702   C779    1.415   .     S
C703   C738    1.523   .     S
C703   N728    1.408   .     A
C703   C854    1.415   1_455 S
C704   N728    1.368   .     A
C704   H720    1.081   .     S
C704   C857    1.422   1_455 S
C705   N729    1.370   .     A
C705   H721    1.082   .     S
C705   C780    1.422   .     S
C706   O734    1.293   .     A
C706   O735    1.298   .     A
C707   O737    1.301   .     A
C707   O736    1.298   .     A
C707   C709    1.459   .     S
C710   C711    1.387   .     A
C710   H724    1.083   .     S
C711   C28     1.390   1_556 S
C711   H42     1.083   1_556 S
C712   H725    1.077   .     S
Cu713  O734    1.953   .     S
Cu713  O732    1.962   .     S
Cu713  Cu714   2.699   .     S
Cu713  N728    2.028   .     S
Cu713  O730    1.967   .     S
Cu713  O736    1.954   .     S
Cu714  O735    1.967   .     S
Cu714  N729    2.028   .     S
Cu714  O737    1.962   .     S
Cu714  O731    1.953   .     S
Cu714  O733    1.954   .     S
C738   H746    1.097   .     S
C738   C739    1.540   .     S
C738   H899    1.113   1_455 S
C739   C740    1.534   .     S
C739   H745    1.104   .     S
C739   H744    1.110   .     S
C740   H741    1.107   .     S
C740   H743    1.110   .     S
C740   H894    1.108   1_455 S
H742   C816    1.108   .     S
H747   C814    1.113   .     S
N748   H750    1.045   .     S
N748   H749    1.044   .     S
N748   C24     1.431   1_556 S
C751   C752    1.538   .     S
C751   H759    1.111   .     S
C751   H760    1.112   .     S
C752   H758    1.111   .     S
C752   H757    1.112   .     S
C752   C829    1.527   .     S
C753   H756    1.110   .     S
C753   H754    1.111   .     S
C753   C904    1.527   1_455 S
C753   H907    1.109   1_455 S
H755   C829    1.109   .     S
C761   O806    1.310   .     A
C761   O807    1.288   .     A
C761   C777    1.458   .     S
C762   C763    1.419   .     A
C762   C80     1.427   1_556 S
C762   C104    1.418   1_556 S
C763   C767    1.407   .     A
C763   C770    1.420   .     A
C764   C768    1.402   .     A
C765   C766    1.396   .     A
C765   C80     1.424   1_556 S
C765   C100    1.419   1_556 S
C766   H798    1.076   .     S
C766   C767    1.383   .     A
C767   H803    1.079   .     S
C768   H799    1.076   .     S
C768   C785    1.394   .     A
C769   C785    1.393   .     A
C769   C784    1.390   .     A
C769   H791    1.083   .     S
C770   C786    1.403   .     A
C770   C772    1.476   .     S
C771   C827    1.529   .     S
C771   C777    1.426   .     A
C771   C1001   1.404   .     S
C772   O809    1.303   .     A
C772   O808    1.303   .     A
C773   H792    1.081   .     S
C773   C774    1.396   .     A
C773   C1227   1.404   1_545 S
C774   C782    1.442   .     S
C774   C775    1.390   .     A
C775   H793    1.084   .     S
C775   C1232   1.375   1_545 S
C776   H794    1.067   .     S
C776   C777    1.394   .     A
C776   C1003   1.375   .     S
C778   H795    1.082   .     S
C778   N805    1.341   .     A
C778   C855    1.415   .     S
C779   C814    1.523   .     S
C779   N804    1.408   .     A
C780   N804    1.368   .     A
C780   H796    1.081   .     S
C781   N805    1.370   .     A
C781   H797    1.082   .     S
C781   C856    1.422   .     S
C782   O810    1.293   .     A
C782   O811    1.298   .     A
C783   O813    1.301   .     A
C783   O812    1.298   .     A
C783   C785    1.459   .     S
C786   C787    1.387   .     A
C786   H800    1.083   .     S
C787   C104    1.390   1_556 S
C787   H118    1.083   1_556 S
C788   H801    1.077   .     S
Cu789  O810    1.953   .     S
Cu789  O808    1.962   .     S
Cu789  Cu790   2.699   .     S
Cu789  N804    2.028   .     S
Cu789  O806    1.967   .     S
Cu789  O812    1.954   .     S
Cu790  O811    1.967   .     S
Cu790  N805    2.028   .     S
Cu790  O813    1.962   .     S
Cu790  O807    1.953   .     S
Cu790  O809    1.954   .     S
C814   H822    1.097   .     S
C814   C815    1.540   .     S
C815   C816    1.534   .     S
C815   H821    1.104   .     S
C815   H820    1.110   .     S
C816   H817    1.107   .     S
C816   H819    1.110   .     S
H818   C892    1.108   .     S
H823   C890    1.113   .     S
N824   H826    1.045   .     S
N824   H825    1.044   .     S
N824   C100    1.431   1_556 S
C827   C828    1.538   .     S
C827   H835    1.111   .     S
C827   H836    1.112   .     S
C828   H834    1.111   .     S
C828   H833    1.112   .     S
C828   C905    1.527   .     S
C829   H832    1.110   .     S
C829   H830    1.111   .     S
H831   C905    1.109   .     S
C837   O882    1.310   .     A
C837   O883    1.288   .     A
C837   C853    1.458   .     S
C838   C839    1.419   .     A
C838   C156    1.427   1_556 S
C838   C180    1.418   1_556 S
C839   C843    1.407   .     A
C839   C846    1.420   .     A
C840   C844    1.402   .     A
C841   C842    1.396   .     A
C841   C156    1.424   1_556 S
C841   C176    1.419   1_556 S
C842   H874    1.076   .     S
C842   C843    1.383   .     A
C843   H879    1.079   .     S
C844   H875    1.076   .     S
C844   C861    1.394   .     A
C845   C861    1.393   .     A
C845   C860    1.390   .     A
C845   H867    1.083   .     S
C846   C862    1.403   .     A
C846   C848    1.476   .     S
C847   C903    1.529   .     S
C847   C853    1.426   .     A
C847   C1077   1.404   .     S
C848   O885    1.303   .     A
C848   O884    1.303   .     A
C849   H868    1.081   .     S
C849   C850    1.396   .     A
C849   C1303   1.404   1_545 S
C850   C858    1.442   .     S
C850   C851    1.390   .     A
C851   H869    1.084   .     S
C851   C1308   1.375   1_545 S
C852   H870    1.067   .     S
C852   C853    1.394   .     A
C852   C1079   1.375   .     S
C854   H871    1.082   .     S
C854   N881    1.341   .     A
C854   C703    1.415   1_655 S
C855   C890    1.523   .     S
C855   N880    1.408   .     A
C856   N880    1.368   .     A
C856   H872    1.081   .     S
C857   N881    1.370   .     A
C857   H873    1.082   .     S
C857   C704    1.422   1_655 S
C858   O886    1.293   .     A
C858   O887    1.298   .     A
C859   O889    1.301   .     A
C859   O888    1.298   .     A
C859   C861    1.459   .     S
C862   C863    1.387   .     A
C862   H876    1.083   .     S
C863   C180    1.390   1_556 S
C863   H194    1.083   1_556 S
C864   H877    1.077   .     S
Cu865  O886    1.953   .     S
Cu865  O884    1.962   .     S
Cu865  Cu866   2.699   .     S
Cu865  N880    2.028   .     S
Cu865  O882    1.967   .     S
Cu865  O888    1.954   .     S
Cu866  O887    1.967   .     S
Cu866  N881    2.028   .     S
Cu866  O889    1.962   .     S
Cu866  O883    1.953   .     S
Cu866  O885    1.954   .     S
C890   H898    1.097   .     S
C890   C891    1.540   .     S
C891   C892    1.534   .     S
C891   H897    1.104   .     S
C891   H896    1.110   .     S
C892   H893    1.107   .     S
C892   H895    1.110   .     S
H894   C740    1.108   1_655 S
H899   C738    1.113   1_655 S
N900   H902    1.045   .     S
N900   H901    1.044   .     S
N900   C176    1.431   1_556 S
C903   C904    1.538   .     S
C903   H911    1.111   .     S
C903   H912    1.112   .     S
C904   H910    1.111   .     S
C904   H909    1.112   .     S
C904   C753    1.527   1_655 S
C905   H908    1.110   .     S
C905   H906    1.111   .     S
H907   C753    1.109   1_655 S
C913   O958    1.310   .     A
C913   O959    1.288   .     A
C913   C929    1.458   .     S
C914   C915    1.419   .     A
C914   C232    1.427   1_556 S
C914   C256    1.418   1_556 S
C915   C919    1.407   .     A
C915   C922    1.420   .     A
C916   C920    1.402   .     A
C917   C918    1.396   .     A
C917   C232    1.424   1_556 S
C917   C252    1.419   1_556 S
C918   H950    1.076   .     S
C918   C919    1.383   .     A
C919   H955    1.079   .     S
C920   H951    1.076   .     S
C920   C937    1.394   .     A
C921   C937    1.393   .     A
C921   C936    1.390   .     A
C921   H943    1.083   .     S
C922   C938    1.403   .     A
C922   C924    1.476   .     S
C923   C979    1.529   .     S
C923   C929    1.426   .     A
C923   C1153   1.404   .     S
C924   O961    1.303   .     A
C924   O960    1.303   .     A
C925   H944    1.081   .     S
C925   C926    1.396   .     A
C926   C934    1.442   .     S
C926   C927    1.390   .     A
C927   H945    1.084   .     S
C928   H946    1.067   .     S
C928   C929    1.394   .     A
C928   C1155   1.375   .     S
C930   H947    1.082   .     S
C930   N957    1.341   .     A
C930   C1007   1.415   .     S
C931   C966    1.523   .     S
C931   N956    1.408   .     A
C931   C1082   1.415   1_455 S
C932   N956    1.368   .     A
C932   H948    1.081   .     S
C932   C1085   1.422   1_455 S
C933   N957    1.370   .     A
C933   H949    1.082   .     S
C933   C1008   1.422   .     S
C934   O962    1.293   .     A
C934   O963    1.298   .     A
C935   O965    1.301   .     A
C935   O964    1.298   .     A
C935   C937    1.459   .     S
C938   C939    1.387   .     A
C938   H952    1.083   .     S
C939   C256    1.390   1_556 S
C939   H270    1.083   1_556 S
C940   H953    1.077   .     S
Cu941  O962    1.953   .     S
Cu941  O960    1.962   .     S
Cu941  Cu942   2.699   .     S
Cu941  N956    2.028   .     S
Cu941  O958    1.967   .     S
Cu941  O964    1.954   .     S
Cu942  O963    1.967   .     S
Cu942  N957    2.028   .     S
Cu942  O965    1.962   .     S
Cu942  O959    1.953   .     S
Cu942  O961    1.954   .     S
C966   H974    1.097   .     S
C966   C967    1.540   .     S
C966   H1127   1.113   1_455 S
C967   C968    1.534   .     S
C967   H973    1.104   .     S
C967   H972    1.110   .     S
C968   H969    1.107   .     S
C968   H971    1.110   .     S
C968   H1122   1.108   1_455 S
H970   C1044   1.108   .     S
H975   C1042   1.113   .     S
N976   H978    1.045   .     S
N976   H977    1.044   .     S
N976   C252    1.431   1_556 S
C979   C980    1.538   .     S
C979   H987    1.111   .     S
C979   H988    1.112   .     S
C980   H986    1.111   .     S
C980   H985    1.112   .     S
C980   C1057   1.527   .     S
C981   H984    1.110   .     S
C981   H982    1.111   .     S
C981   C1132   1.527   1_455 S
C981   H1135   1.109   1_455 S
H983   C1057   1.109   .     S
C989   O1034   1.310   .     A
C989   O1035   1.288   .     A
C989   C1005   1.458   .     S
C990   C991    1.419   .     A
C990   C308    1.427   1_556 S
C990   C332    1.418   1_556 S
C991   C995    1.407   .     A
C991   C998    1.420   .     A
C992   C996    1.402   .     A
C993   C994    1.396   .     A
C993   C308    1.424   1_556 S
C993   C328    1.419   1_556 S
C994   H1026   1.076   .     S
C994   C995    1.383   .     A
C995   H1031   1.079   .     S
C996   H1027   1.076   .     S
C996   C1013   1.394   .     A
C997   C1013   1.393   .     A
C997   C1012   1.390   .     A
C997   H1019   1.083   .     S
C998   C1014   1.403   .     A
C998   C1000   1.476   .     S
C999   C1055   1.529   .     S
C999   C1005   1.426   .     A
C999   C1229   1.404   .     S
C1000  O1037   1.303   .     A
C1000  O1036   1.303   .     A
C1001  H1020   1.081   .     S
C1001  C1002   1.396   .     A
C1002  C1010   1.442   .     S
C1002  C1003   1.390   .     A
C1003  H1021   1.084   .     S
C1004  H1022   1.067   .     S
C1004  C1005   1.394   .     A
C1004  C1231   1.375   .     S
C1006  H1023   1.082   .     S
C1006  N1033   1.341   .     A
C1006  C1083   1.415   .     S
C1007  C1042   1.523   .     S
C1007  N1032   1.408   .     A
C1008  N1032   1.368   .     A
C1008  H1024   1.081   .     S
C1009  N1033   1.370   .     A
C1009  H1025   1.082   .     S
C1009  C1084   1.422   .     S
C1010  O1038   1.293   .     A
C1010  O1039   1.298   .     A
C1011  O1041   1.301   .     A
C1011  O1040   1.298   .     A
C1011  C1013   1.459   .     S
C1014  C1015   1.387   .     A
C1014  H1028   1.083   .     S
C1015  C332    1.390   1_556 S
C1015  H346    1.083   1_556 S
C1016  H1029   1.077   .     S
Cu1017 O1038   1.953   .     S
Cu1017 O1036   1.962   .     S
Cu1017 Cu1018  2.699   .     S
Cu1017 N1032   2.028   .     S
Cu1017 O1034   1.967   .     S
Cu1017 O1040   1.954   .     S
Cu1018 O1039   1.967   .     S
Cu1018 N1033   2.028   .     S
Cu1018 O1041   1.962   .     S
Cu1018 O1035   1.953   .     S
Cu1018 O1037   1.954   .     S
C1042  H1050   1.097   .     S
C1042  C1043   1.540   .     S
C1043  C1044   1.534   .     S
C1043  H1049   1.104   .     S
C1043  H1048   1.110   .     S
C1044  H1045   1.107   .     S
C1044  H1047   1.110   .     S
H1046  C1120   1.108   .     S
H1051  C1118   1.113   .     S
N1052  H1054   1.045   .     S
N1052  H1053   1.044   .     S
N1052  C328    1.431   1_556 S
C1055  C1056   1.538   .     S
C1055  H1063   1.111   .     S
C1055  H1064   1.112   .     S
C1056  H1062   1.111   .     S
C1056  H1061   1.112   .     S
C1056  C1133   1.527   .     S
C1057  H1060   1.110   .     S
C1057  H1058   1.111   .     S
H1059  C1133   1.109   .     S
C1065  O1110   1.310   .     A
C1065  O1111   1.288   .     A
C1065  C1081   1.458   .     S
C1066  C1067   1.419   .     A
C1066  C384    1.427   1_556 S
C1066  C408    1.418   1_556 S
C1067  C1071   1.407   .     A
C1067  C1074   1.420   .     A
C1068  C1072   1.402   .     A
C1069  C1070   1.396   .     A
C1069  C384    1.424   1_556 S
C1069  C404    1.419   1_556 S
C1070  H1102   1.076   .     S
C1070  C1071   1.383   .     A
C1071  H1107   1.079   .     S
C1072  H1103   1.076   .     S
C1072  C1089   1.394   .     A
C1073  C1089   1.393   .     A
C1073  C1088   1.390   .     A
C1073  H1095   1.083   .     S
C1074  C1090   1.403   .     A
C1074  C1076   1.476   .     S
C1075  C1131   1.529   .     S
C1075  C1081   1.426   .     A
C1075  C1305   1.404   .     S
C1076  O1113   1.303   .     A
C1076  O1112   1.303   .     A
C1077  H1096   1.081   .     S
C1077  C1078   1.396   .     A
C1078  C1086   1.442   .     S
C1078  C1079   1.390   .     A
C1079  H1097   1.084   .     S
C1080  H1098   1.067   .     S
C1080  C1081   1.394   .     A
C1080  C1307   1.375   .     S
C1082  H1099   1.082   .     S
C1082  N1109   1.341   .     A
C1082  C931    1.415   1_655 S
C1083  C1118   1.523   .     S
C1083  N1108   1.408   .     A
C1084  N1108   1.368   .     A
C1084  H1100   1.081   .     S
C1085  N1109   1.370   .     A
C1085  H1101   1.082   .     S
C1085  C932    1.422   1_655 S
C1086  O1114   1.293   .     A
C1086  O1115   1.298   .     A
C1087  O1117   1.301   .     A
C1087  O1116   1.298   .     A
C1087  C1089   1.459   .     S
C1090  C1091   1.387   .     A
C1090  H1104   1.083   .     S
C1091  C408    1.390   1_556 S
C1091  H422    1.083   1_556 S
C1092  H1105   1.077   .     S
Cu1093 O1114   1.953   .     S
Cu1093 O1112   1.962   .     S
Cu1093 Cu1094  2.699   .     S
Cu1093 N1108   2.028   .     S
Cu1093 O1110   1.967   .     S
Cu1093 O1116   1.954   .     S
Cu1094 O1115   1.967   .     S
Cu1094 N1109   2.028   .     S
Cu1094 O1117   1.962   .     S
Cu1094 O1111   1.953   .     S
Cu1094 O1113   1.954   .     S
C1118  H1126   1.097   .     S
C1118  C1119   1.540   .     S
C1119  C1120   1.534   .     S
C1119  H1125   1.104   .     S
C1119  H1124   1.110   .     S
C1120  H1121   1.107   .     S
C1120  H1123   1.110   .     S
H1122  C968    1.108   1_655 S
H1127  C966    1.113   1_655 S
N1128  H1130   1.045   .     S
N1128  H1129   1.044   .     S
N1128  C404    1.431   1_556 S
C1131  C1132   1.538   .     S
C1131  H1139   1.111   .     S
C1131  H1140   1.112   .     S
C1132  H1138   1.111   .     S
C1132  H1137   1.112   .     S
C1132  C981    1.527   1_655 S
C1133  H1136   1.110   .     S
C1133  H1134   1.111   .     S
H1135  C981    1.109   1_655 S
C1141  O1186   1.310   .     A
C1141  O1187   1.288   .     A
C1141  C1157   1.458   .     S
C1142  C1143   1.419   .     A
C1142  C460    1.427   1_556 S
C1142  C484    1.418   1_556 S
C1143  C1147   1.407   .     A
C1143  C1150   1.420   .     A
C1144  C1148   1.402   .     A
C1145  C1146   1.396   .     A
C1145  C460    1.424   1_556 S
C1145  C480    1.419   1_556 S
C1146  H1178   1.076   .     S
C1146  C1147   1.383   .     A
C1147  H1183   1.079   .     S
C1148  H1179   1.076   .     S
C1148  C1165   1.394   .     A
C1149  C1165   1.393   .     A
C1149  C1164   1.390   .     A
C1149  H1171   1.083   .     S
C1150  C1166   1.403   .     A
C1150  C1152   1.476   .     S
C1151  C1207   1.529   .     S
C1151  C1157   1.426   .     A
C1151  C697    1.404   1_565 S
C1152  O1189   1.303   .     A
C1152  O1188   1.303   .     A
C1153  H1172   1.081   .     S
C1153  C1154   1.396   .     A
C1154  C1162   1.442   .     S
C1154  C1155   1.390   .     A
C1155  H1173   1.084   .     S
C1156  H1174   1.067   .     S
C1156  C1157   1.394   .     A
C1156  C699    1.375   1_565 S
C1158  H1175   1.082   .     S
C1158  N1185   1.341   .     A
C1158  C1235   1.415   .     S
C1159  C1194   1.523   .     S
C1159  N1184   1.408   .     A
C1159  C1310   1.415   1_455 S
C1160  N1184   1.368   .     A
C1160  H1176   1.081   .     S
C1160  C1313   1.422   1_455 S
C1161  N1185   1.370   .     A
C1161  H1177   1.082   .     S
C1161  C1236   1.422   .     S
C1162  O1190   1.293   .     A
C1162  O1191   1.298   .     A
C1163  O1193   1.301   .     A
C1163  O1192   1.298   .     A
C1163  C1165   1.459   .     S
C1166  C1167   1.387   .     A
C1166  H1180   1.083   .     S
C1167  C484    1.390   1_556 S
C1167  H498    1.083   1_556 S
C1168  H1181   1.077   .     S
Cu1169 O1190   1.953   .     S
Cu1169 O1188   1.962   .     S
Cu1169 Cu1170  2.699   .     S
Cu1169 N1184   2.028   .     S
Cu1169 O1186   1.967   .     S
Cu1169 O1192   1.954   .     S
Cu1170 O1191   1.967   .     S
Cu1170 N1185   2.028   .     S
Cu1170 O1193   1.962   .     S
Cu1170 O1187   1.953   .     S
Cu1170 O1189   1.954   .     S
C1194  H1202   1.097   .     S
C1194  C1195   1.540   .     S
C1194  H1355   1.113   1_455 S
C1195  C1196   1.534   .     S
C1195  H1201   1.104   .     S
C1195  H1200   1.110   .     S
C1196  H1197   1.107   .     S
C1196  H1199   1.110   .     S
C1196  H1350   1.108   1_455 S
H1198  C1272   1.108   .     S
H1203  C1270   1.113   .     S
N1204  H1206   1.045   .     S
N1204  H1205   1.044   .     S
N1204  C480    1.431   1_556 S
C1207  C1208   1.538   .     S
C1207  H1215   1.111   .     S
C1207  H1216   1.112   .     S
C1208  H1214   1.111   .     S
C1208  H1213   1.112   .     S
C1208  C1285   1.527   .     S
C1209  H1212   1.110   .     S
C1209  H1210   1.111   .     S
C1209  C1360   1.527   1_455 S
C1209  H1363   1.109   1_455 S
H1211  C1285   1.109   .     S
C1217  O1262   1.310   .     A
C1217  O1263   1.288   .     A
C1217  C1233   1.458   .     S
C1218  C1219   1.419   .     A
C1218  C536    1.427   1_556 S
C1218  C560    1.418   1_556 S
C1219  C1223   1.407   .     A
C1219  C1226   1.420   .     A
C1220  C1224   1.402   .     A
C1221  C1222   1.396   .     A
C1221  C536    1.424   1_556 S
C1221  C556    1.419   1_556 S
C1222  H1254   1.076   .     S
C1222  C1223   1.383   .     A
C1223  H1259   1.079   .     S
C1224  H1255   1.076   .     S
C1224  C1241   1.394   .     A
C1225  C1241   1.393   .     A
C1225  C1240   1.390   .     A
C1225  H1247   1.083   .     S
C1226  C1242   1.403   .     A
C1226  C1228   1.476   .     S
C1227  C1283   1.529   .     S
C1227  C1233   1.426   .     A
C1227  C773    1.404   1_565 S
C1228  O1265   1.303   .     A
C1228  O1264   1.303   .     A
C1229  H1248   1.081   .     S
C1229  C1230   1.396   .     A
C1230  C1238   1.442   .     S
C1230  C1231   1.390   .     A
C1231  H1249   1.084   .     S
C1232  H1250   1.067   .     S
C1232  C1233   1.394   .     A
C1232  C775    1.375   1_565 S
C1234  H1251   1.082   .     S
C1234  N1261   1.341   .     A
C1234  C1311   1.415   .     S
C1235  C1270   1.523   .     S
C1235  N1260   1.408   .     A
C1236  N1260   1.368   .     A
C1236  H1252   1.081   .     S
C1237  N1261   1.370   .     A
C1237  H1253   1.082   .     S
C1237  C1312   1.422   .     S
C1238  O1266   1.293   .     A
C1238  O1267   1.298   .     A
C1239  O1269   1.301   .     A
C1239  O1268   1.298   .     A
C1239  C1241   1.459   .     S
C1242  C1243   1.387   .     A
C1242  H1256   1.083   .     S
C1243  C560    1.390   1_556 S
C1243  H574    1.083   1_556 S
C1244  H1257   1.077   .     S
Cu1245 O1266   1.953   .     S
Cu1245 O1264   1.962   .     S
Cu1245 Cu1246  2.699   .     S
Cu1245 N1260   2.028   .     S
Cu1245 O1262   1.967   .     S
Cu1245 O1268   1.954   .     S
Cu1246 O1267   1.967   .     S
Cu1246 N1261   2.028   .     S
Cu1246 O1269   1.962   .     S
Cu1246 O1263   1.953   .     S
Cu1246 O1265   1.954   .     S
C1270  H1278   1.097   .     S
C1270  C1271   1.540   .     S
C1271  C1272   1.534   .     S
C1271  H1277   1.104   .     S
C1271  H1276   1.110   .     S
C1272  H1273   1.107   .     S
C1272  H1275   1.110   .     S
H1274  C1348   1.108   .     S
H1279  C1346   1.113   .     S
N1280  H1282   1.045   .     S
N1280  H1281   1.044   .     S
N1280  C556    1.431   1_556 S
C1283  C1284   1.538   .     S
C1283  H1291   1.111   .     S
C1283  H1292   1.112   .     S
C1284  H1290   1.111   .     S
C1284  H1289   1.112   .     S
C1284  C1361   1.527   .     S
C1285  H1288   1.110   .     S
C1285  H1286   1.111   .     S
H1287  C1361   1.109   .     S
C1293  O1338   1.310   .     A
C1293  O1339   1.288   .     A
C1293  C1309   1.458   .     S
C1294  C1295   1.419   .     A
C1294  C612    1.427   1_556 S
C1294  C636    1.418   1_556 S
C1295  C1299   1.407   .     A
C1295  C1302   1.420   .     A
C1296  C1300   1.402   .     A
C1297  C1298   1.396   .     A
C1297  C612    1.424   1_556 S
C1297  C632    1.419   1_556 S
C1298  H1330   1.076   .     S
C1298  C1299   1.383   .     A
C1299  H1335   1.079   .     S
C1300  H1331   1.076   .     S
C1300  C1317   1.394   .     A
C1301  C1317   1.393   .     A
C1301  C1316   1.390   .     A
C1301  H1323   1.083   .     S
C1302  C1318   1.403   .     A
C1302  C1304   1.476   .     S
C1303  C1359   1.529   .     S
C1303  C1309   1.426   .     A
C1303  C849    1.404   1_565 S
C1304  O1341   1.303   .     A
C1304  O1340   1.303   .     A
C1305  H1324   1.081   .     S
C1305  C1306   1.396   .     A
C1306  C1314   1.442   .     S
C1306  C1307   1.390   .     A
C1307  H1325   1.084   .     S
C1308  H1326   1.067   .     S
C1308  C1309   1.394   .     A
C1308  C851    1.375   1_565 S
C1310  H1327   1.082   .     S
C1310  N1337   1.341   .     A
C1310  C1159   1.415   1_655 S
C1311  C1346   1.523   .     S
C1311  N1336   1.408   .     A
C1312  N1336   1.368   .     A
C1312  H1328   1.081   .     S
C1313  N1337   1.370   .     A
C1313  H1329   1.082   .     S
C1313  C1160   1.422   1_655 S
C1314  O1342   1.293   .     A
C1314  O1343   1.298   .     A
C1315  O1345   1.301   .     A
C1315  O1344   1.298   .     A
C1315  C1317   1.459   .     S
C1318  C1319   1.387   .     A
C1318  H1332   1.083   .     S
C1319  C636    1.390   1_556 S
C1319  H650    1.083   1_556 S
C1320  H1333   1.077   .     S
Cu1321 O1342   1.953   .     S
Cu1321 O1340   1.962   .     S
Cu1321 Cu1322  2.699   .     S
Cu1321 N1336   2.028   .     S
Cu1321 O1338   1.967   .     S
Cu1321 O1344   1.954   .     S
Cu1322 O1343   1.967   .     S
Cu1322 N1337   2.028   .     S
Cu1322 O1345   1.962   .     S
Cu1322 O1339   1.953   .     S
Cu1322 O1341   1.954   .     S
C1346  H1354   1.097   .     S
C1346  C1347   1.540   .     S
C1347  C1348   1.534   .     S
C1347  H1353   1.104   .     S
C1347  H1352   1.110   .     S
C1348  H1349   1.107   .     S
C1348  H1351   1.110   .     S
H1350  C1196   1.108   1_655 S
H1355  C1194   1.113   1_655 S
N1356  H1358   1.045   .     S
N1356  H1357   1.044   .     S
N1356  C632    1.431   1_556 S
C1359  C1360   1.538   .     S
C1359  H1367   1.111   .     S
C1359  H1368   1.112   .     S
C1360  H1366   1.111   .     S
C1360  H1365   1.112   .     S
C1360  C1209   1.527   1_655 S
C1361  H1364   1.110   .     S
C1361  H1362   1.111   .     S
H1363  C1209   1.109   1_655 S
