data_str_m2_o1_o18_pcu_sym.8
_audit_creation_date              2020-01-03
_audit_creation_method            'Materials Studio'
_symmetry_space_group_name_H-M    'P1'
_symmetry_Int_Tables_number       1
_symmetry_cell_setting            triclinic
loop_
_symmetry_equiv_pos_as_xyz
  x,y,z
_cell_length_a                    28.5219
_cell_length_b                    32.4702
_cell_length_c                    30.9171
_cell_angle_alpha                 89.5137
_cell_angle_beta                  74.5645
_cell_angle_gamma                 89.9725
loop_
_atom_site_label
_atom_site_type_symbol
_atom_site_fract_x
_atom_site_fract_y
_atom_site_fract_z
_atom_site_U_iso_or_equiv
_atom_site_adp_type
_atom_site_occupancy
C1     C    -0.00000   0.08735   0.24998   0.00000  Uiso   1.00
C2     C     0.04386   0.02133   0.24422   0.00000  Uiso   1.00
C3     C     0.00002   0.29059   0.24988   0.00000  Uiso   1.00
C4     C     0.00002   0.04274   0.24993   0.00000  Uiso   1.00
C5     C     0.18417   0.13874   0.27533   0.00000  Uiso   1.00
C6     C     0.14915   0.19464   0.22474   0.00000  Uiso   1.00
C7     C     0.13453   0.13876   0.27533   0.00000  Uiso   1.00
C8     C     0.19878   0.19462   0.22474   0.00000  Uiso   1.00
C9     C     0.30623   0.16816   0.33607   0.00000  Uiso   1.00
C10    C     0.02711   0.16504   0.16397   0.00000  Uiso   1.00
C11    C     0.29172   0.17322   0.38508   0.00000  Uiso   1.00
C12    C     0.00002   0.24598   0.24995   0.00000  Uiso   1.00
C13    C     0.04187   0.15862   0.11519   0.00000  Uiso   1.00
C14    C     0.30346   0.20052   0.45414   0.00000  Uiso   1.00
C15    C     0.03234   0.12640   0.04766   0.00000  Uiso   1.00
C16    C     0.32159   0.19320   0.40831   0.00000  Uiso   1.00
C17    C     0.01314   0.13614   0.09280   0.00000  Uiso   1.00
C18    C     0.24500   0.16026   0.40841   0.00000  Uiso   1.00
C19    C     0.08856   0.17150   0.09175   0.00000  Uiso   1.00
C20    C     0.22577   0.16822   0.45437   0.00000  Uiso   1.00
C21    C     0.10939   0.16018   0.04692   0.00000  Uiso   1.00
C22    C     0.25572   0.18938   0.47679   0.00000  Uiso   1.00
C23    C     0.18979   0.19148   0.04428   0.00000  Uiso   1.00
C24    C     0.08021   0.13731   0.02508   0.00000  Uiso   1.00
C25    C     0.17723   0.15721   0.47820   0.00000  Uiso   1.00
C26    C     0.15851   0.16995   0.02360   0.00000  Uiso   1.00
C27    C     0.29816   0.11943   0.11631   0.00000  Uiso   1.00
C28    C     0.29422   0.08097   0.13806   0.00000  Uiso   1.00
C29    C     0.24845   0.06529   0.16048   0.00000  Uiso   1.00
C30    C     0.20648   0.08784   0.16119   0.00000  Uiso   1.00
C31    C     0.21023   0.12611   0.13948   0.00000  Uiso   1.00
C32    C     0.25596   0.14201   0.11734   0.00000  Uiso   1.00
C33    C     0.03694   0.20956   0.38529   0.00000  Uiso   1.00
C34    C     0.14687   0.13374   0.45826   0.00000  Uiso   1.00
C35    C     0.07882   0.18816   0.38790   0.00000  Uiso   1.00
C36    C     0.12490   0.20334   0.36573   0.00000  Uiso   1.00
C37    C     0.12937   0.23985   0.34068   0.00000  Uiso   1.00
C38    C     0.08774   0.26134   0.33797   0.00000  Uiso   1.00
C39    C     0.04158   0.24630   0.36020   0.00000  Uiso   1.00
C40    C     0.23743   0.20053   0.02137   0.00000  Uiso   1.00
C41    C     0.09940   0.12424   0.48127   0.00000  Uiso   1.00
C42    C     0.28952   0.02127   0.25560   0.00000  Uiso   1.00
C43    C     0.04386   0.31206   0.24413   0.00000  Uiso   1.00
C44    C     0.28952   0.31201   0.25553   0.00000  Uiso   1.00
Cu45   Cu    0.04689   0.16667   0.25000   0.00000  Uiso   1.00
Cu46   Cu    0.28645   0.16666   0.25000   0.00000  Uiso   1.00
H47    H     0.25994   0.21728   0.03852   0.00000  Uiso   1.00
H48    H     0.07815   0.29603   0.23935   0.00000  Uiso   1.00
H49    H     0.25524   0.29594   0.26013   0.00000  Uiso   1.00
H50    H     0.07815   0.03740   0.23960   0.00000  Uiso   1.00
H51    H     0.19699   0.11646   0.29573   0.00000  Uiso   1.00
H52    H     0.13632   0.21695   0.20436   0.00000  Uiso   1.00
H53    H     0.10991   0.11653   0.29576   0.00000  Uiso   1.00
H54    H     0.22339   0.21687   0.20433   0.00000  Uiso   1.00
H55    H     0.32653   0.06332   0.13781   0.00000  Uiso   1.00
H56    H     0.24549   0.03564   0.17722   0.00000  Uiso   1.00
H57    H     0.17108   0.07572   0.17861   0.00000  Uiso   1.00
H58    H     0.07763   0.10596   0.46468   0.00000  Uiso   1.00
H59    H     0.17773   0.14358   0.14016   0.00000  Uiso   1.00
H60    H     0.25864   0.17204   0.10154   0.00000  Uiso   1.00
H61    H     0.07563   0.15950   0.40649   0.00000  Uiso   1.00
H62    H     0.15714   0.18664   0.36763   0.00000  Uiso   1.00
H63    H     0.16506   0.25142   0.32329   0.00000  Uiso   1.00
H64    H     0.09125   0.28965   0.31865   0.00000  Uiso   1.00
H65    H     0.00955   0.26306   0.35770   0.00000  Uiso   1.00
H66    H     0.10820   0.18953   0.11015   0.00000  Uiso   1.00
H67    H     0.22379   0.14529   0.38911   0.00000  Uiso   1.00
H68    H     0.32607   0.21659   0.47178   0.00000  Uiso   1.00
H69    H     0.01048   0.10866   0.03063   0.00000  Uiso   1.00
H70    H     0.17907   0.20180   0.07844   0.00000  Uiso   1.00
H71    H     0.15870   0.12134   0.42498   0.00000  Uiso   1.00
H72    H     0.25524   0.03731   0.26029   0.00000  Uiso   1.00
N73    N     0.11736   0.16668   0.24999   0.00000  Uiso   1.00
N74    N     0.21597   0.16666   0.25001   0.00000  Uiso   1.00
O75    O     0.03958   0.10655   0.25000   0.00000  Uiso   1.00
O76    O     0.29375   0.22678   0.25000   0.00000  Uiso   1.00
O77    O     0.29372   0.10654   0.25001   0.00000  Uiso   1.00
O78    O     0.03961   0.22679   0.25000   0.00000  Uiso   1.00
O79    O     0.01852   0.16668   0.31492   0.00000  Uiso   1.00
O80    O     0.31481   0.16666   0.18509   0.00000  Uiso   1.00
O81    O     0.27267   0.16667   0.31492   0.00000  Uiso   1.00
O82    O     0.06067   0.16667   0.18508   0.00000  Uiso   1.00
C83    C     0.33333   0.08735   0.24998   0.00000  Uiso   1.00
C84    C     0.37720   0.02133   0.24422   0.00000  Uiso   1.00
C85    C     0.33335   0.29059   0.24988   0.00000  Uiso   1.00
C86    C     0.33336   0.04274   0.24993   0.00000  Uiso   1.00
C87    C     0.51750   0.13874   0.27533   0.00000  Uiso   1.00
C88    C     0.48248   0.19464   0.22474   0.00000  Uiso   1.00
C89    C     0.46787   0.13876   0.27533   0.00000  Uiso   1.00
C90    C     0.53211   0.19462   0.22474   0.00000  Uiso   1.00
C91    C     0.63957   0.16816   0.33607   0.00000  Uiso   1.00
C92    C     0.36045   0.16504   0.16397   0.00000  Uiso   1.00
C93    C     0.62505   0.17322   0.38508   0.00000  Uiso   1.00
C94    C     0.33335   0.24598   0.24995   0.00000  Uiso   1.00
C95    C     0.37520   0.15862   0.11519   0.00000  Uiso   1.00
C96    C     0.63680   0.20052   0.45414   0.00000  Uiso   1.00
C97    C     0.36568   0.12640   0.04766   0.00000  Uiso   1.00
C98    C     0.65493   0.19320   0.40831   0.00000  Uiso   1.00
C99    C     0.34648   0.13614   0.09280   0.00000  Uiso   1.00
C100   C     0.57833   0.16026   0.40841   0.00000  Uiso   1.00
C101   C     0.42190   0.17150   0.09175   0.00000  Uiso   1.00
C102   C     0.55911   0.16822   0.45437   0.00000  Uiso   1.00
C103   C     0.44272   0.16018   0.04692   0.00000  Uiso   1.00
C104   C     0.58905   0.18938   0.47679   0.00000  Uiso   1.00
C105   C     0.52312   0.19148   0.04428   0.00000  Uiso   1.00
C106   C     0.41355   0.13731   0.02508   0.00000  Uiso   1.00
C107   C     0.51056   0.15721   0.47820   0.00000  Uiso   1.00
C108   C     0.49185   0.16995   0.02360   0.00000  Uiso   1.00
C109   C     0.63149   0.11943   0.11631   0.00000  Uiso   1.00
C110   C     0.62756   0.08097   0.13806   0.00000  Uiso   1.00
C111   C     0.58178   0.06529   0.16048   0.00000  Uiso   1.00
C112   C     0.53981   0.08784   0.16119   0.00000  Uiso   1.00
C113   C     0.54356   0.12611   0.13948   0.00000  Uiso   1.00
C114   C     0.58930   0.14201   0.11734   0.00000  Uiso   1.00
C115   C     0.37027   0.20956   0.38529   0.00000  Uiso   1.00
C116   C     0.48020   0.13374   0.45826   0.00000  Uiso   1.00
C117   C     0.41216   0.18816   0.38790   0.00000  Uiso   1.00
C118   C     0.45824   0.20334   0.36573   0.00000  Uiso   1.00
C119   C     0.46270   0.23985   0.34068   0.00000  Uiso   1.00
C120   C     0.42107   0.26134   0.33797   0.00000  Uiso   1.00
C121   C     0.37492   0.24630   0.36020   0.00000  Uiso   1.00
C122   C     0.57076   0.20053   0.02137   0.00000  Uiso   1.00
C123   C     0.43274   0.12424   0.48127   0.00000  Uiso   1.00
C124   C     0.62285   0.02127   0.25560   0.00000  Uiso   1.00
C125   C     0.37720   0.31206   0.24413   0.00000  Uiso   1.00
C126   C     0.62285   0.31201   0.25553   0.00000  Uiso   1.00
Cu127  Cu    0.38022   0.16667   0.25000   0.00000  Uiso   1.00
Cu128  Cu    0.61978   0.16666   0.25000   0.00000  Uiso   1.00
H129   H     0.59327   0.21728   0.03852   0.00000  Uiso   1.00
H130   H     0.41149   0.29603   0.23935   0.00000  Uiso   1.00
H131   H     0.58857   0.29594   0.26013   0.00000  Uiso   1.00
H132   H     0.41148   0.03740   0.23960   0.00000  Uiso   1.00
H133   H     0.53032   0.11646   0.29573   0.00000  Uiso   1.00
H134   H     0.46965   0.21695   0.20436   0.00000  Uiso   1.00
H135   H     0.44325   0.11653   0.29576   0.00000  Uiso   1.00
H136   H     0.55673   0.21687   0.20433   0.00000  Uiso   1.00
H137   H     0.65986   0.06332   0.13781   0.00000  Uiso   1.00
H138   H     0.57882   0.03564   0.17722   0.00000  Uiso   1.00
H139   H     0.50441   0.07572   0.17861   0.00000  Uiso   1.00
H140   H     0.41096   0.10596   0.46468   0.00000  Uiso   1.00
H141   H     0.51106   0.14358   0.14016   0.00000  Uiso   1.00
H142   H     0.59198   0.17204   0.10154   0.00000  Uiso   1.00
H143   H     0.40897   0.15950   0.40649   0.00000  Uiso   1.00
H144   H     0.49047   0.18664   0.36763   0.00000  Uiso   1.00
H145   H     0.49839   0.25142   0.32329   0.00000  Uiso   1.00
H146   H     0.42458   0.28965   0.31865   0.00000  Uiso   1.00
H147   H     0.34288   0.26306   0.35770   0.00000  Uiso   1.00
H148   H     0.44153   0.18953   0.11015   0.00000  Uiso   1.00
H149   H     0.55712   0.14529   0.38911   0.00000  Uiso   1.00
H150   H     0.65941   0.21659   0.47178   0.00000  Uiso   1.00
H151   H     0.34382   0.10866   0.03063   0.00000  Uiso   1.00
H152   H     0.51240   0.20180   0.07844   0.00000  Uiso   1.00
H153   H     0.49203   0.12134   0.42498   0.00000  Uiso   1.00
H154   H     0.58857   0.03731   0.26029   0.00000  Uiso   1.00
N155   N     0.45069   0.16668   0.24999   0.00000  Uiso   1.00
N156   N     0.54931   0.16666   0.25001   0.00000  Uiso   1.00
O157   O     0.37291   0.10655   0.25000   0.00000  Uiso   1.00
O158   O     0.62709   0.22678   0.25000   0.00000  Uiso   1.00
O159   O     0.62706   0.10654   0.25001   0.00000  Uiso   1.00
O160   O     0.37294   0.22679   0.25000   0.00000  Uiso   1.00
O161   O     0.35186   0.16668   0.31492   0.00000  Uiso   1.00
O162   O     0.64814   0.16666   0.18509   0.00000  Uiso   1.00
O163   O     0.60600   0.16667   0.31492   0.00000  Uiso   1.00
O164   O     0.39400   0.16667   0.18508   0.00000  Uiso   1.00
C165   C     0.66667   0.08735   0.24998   0.00000  Uiso   1.00
C166   C     0.71053   0.02133   0.24422   0.00000  Uiso   1.00
C167   C     0.66668   0.29059   0.24988   0.00000  Uiso   1.00
C168   C     0.66669   0.04274   0.24993   0.00000  Uiso   1.00
C169   C     0.85083   0.13874   0.27533   0.00000  Uiso   1.00
C170   C     0.81581   0.19464   0.22474   0.00000  Uiso   1.00
C171   C     0.80120   0.13876   0.27533   0.00000  Uiso   1.00
C172   C     0.86545   0.19462   0.22474   0.00000  Uiso   1.00
C173   C     0.97290   0.16816   0.33607   0.00000  Uiso   1.00
C174   C     0.69378   0.16504   0.16397   0.00000  Uiso   1.00
C175   C     0.95838   0.17322   0.38508   0.00000  Uiso   1.00
C176   C     0.66669   0.24598   0.24995   0.00000  Uiso   1.00
C177   C     0.70854   0.15862   0.11519   0.00000  Uiso   1.00
C178   C     0.97013   0.20052   0.45414   0.00000  Uiso   1.00
C179   C     0.69901   0.12640   0.04766   0.00000  Uiso   1.00
C180   C     0.98826   0.19320   0.40831   0.00000  Uiso   1.00
C181   C     0.67981   0.13614   0.09280   0.00000  Uiso   1.00
C182   C     0.91167   0.16026   0.40841   0.00000  Uiso   1.00
C183   C     0.75523   0.17150   0.09175   0.00000  Uiso   1.00
C184   C     0.89244   0.16822   0.45437   0.00000  Uiso   1.00
C185   C     0.77605   0.16018   0.04692   0.00000  Uiso   1.00
C186   C     0.92238   0.18938   0.47679   0.00000  Uiso   1.00
C187   C     0.85646   0.19148   0.04428   0.00000  Uiso   1.00
C188   C     0.74688   0.13731   0.02508   0.00000  Uiso   1.00
C189   C     0.84389   0.15721   0.47820   0.00000  Uiso   1.00
C190   C     0.82518   0.16995   0.02360   0.00000  Uiso   1.00
C191   C     0.96483   0.11943   0.11631   0.00000  Uiso   1.00
C192   C     0.96089   0.08097   0.13806   0.00000  Uiso   1.00
C193   C     0.91511   0.06529   0.16048   0.00000  Uiso   1.00
C194   C     0.87314   0.08784   0.16119   0.00000  Uiso   1.00
C195   C     0.87690   0.12611   0.13948   0.00000  Uiso   1.00
C196   C     0.92263   0.14201   0.11734   0.00000  Uiso   1.00
C197   C     0.70360   0.20956   0.38529   0.00000  Uiso   1.00
C198   C     0.81354   0.13374   0.45826   0.00000  Uiso   1.00
C199   C     0.74549   0.18816   0.38790   0.00000  Uiso   1.00
C200   C     0.79157   0.20334   0.36573   0.00000  Uiso   1.00
C201   C     0.79603   0.23985   0.34068   0.00000  Uiso   1.00
C202   C     0.75440   0.26134   0.33797   0.00000  Uiso   1.00
C203   C     0.70825   0.24630   0.36020   0.00000  Uiso   1.00
C204   C     0.90409   0.20053   0.02137   0.00000  Uiso   1.00
C205   C     0.76607   0.12424   0.48127   0.00000  Uiso   1.00
C206   C     0.95619   0.02127   0.25560   0.00000  Uiso   1.00
C207   C     0.71053   0.31206   0.24413   0.00000  Uiso   1.00
C208   C     0.95618   0.31201   0.25553   0.00000  Uiso   1.00
Cu209  Cu    0.71355   0.16667   0.25000   0.00000  Uiso   1.00
Cu210  Cu    0.95311   0.16666   0.25000   0.00000  Uiso   1.00
H211   H     0.92661   0.21728   0.03852   0.00000  Uiso   1.00
H212   H     0.74482   0.29603   0.23935   0.00000  Uiso   1.00
H213   H     0.92190   0.29594   0.26013   0.00000  Uiso   1.00
H214   H     0.74481   0.03740   0.23960   0.00000  Uiso   1.00
H215   H     0.86365   0.11646   0.29573   0.00000  Uiso   1.00
H216   H     0.80299   0.21695   0.20436   0.00000  Uiso   1.00
H217   H     0.77658   0.11653   0.29576   0.00000  Uiso   1.00
H218   H     0.89006   0.21687   0.20433   0.00000  Uiso   1.00
H219   H     0.99320   0.06332   0.13781   0.00000  Uiso   1.00
H220   H     0.91216   0.03564   0.17722   0.00000  Uiso   1.00
H221   H     0.83774   0.07572   0.17861   0.00000  Uiso   1.00
H222   H     0.74430   0.10596   0.46468   0.00000  Uiso   1.00
H223   H     0.84439   0.14358   0.14016   0.00000  Uiso   1.00
H224   H     0.92531   0.17204   0.10154   0.00000  Uiso   1.00
H225   H     0.74230   0.15950   0.40649   0.00000  Uiso   1.00
H226   H     0.82380   0.18664   0.36763   0.00000  Uiso   1.00
H227   H     0.83173   0.25142   0.32329   0.00000  Uiso   1.00
H228   H     0.75792   0.28965   0.31865   0.00000  Uiso   1.00
H229   H     0.67622   0.26306   0.35770   0.00000  Uiso   1.00
H230   H     0.77486   0.18953   0.11015   0.00000  Uiso   1.00
H231   H     0.89046   0.14529   0.38911   0.00000  Uiso   1.00
H232   H     0.99274   0.21659   0.47178   0.00000  Uiso   1.00
H233   H     0.67715   0.10866   0.03063   0.00000  Uiso   1.00
H234   H     0.84574   0.20180   0.07844   0.00000  Uiso   1.00
H235   H     0.82537   0.12134   0.42498   0.00000  Uiso   1.00
H236   H     0.92190   0.03731   0.26029   0.00000  Uiso   1.00
N237   N     0.78403   0.16668   0.24999   0.00000  Uiso   1.00
N238   N     0.88264   0.16666   0.25001   0.00000  Uiso   1.00
O239   O     0.70625   0.10655   0.25000   0.00000  Uiso   1.00
O240   O     0.96042   0.22678   0.25000   0.00000  Uiso   1.00
O241   O     0.96039   0.10654   0.25001   0.00000  Uiso   1.00
O242   O     0.70628   0.22679   0.25000   0.00000  Uiso   1.00
O243   O     0.68519   0.16668   0.31492   0.00000  Uiso   1.00
O244   O     0.98148   0.16666   0.18509   0.00000  Uiso   1.00
O245   O     0.93933   0.16667   0.31492   0.00000  Uiso   1.00
O246   O     0.72733   0.16667   0.18508   0.00000  Uiso   1.00
C247   C    -0.00000   0.42068   0.24998   0.00000  Uiso   1.00
C248   C     0.04386   0.35466   0.24422   0.00000  Uiso   1.00
C249   C     0.00002   0.62393   0.24988   0.00000  Uiso   1.00
C250   C     0.00002   0.37608   0.24993   0.00000  Uiso   1.00
C251   C     0.18417   0.47208   0.27533   0.00000  Uiso   1.00
C252   C     0.14915   0.52798   0.22474   0.00000  Uiso   1.00
C253   C     0.13453   0.47210   0.27533   0.00000  Uiso   1.00
C254   C     0.19878   0.52796   0.22474   0.00000  Uiso   1.00
C255   C     0.30623   0.50149   0.33607   0.00000  Uiso   1.00
C256   C     0.02711   0.49838   0.16397   0.00000  Uiso   1.00
C257   C     0.29172   0.50655   0.38508   0.00000  Uiso   1.00
C258   C     0.00002   0.57932   0.24995   0.00000  Uiso   1.00
C259   C     0.04187   0.49196   0.11519   0.00000  Uiso   1.00
C260   C     0.30346   0.53385   0.45414   0.00000  Uiso   1.00
C261   C     0.03234   0.45974   0.04766   0.00000  Uiso   1.00
C262   C     0.32159   0.52653   0.40831   0.00000  Uiso   1.00
C263   C     0.01314   0.46948   0.09280   0.00000  Uiso   1.00
C264   C     0.24500   0.49359   0.40841   0.00000  Uiso   1.00
C265   C     0.08856   0.50483   0.09175   0.00000  Uiso   1.00
C266   C     0.22577   0.50155   0.45437   0.00000  Uiso   1.00
C267   C     0.10939   0.49351   0.04692   0.00000  Uiso   1.00
C268   C     0.25572   0.52272   0.47679   0.00000  Uiso   1.00
C269   C     0.18979   0.52482   0.04428   0.00000  Uiso   1.00
C270   C     0.08021   0.47065   0.02508   0.00000  Uiso   1.00
C271   C     0.17723   0.49055   0.47820   0.00000  Uiso   1.00
C272   C     0.15851   0.50328   0.02360   0.00000  Uiso   1.00
C273   C     0.29816   0.45277   0.11631   0.00000  Uiso   1.00
C274   C     0.29422   0.41431   0.13806   0.00000  Uiso   1.00
C275   C     0.24845   0.39863   0.16048   0.00000  Uiso   1.00
C276   C     0.20648   0.42118   0.16119   0.00000  Uiso   1.00
C277   C     0.21023   0.45944   0.13948   0.00000  Uiso   1.00
C278   C     0.25596   0.47535   0.11734   0.00000  Uiso   1.00
C279   C     0.03694   0.54289   0.38529   0.00000  Uiso   1.00
C280   C     0.14687   0.46708   0.45826   0.00000  Uiso   1.00
C281   C     0.07882   0.52149   0.38790   0.00000  Uiso   1.00
C282   C     0.12490   0.53668   0.36573   0.00000  Uiso   1.00
C283   C     0.12937   0.57319   0.34068   0.00000  Uiso   1.00
C284   C     0.08774   0.59467   0.33797   0.00000  Uiso   1.00
C285   C     0.04158   0.57963   0.36020   0.00000  Uiso   1.00
C286   C     0.23743   0.53386   0.02137   0.00000  Uiso   1.00
C287   C     0.09940   0.45757   0.48127   0.00000  Uiso   1.00
C288   C     0.28952   0.35461   0.25560   0.00000  Uiso   1.00
C289   C     0.04386   0.64540   0.24413   0.00000  Uiso   1.00
C290   C     0.28952   0.64534   0.25553   0.00000  Uiso   1.00
Cu291  Cu    0.04689   0.50001   0.25000   0.00000  Uiso   1.00
Cu292  Cu    0.28645   0.49999   0.25000   0.00000  Uiso   1.00
H293   H     0.25994   0.55061   0.03852   0.00000  Uiso   1.00
H294   H     0.07815   0.62936   0.23935   0.00000  Uiso   1.00
H295   H     0.25524   0.62927   0.26013   0.00000  Uiso   1.00
H296   H     0.07815   0.37073   0.23960   0.00000  Uiso   1.00
H297   H     0.19699   0.44979   0.29573   0.00000  Uiso   1.00
H298   H     0.13632   0.55028   0.20436   0.00000  Uiso   1.00
H299   H     0.10991   0.44987   0.29576   0.00000  Uiso   1.00
H300   H     0.22339   0.55021   0.20433   0.00000  Uiso   1.00
H301   H     0.32653   0.39665   0.13781   0.00000  Uiso   1.00
H302   H     0.24549   0.36897   0.17722   0.00000  Uiso   1.00
H303   H     0.17108   0.40906   0.17861   0.00000  Uiso   1.00
H304   H     0.07763   0.43930   0.46468   0.00000  Uiso   1.00
H305   H     0.17773   0.47692   0.14016   0.00000  Uiso   1.00
H306   H     0.25864   0.50537   0.10154   0.00000  Uiso   1.00
H307   H     0.07563   0.49284   0.40649   0.00000  Uiso   1.00
H308   H     0.15714   0.51998   0.36763   0.00000  Uiso   1.00
H309   H     0.16506   0.58475   0.32329   0.00000  Uiso   1.00
H310   H     0.09125   0.62298   0.31865   0.00000  Uiso   1.00
H311   H     0.00955   0.59640   0.35770   0.00000  Uiso   1.00
H312   H     0.10820   0.52286   0.11015   0.00000  Uiso   1.00
H313   H     0.22379   0.47862   0.38911   0.00000  Uiso   1.00
H314   H     0.32607   0.54992   0.47178   0.00000  Uiso   1.00
H315   H     0.01048   0.44200   0.03063   0.00000  Uiso   1.00
H316   H     0.17907   0.53514   0.07844   0.00000  Uiso   1.00
H317   H     0.15870   0.45467   0.42498   0.00000  Uiso   1.00
H318   H     0.25524   0.37064   0.26029   0.00000  Uiso   1.00
N319   N     0.11736   0.50001   0.24999   0.00000  Uiso   1.00
N320   N     0.21597   0.49999   0.25001   0.00000  Uiso   1.00
O321   O     0.03958   0.43989   0.25000   0.00000  Uiso   1.00
O322   O     0.29375   0.56011   0.25000   0.00000  Uiso   1.00
O323   O     0.29372   0.43988   0.25001   0.00000  Uiso   1.00
O324   O     0.03961   0.56012   0.25000   0.00000  Uiso   1.00
O325   O     0.01852   0.50001   0.31492   0.00000  Uiso   1.00
O326   O     0.31481   0.49999   0.18509   0.00000  Uiso   1.00
O327   O     0.27267   0.50000   0.31492   0.00000  Uiso   1.00
O328   O     0.06067   0.50000   0.18508   0.00000  Uiso   1.00
C329   C     0.33333   0.42068   0.24998   0.00000  Uiso   1.00
C330   C     0.37720   0.35466   0.24422   0.00000  Uiso   1.00
C331   C     0.33335   0.62393   0.24988   0.00000  Uiso   1.00
C332   C     0.33336   0.37608   0.24993   0.00000  Uiso   1.00
C333   C     0.51750   0.47208   0.27533   0.00000  Uiso   1.00
C334   C     0.48248   0.52798   0.22474   0.00000  Uiso   1.00
C335   C     0.46787   0.47210   0.27533   0.00000  Uiso   1.00
C336   C     0.53211   0.52796   0.22474   0.00000  Uiso   1.00
C337   C     0.63957   0.50149   0.33607   0.00000  Uiso   1.00
C338   C     0.36045   0.49838   0.16397   0.00000  Uiso   1.00
C339   C     0.62505   0.50655   0.38508   0.00000  Uiso   1.00
C340   C     0.33335   0.57932   0.24995   0.00000  Uiso   1.00
C341   C     0.37520   0.49196   0.11519   0.00000  Uiso   1.00
C342   C     0.63680   0.53385   0.45414   0.00000  Uiso   1.00
C343   C     0.36568   0.45974   0.04766   0.00000  Uiso   1.00
C344   C     0.65493   0.52653   0.40831   0.00000  Uiso   1.00
C345   C     0.34648   0.46948   0.09280   0.00000  Uiso   1.00
C346   C     0.57833   0.49359   0.40841   0.00000  Uiso   1.00
C347   C     0.42190   0.50483   0.09175   0.00000  Uiso   1.00
C348   C     0.55911   0.50155   0.45437   0.00000  Uiso   1.00
C349   C     0.44272   0.49351   0.04692   0.00000  Uiso   1.00
C350   C     0.58905   0.52272   0.47679   0.00000  Uiso   1.00
C351   C     0.52312   0.52482   0.04428   0.00000  Uiso   1.00
C352   C     0.41355   0.47065   0.02508   0.00000  Uiso   1.00
C353   C     0.51056   0.49055   0.47820   0.00000  Uiso   1.00
C354   C     0.49185   0.50328   0.02360   0.00000  Uiso   1.00
C355   C     0.63149   0.45277   0.11631   0.00000  Uiso   1.00
C356   C     0.62756   0.41431   0.13806   0.00000  Uiso   1.00
C357   C     0.58178   0.39863   0.16048   0.00000  Uiso   1.00
C358   C     0.53981   0.42118   0.16119   0.00000  Uiso   1.00
C359   C     0.54356   0.45944   0.13948   0.00000  Uiso   1.00
C360   C     0.58930   0.47535   0.11734   0.00000  Uiso   1.00
C361   C     0.37027   0.54289   0.38529   0.00000  Uiso   1.00
C362   C     0.48020   0.46708   0.45826   0.00000  Uiso   1.00
C363   C     0.41216   0.52149   0.38790   0.00000  Uiso   1.00
C364   C     0.45824   0.53668   0.36573   0.00000  Uiso   1.00
C365   C     0.46270   0.57319   0.34068   0.00000  Uiso   1.00
C366   C     0.42107   0.59467   0.33797   0.00000  Uiso   1.00
C367   C     0.37492   0.57963   0.36020   0.00000  Uiso   1.00
C368   C     0.57076   0.53386   0.02137   0.00000  Uiso   1.00
C369   C     0.43274   0.45757   0.48127   0.00000  Uiso   1.00
C370   C     0.62285   0.35461   0.25560   0.00000  Uiso   1.00
C371   C     0.37720   0.64540   0.24413   0.00000  Uiso   1.00
C372   C     0.62285   0.64534   0.25553   0.00000  Uiso   1.00
Cu373  Cu    0.38022   0.50001   0.25000   0.00000  Uiso   1.00
Cu374  Cu    0.61978   0.49999   0.25000   0.00000  Uiso   1.00
H375   H     0.59327   0.55061   0.03852   0.00000  Uiso   1.00
H376   H     0.41149   0.62936   0.23935   0.00000  Uiso   1.00
H377   H     0.58857   0.62927   0.26013   0.00000  Uiso   1.00
H378   H     0.41148   0.37073   0.23960   0.00000  Uiso   1.00
H379   H     0.53032   0.44979   0.29573   0.00000  Uiso   1.00
H380   H     0.46965   0.55028   0.20436   0.00000  Uiso   1.00
H381   H     0.44325   0.44987   0.29576   0.00000  Uiso   1.00
H382   H     0.55673   0.55021   0.20433   0.00000  Uiso   1.00
H383   H     0.65986   0.39665   0.13781   0.00000  Uiso   1.00
H384   H     0.57882   0.36897   0.17722   0.00000  Uiso   1.00
H385   H     0.50441   0.40906   0.17861   0.00000  Uiso   1.00
H386   H     0.41096   0.43930   0.46468   0.00000  Uiso   1.00
H387   H     0.51106   0.47692   0.14016   0.00000  Uiso   1.00
H388   H     0.59198   0.50537   0.10154   0.00000  Uiso   1.00
H389   H     0.40897   0.49284   0.40649   0.00000  Uiso   1.00
H390   H     0.49047   0.51998   0.36763   0.00000  Uiso   1.00
H391   H     0.49839   0.58475   0.32329   0.00000  Uiso   1.00
H392   H     0.42458   0.62298   0.31865   0.00000  Uiso   1.00
H393   H     0.34288   0.59640   0.35770   0.00000  Uiso   1.00
H394   H     0.44153   0.52286   0.11015   0.00000  Uiso   1.00
H395   H     0.55712   0.47862   0.38911   0.00000  Uiso   1.00
H396   H     0.65941   0.54992   0.47178   0.00000  Uiso   1.00
H397   H     0.34382   0.44200   0.03063   0.00000  Uiso   1.00
H398   H     0.51240   0.53514   0.07844   0.00000  Uiso   1.00
H399   H     0.49203   0.45467   0.42498   0.00000  Uiso   1.00
H400   H     0.58857   0.37064   0.26029   0.00000  Uiso   1.00
N401   N     0.45069   0.50001   0.24999   0.00000  Uiso   1.00
N402   N     0.54931   0.49999   0.25001   0.00000  Uiso   1.00
O403   O     0.37291   0.43989   0.25000   0.00000  Uiso   1.00
O404   O     0.62709   0.56011   0.25000   0.00000  Uiso   1.00
O405   O     0.62706   0.43988   0.25001   0.00000  Uiso   1.00
O406   O     0.37294   0.56012   0.25000   0.00000  Uiso   1.00
O407   O     0.35186   0.50001   0.31492   0.00000  Uiso   1.00
O408   O     0.64814   0.49999   0.18509   0.00000  Uiso   1.00
O409   O     0.60600   0.50000   0.31492   0.00000  Uiso   1.00
O410   O     0.39400   0.50000   0.18508   0.00000  Uiso   1.00
C411   C     0.66667   0.42068   0.24998   0.00000  Uiso   1.00
C412   C     0.71053   0.35466   0.24422   0.00000  Uiso   1.00
C413   C     0.66668   0.62393   0.24988   0.00000  Uiso   1.00
C414   C     0.66669   0.37608   0.24993   0.00000  Uiso   1.00
C415   C     0.85083   0.47208   0.27533   0.00000  Uiso   1.00
C416   C     0.81581   0.52798   0.22474   0.00000  Uiso   1.00
C417   C     0.80120   0.47210   0.27533   0.00000  Uiso   1.00
C418   C     0.86545   0.52796   0.22474   0.00000  Uiso   1.00
C419   C     0.97290   0.50149   0.33607   0.00000  Uiso   1.00
C420   C     0.69378   0.49838   0.16397   0.00000  Uiso   1.00
C421   C     0.95838   0.50655   0.38508   0.00000  Uiso   1.00
C422   C     0.66669   0.57932   0.24995   0.00000  Uiso   1.00
C423   C     0.70854   0.49196   0.11519   0.00000  Uiso   1.00
C424   C     0.97013   0.53385   0.45414   0.00000  Uiso   1.00
C425   C     0.69901   0.45974   0.04766   0.00000  Uiso   1.00
C426   C     0.98826   0.52653   0.40831   0.00000  Uiso   1.00
C427   C     0.67981   0.46948   0.09280   0.00000  Uiso   1.00
C428   C     0.91167   0.49359   0.40841   0.00000  Uiso   1.00
C429   C     0.75523   0.50483   0.09175   0.00000  Uiso   1.00
C430   C     0.89244   0.50155   0.45437   0.00000  Uiso   1.00
C431   C     0.77605   0.49351   0.04692   0.00000  Uiso   1.00
C432   C     0.92238   0.52272   0.47679   0.00000  Uiso   1.00
C433   C     0.85646   0.52482   0.04428   0.00000  Uiso   1.00
C434   C     0.74688   0.47065   0.02508   0.00000  Uiso   1.00
C435   C     0.84389   0.49055   0.47820   0.00000  Uiso   1.00
C436   C     0.82518   0.50328   0.02360   0.00000  Uiso   1.00
C437   C     0.96483   0.45277   0.11631   0.00000  Uiso   1.00
C438   C     0.96089   0.41431   0.13806   0.00000  Uiso   1.00
C439   C     0.91511   0.39863   0.16048   0.00000  Uiso   1.00
C440   C     0.87314   0.42118   0.16119   0.00000  Uiso   1.00
C441   C     0.87690   0.45944   0.13948   0.00000  Uiso   1.00
C442   C     0.92263   0.47535   0.11734   0.00000  Uiso   1.00
C443   C     0.70360   0.54289   0.38529   0.00000  Uiso   1.00
C444   C     0.81354   0.46708   0.45826   0.00000  Uiso   1.00
C445   C     0.74549   0.52149   0.38790   0.00000  Uiso   1.00
C446   C     0.79157   0.53668   0.36573   0.00000  Uiso   1.00
C447   C     0.79603   0.57319   0.34068   0.00000  Uiso   1.00
C448   C     0.75440   0.59467   0.33797   0.00000  Uiso   1.00
C449   C     0.70825   0.57963   0.36020   0.00000  Uiso   1.00
C450   C     0.90409   0.53386   0.02137   0.00000  Uiso   1.00
C451   C     0.76607   0.45757   0.48127   0.00000  Uiso   1.00
C452   C     0.95619   0.35461   0.25560   0.00000  Uiso   1.00
C453   C     0.71053   0.64540   0.24413   0.00000  Uiso   1.00
C454   C     0.95618   0.64534   0.25553   0.00000  Uiso   1.00
Cu455  Cu    0.71355   0.50001   0.25000   0.00000  Uiso   1.00
Cu456  Cu    0.95311   0.49999   0.25000   0.00000  Uiso   1.00
H457   H     0.92661   0.55061   0.03852   0.00000  Uiso   1.00
H458   H     0.74482   0.62936   0.23935   0.00000  Uiso   1.00
H459   H     0.92190   0.62927   0.26013   0.00000  Uiso   1.00
H460   H     0.74481   0.37073   0.23960   0.00000  Uiso   1.00
H461   H     0.86365   0.44979   0.29573   0.00000  Uiso   1.00
H462   H     0.80299   0.55028   0.20436   0.00000  Uiso   1.00
H463   H     0.77658   0.44987   0.29576   0.00000  Uiso   1.00
H464   H     0.89006   0.55021   0.20433   0.00000  Uiso   1.00
H465   H     0.99320   0.39665   0.13781   0.00000  Uiso   1.00
H466   H     0.91216   0.36897   0.17722   0.00000  Uiso   1.00
H467   H     0.83774   0.40906   0.17861   0.00000  Uiso   1.00
H468   H     0.74430   0.43930   0.46468   0.00000  Uiso   1.00
H469   H     0.84439   0.47692   0.14016   0.00000  Uiso   1.00
H470   H     0.92531   0.50537   0.10154   0.00000  Uiso   1.00
H471   H     0.74230   0.49284   0.40649   0.00000  Uiso   1.00
H472   H     0.82380   0.51998   0.36763   0.00000  Uiso   1.00
H473   H     0.83173   0.58475   0.32329   0.00000  Uiso   1.00
H474   H     0.75792   0.62298   0.31865   0.00000  Uiso   1.00
H475   H     0.67622   0.59640   0.35770   0.00000  Uiso   1.00
H476   H     0.77486   0.52286   0.11015   0.00000  Uiso   1.00
H477   H     0.89046   0.47862   0.38911   0.00000  Uiso   1.00
H478   H     0.99274   0.54992   0.47178   0.00000  Uiso   1.00
H479   H     0.67715   0.44200   0.03063   0.00000  Uiso   1.00
H480   H     0.84574   0.53514   0.07844   0.00000  Uiso   1.00
H481   H     0.82537   0.45467   0.42498   0.00000  Uiso   1.00
H482   H     0.92190   0.37064   0.26029   0.00000  Uiso   1.00
N483   N     0.78403   0.50001   0.24999   0.00000  Uiso   1.00
N484   N     0.88264   0.49999   0.25001   0.00000  Uiso   1.00
O485   O     0.70625   0.43989   0.25000   0.00000  Uiso   1.00
O486   O     0.96042   0.56011   0.25000   0.00000  Uiso   1.00
O487   O     0.96039   0.43988   0.25001   0.00000  Uiso   1.00
O488   O     0.70628   0.56012   0.25000   0.00000  Uiso   1.00
O489   O     0.68519   0.50001   0.31492   0.00000  Uiso   1.00
O490   O     0.98148   0.49999   0.18509   0.00000  Uiso   1.00
O491   O     0.93933   0.50000   0.31492   0.00000  Uiso   1.00
O492   O     0.72733   0.50000   0.18508   0.00000  Uiso   1.00
C493   C    -0.00000   0.75402   0.24998   0.00000  Uiso   1.00
C494   C     0.04386   0.68799   0.24422   0.00000  Uiso   1.00
C495   C     0.00002   0.95726   0.24988   0.00000  Uiso   1.00
C496   C     0.00002   0.70941   0.24993   0.00000  Uiso   1.00
C497   C     0.18417   0.80541   0.27533   0.00000  Uiso   1.00
C498   C     0.14915   0.86131   0.22474   0.00000  Uiso   1.00
C499   C     0.13453   0.80543   0.27533   0.00000  Uiso   1.00
C500   C     0.19878   0.86129   0.22474   0.00000  Uiso   1.00
C501   C     0.30623   0.83483   0.33607   0.00000  Uiso   1.00
C502   C     0.02711   0.83171   0.16397   0.00000  Uiso   1.00
C503   C     0.29172   0.83988   0.38508   0.00000  Uiso   1.00
C504   C     0.00002   0.91265   0.24995   0.00000  Uiso   1.00
C505   C     0.04187   0.82529   0.11519   0.00000  Uiso   1.00
C506   C     0.30346   0.86718   0.45414   0.00000  Uiso   1.00
C507   C     0.03234   0.79307   0.04766   0.00000  Uiso   1.00
C508   C     0.32159   0.85986   0.40831   0.00000  Uiso   1.00
C509   C     0.01314   0.80281   0.09280   0.00000  Uiso   1.00
C510   C     0.24500   0.82692   0.40841   0.00000  Uiso   1.00
C511   C     0.08856   0.83816   0.09175   0.00000  Uiso   1.00
C512   C     0.22577   0.83489   0.45437   0.00000  Uiso   1.00
C513   C     0.10939   0.82684   0.04692   0.00000  Uiso   1.00
C514   C     0.25572   0.85605   0.47679   0.00000  Uiso   1.00
C515   C     0.18979   0.85815   0.04428   0.00000  Uiso   1.00
C516   C     0.08021   0.80398   0.02508   0.00000  Uiso   1.00
C517   C     0.17723   0.82388   0.47820   0.00000  Uiso   1.00
C518   C     0.15851   0.83662   0.02360   0.00000  Uiso   1.00
C519   C     0.29816   0.78610   0.11631   0.00000  Uiso   1.00
C520   C     0.29422   0.74764   0.13806   0.00000  Uiso   1.00
C521   C     0.24845   0.73196   0.16048   0.00000  Uiso   1.00
C522   C     0.20648   0.75451   0.16119   0.00000  Uiso   1.00
C523   C     0.21023   0.79278   0.13948   0.00000  Uiso   1.00
C524   C     0.25596   0.80868   0.11734   0.00000  Uiso   1.00
C525   C     0.03694   0.87622   0.38529   0.00000  Uiso   1.00
C526   C     0.14687   0.80041   0.45826   0.00000  Uiso   1.00
C527   C     0.07882   0.85482   0.38790   0.00000  Uiso   1.00
C528   C     0.12490   0.87001   0.36573   0.00000  Uiso   1.00
C529   C     0.12937   0.90652   0.34068   0.00000  Uiso   1.00
C530   C     0.08774   0.92801   0.33797   0.00000  Uiso   1.00
C531   C     0.04158   0.91297   0.36020   0.00000  Uiso   1.00
C532   C     0.23743   0.86720   0.02137   0.00000  Uiso   1.00
C533   C     0.09940   0.79090   0.48127   0.00000  Uiso   1.00
C534   C     0.28952   0.68794   0.25560   0.00000  Uiso   1.00
C535   C     0.04386   0.97873   0.24413   0.00000  Uiso   1.00
C536   C     0.28952   0.97868   0.25553   0.00000  Uiso   1.00
Cu537  Cu    0.04689   0.83334   0.25000   0.00000  Uiso   1.00
Cu538  Cu    0.28645   0.83333   0.25000   0.00000  Uiso   1.00
H539   H     0.25994   0.88394   0.03852   0.00000  Uiso   1.00
H540   H     0.07815   0.96270   0.23935   0.00000  Uiso   1.00
H541   H     0.25524   0.96261   0.26013   0.00000  Uiso   1.00
H542   H     0.07815   0.70407   0.23960   0.00000  Uiso   1.00
H543   H     0.19699   0.78312   0.29573   0.00000  Uiso   1.00
H544   H     0.13632   0.88362   0.20436   0.00000  Uiso   1.00
H545   H     0.10991   0.78320   0.29576   0.00000  Uiso   1.00
H546   H     0.22339   0.88354   0.20433   0.00000  Uiso   1.00
H547   H     0.32653   0.72998   0.13781   0.00000  Uiso   1.00
H548   H     0.24549   0.70231   0.17722   0.00000  Uiso   1.00
H549   H     0.17108   0.74239   0.17861   0.00000  Uiso   1.00
H550   H     0.07763   0.77263   0.46468   0.00000  Uiso   1.00
H551   H     0.17773   0.81025   0.14016   0.00000  Uiso   1.00
H552   H     0.25864   0.83871   0.10154   0.00000  Uiso   1.00
H553   H     0.07563   0.82617   0.40649   0.00000  Uiso   1.00
H554   H     0.15714   0.85331   0.36763   0.00000  Uiso   1.00
H555   H     0.16506   0.91808   0.32329   0.00000  Uiso   1.00
H556   H     0.09125   0.95631   0.31865   0.00000  Uiso   1.00
H557   H     0.00955   0.92973   0.35770   0.00000  Uiso   1.00
H558   H     0.10820   0.85619   0.11015   0.00000  Uiso   1.00
H559   H     0.22379   0.81196   0.38911   0.00000  Uiso   1.00
H560   H     0.32607   0.88326   0.47178   0.00000  Uiso   1.00
H561   H     0.01048   0.77533   0.03063   0.00000  Uiso   1.00
H562   H     0.17907   0.86847   0.07844   0.00000  Uiso   1.00
H563   H     0.15870   0.78800   0.42498   0.00000  Uiso   1.00
H564   H     0.25524   0.70397   0.26029   0.00000  Uiso   1.00
N565   N     0.11736   0.83334   0.24999   0.00000  Uiso   1.00
N566   N     0.21597   0.83332   0.25001   0.00000  Uiso   1.00
O567   O     0.03958   0.77322   0.25000   0.00000  Uiso   1.00
O568   O     0.29375   0.89345   0.25000   0.00000  Uiso   1.00
O569   O     0.29372   0.77321   0.25001   0.00000  Uiso   1.00
O570   O     0.03961   0.89346   0.25000   0.00000  Uiso   1.00
O571   O     0.01852   0.83334   0.31492   0.00000  Uiso   1.00
O572   O     0.31481   0.83332   0.18509   0.00000  Uiso   1.00
O573   O     0.27267   0.83333   0.31492   0.00000  Uiso   1.00
O574   O     0.06067   0.83333   0.18508   0.00000  Uiso   1.00
C575   C     0.33333   0.75402   0.24998   0.00000  Uiso   1.00
C576   C     0.37720   0.68799   0.24422   0.00000  Uiso   1.00
C577   C     0.33335   0.95726   0.24988   0.00000  Uiso   1.00
C578   C     0.33336   0.70941   0.24993   0.00000  Uiso   1.00
C579   C     0.51750   0.80541   0.27533   0.00000  Uiso   1.00
C580   C     0.48248   0.86131   0.22474   0.00000  Uiso   1.00
C581   C     0.46787   0.80543   0.27533   0.00000  Uiso   1.00
C582   C     0.53211   0.86129   0.22474   0.00000  Uiso   1.00
C583   C     0.63957   0.83483   0.33607   0.00000  Uiso   1.00
C584   C     0.36045   0.83171   0.16397   0.00000  Uiso   1.00
C585   C     0.62505   0.83988   0.38508   0.00000  Uiso   1.00
C586   C     0.33335   0.91265   0.24995   0.00000  Uiso   1.00
C587   C     0.37520   0.82529   0.11519   0.00000  Uiso   1.00
C588   C     0.63680   0.86718   0.45414   0.00000  Uiso   1.00
C589   C     0.36568   0.79307   0.04766   0.00000  Uiso   1.00
C590   C     0.65493   0.85986   0.40831   0.00000  Uiso   1.00
C591   C     0.34648   0.80281   0.09280   0.00000  Uiso   1.00
C592   C     0.57833   0.82692   0.40841   0.00000  Uiso   1.00
C593   C     0.42190   0.83816   0.09175   0.00000  Uiso   1.00
C594   C     0.55911   0.83489   0.45437   0.00000  Uiso   1.00
C595   C     0.44272   0.82684   0.04692   0.00000  Uiso   1.00
C596   C     0.58905   0.85605   0.47679   0.00000  Uiso   1.00
C597   C     0.52312   0.85815   0.04428   0.00000  Uiso   1.00
C598   C     0.41355   0.80398   0.02508   0.00000  Uiso   1.00
C599   C     0.51056   0.82388   0.47820   0.00000  Uiso   1.00
C600   C     0.49185   0.83662   0.02360   0.00000  Uiso   1.00
C601   C     0.63149   0.78610   0.11631   0.00000  Uiso   1.00
C602   C     0.62756   0.74764   0.13806   0.00000  Uiso   1.00
C603   C     0.58178   0.73196   0.16048   0.00000  Uiso   1.00
C604   C     0.53981   0.75451   0.16119   0.00000  Uiso   1.00
C605   C     0.54356   0.79278   0.13948   0.00000  Uiso   1.00
C606   C     0.58930   0.80868   0.11734   0.00000  Uiso   1.00
C607   C     0.37027   0.87622   0.38529   0.00000  Uiso   1.00
C608   C     0.48020   0.80041   0.45826   0.00000  Uiso   1.00
C609   C     0.41216   0.85482   0.38790   0.00000  Uiso   1.00
C610   C     0.45824   0.87001   0.36573   0.00000  Uiso   1.00
C611   C     0.46270   0.90652   0.34068   0.00000  Uiso   1.00
C612   C     0.42107   0.92801   0.33797   0.00000  Uiso   1.00
C613   C     0.37492   0.91297   0.36020   0.00000  Uiso   1.00
C614   C     0.57076   0.86720   0.02137   0.00000  Uiso   1.00
C615   C     0.43274   0.79090   0.48127   0.00000  Uiso   1.00
C616   C     0.62285   0.68794   0.25560   0.00000  Uiso   1.00
C617   C     0.37720   0.97873   0.24413   0.00000  Uiso   1.00
C618   C     0.62285   0.97868   0.25553   0.00000  Uiso   1.00
Cu619  Cu    0.38022   0.83334   0.25000   0.00000  Uiso   1.00
Cu620  Cu    0.61978   0.83333   0.25000   0.00000  Uiso   1.00
H621   H     0.59327   0.88394   0.03852   0.00000  Uiso   1.00
H622   H     0.41149   0.96270   0.23935   0.00000  Uiso   1.00
H623   H     0.58857   0.96261   0.26013   0.00000  Uiso   1.00
H624   H     0.41148   0.70407   0.23960   0.00000  Uiso   1.00
H625   H     0.53032   0.78312   0.29573   0.00000  Uiso   1.00
H626   H     0.46965   0.88362   0.20436   0.00000  Uiso   1.00
H627   H     0.44325   0.78320   0.29576   0.00000  Uiso   1.00
H628   H     0.55673   0.88354   0.20433   0.00000  Uiso   1.00
H629   H     0.65986   0.72998   0.13781   0.00000  Uiso   1.00
H630   H     0.57882   0.70231   0.17722   0.00000  Uiso   1.00
H631   H     0.50441   0.74239   0.17861   0.00000  Uiso   1.00
H632   H     0.41096   0.77263   0.46468   0.00000  Uiso   1.00
H633   H     0.51106   0.81025   0.14016   0.00000  Uiso   1.00
H634   H     0.59198   0.83871   0.10154   0.00000  Uiso   1.00
H635   H     0.40897   0.82617   0.40649   0.00000  Uiso   1.00
H636   H     0.49047   0.85331   0.36763   0.00000  Uiso   1.00
H637   H     0.49839   0.91808   0.32329   0.00000  Uiso   1.00
H638   H     0.42458   0.95631   0.31865   0.00000  Uiso   1.00
H639   H     0.34288   0.92973   0.35770   0.00000  Uiso   1.00
H640   H     0.44153   0.85619   0.11015   0.00000  Uiso   1.00
H641   H     0.55712   0.81196   0.38911   0.00000  Uiso   1.00
H642   H     0.65941   0.88326   0.47178   0.00000  Uiso   1.00
H643   H     0.34382   0.77533   0.03063   0.00000  Uiso   1.00
H644   H     0.51240   0.86847   0.07844   0.00000  Uiso   1.00
H645   H     0.49203   0.78800   0.42498   0.00000  Uiso   1.00
H646   H     0.58857   0.70397   0.26029   0.00000  Uiso   1.00
N647   N     0.45069   0.83334   0.24999   0.00000  Uiso   1.00
N648   N     0.54931   0.83332   0.25001   0.00000  Uiso   1.00
O649   O     0.37291   0.77322   0.25000   0.00000  Uiso   1.00
O650   O     0.62709   0.89345   0.25000   0.00000  Uiso   1.00
O651   O     0.62706   0.77321   0.25001   0.00000  Uiso   1.00
O652   O     0.37294   0.89346   0.25000   0.00000  Uiso   1.00
O653   O     0.35186   0.83334   0.31492   0.00000  Uiso   1.00
O654   O     0.64814   0.83332   0.18509   0.00000  Uiso   1.00
O655   O     0.60600   0.83333   0.31492   0.00000  Uiso   1.00
O656   O     0.39400   0.83333   0.18508   0.00000  Uiso   1.00
C657   C     0.66667   0.75402   0.24998   0.00000  Uiso   1.00
C658   C     0.71053   0.68799   0.24422   0.00000  Uiso   1.00
C659   C     0.66668   0.95726   0.24988   0.00000  Uiso   1.00
C660   C     0.66669   0.70941   0.24993   0.00000  Uiso   1.00
C661   C     0.85083   0.80541   0.27533   0.00000  Uiso   1.00
C662   C     0.81581   0.86131   0.22474   0.00000  Uiso   1.00
C663   C     0.80120   0.80543   0.27533   0.00000  Uiso   1.00
C664   C     0.86545   0.86129   0.22474   0.00000  Uiso   1.00
C665   C     0.97290   0.83483   0.33607   0.00000  Uiso   1.00
C666   C     0.69378   0.83171   0.16397   0.00000  Uiso   1.00
C667   C     0.95838   0.83988   0.38508   0.00000  Uiso   1.00
C668   C     0.66669   0.91265   0.24995   0.00000  Uiso   1.00
C669   C     0.70854   0.82529   0.11519   0.00000  Uiso   1.00
C670   C     0.97013   0.86718   0.45414   0.00000  Uiso   1.00
C671   C     0.69901   0.79307   0.04766   0.00000  Uiso   1.00
C672   C     0.98826   0.85986   0.40831   0.00000  Uiso   1.00
C673   C     0.67981   0.80281   0.09280   0.00000  Uiso   1.00
C674   C     0.91167   0.82692   0.40841   0.00000  Uiso   1.00
C675   C     0.75523   0.83816   0.09175   0.00000  Uiso   1.00
C676   C     0.89244   0.83489   0.45437   0.00000  Uiso   1.00
C677   C     0.77605   0.82684   0.04692   0.00000  Uiso   1.00
C678   C     0.92238   0.85605   0.47679   0.00000  Uiso   1.00
C679   C     0.85646   0.85815   0.04428   0.00000  Uiso   1.00
C680   C     0.74688   0.80398   0.02508   0.00000  Uiso   1.00
C681   C     0.84389   0.82388   0.47820   0.00000  Uiso   1.00
C682   C     0.82518   0.83662   0.02360   0.00000  Uiso   1.00
C683   C     0.96483   0.78610   0.11631   0.00000  Uiso   1.00
C684   C     0.96089   0.74764   0.13806   0.00000  Uiso   1.00
C685   C     0.91511   0.73196   0.16048   0.00000  Uiso   1.00
C686   C     0.87314   0.75451   0.16119   0.00000  Uiso   1.00
C687   C     0.87690   0.79278   0.13948   0.00000  Uiso   1.00
C688   C     0.92263   0.80868   0.11734   0.00000  Uiso   1.00
C689   C     0.70360   0.87622   0.38529   0.00000  Uiso   1.00
C690   C     0.81354   0.80041   0.45826   0.00000  Uiso   1.00
C691   C     0.74549   0.85482   0.38790   0.00000  Uiso   1.00
C692   C     0.79157   0.87001   0.36573   0.00000  Uiso   1.00
C693   C     0.79603   0.90652   0.34068   0.00000  Uiso   1.00
C694   C     0.75440   0.92801   0.33797   0.00000  Uiso   1.00
C695   C     0.70825   0.91297   0.36020   0.00000  Uiso   1.00
C696   C     0.90409   0.86720   0.02137   0.00000  Uiso   1.00
C697   C     0.76607   0.79090   0.48127   0.00000  Uiso   1.00
C698   C     0.95619   0.68794   0.25560   0.00000  Uiso   1.00
C699   C     0.71053   0.97873   0.24413   0.00000  Uiso   1.00
C700   C     0.95618   0.97868   0.25553   0.00000  Uiso   1.00
Cu701  Cu    0.71355   0.83334   0.25000   0.00000  Uiso   1.00
Cu702  Cu    0.95311   0.83333   0.25000   0.00000  Uiso   1.00
H703   H     0.92661   0.88394   0.03852   0.00000  Uiso   1.00
H704   H     0.74482   0.96270   0.23935   0.00000  Uiso   1.00
H705   H     0.92190   0.96261   0.26013   0.00000  Uiso   1.00
H706   H     0.74481   0.70407   0.23960   0.00000  Uiso   1.00
H707   H     0.86365   0.78312   0.29573   0.00000  Uiso   1.00
H708   H     0.80299   0.88362   0.20436   0.00000  Uiso   1.00
H709   H     0.77658   0.78320   0.29576   0.00000  Uiso   1.00
H710   H     0.89006   0.88354   0.20433   0.00000  Uiso   1.00
H711   H     0.99320   0.72998   0.13781   0.00000  Uiso   1.00
H712   H     0.91216   0.70231   0.17722   0.00000  Uiso   1.00
H713   H     0.83774   0.74239   0.17861   0.00000  Uiso   1.00
H714   H     0.74430   0.77263   0.46468   0.00000  Uiso   1.00
H715   H     0.84439   0.81025   0.14016   0.00000  Uiso   1.00
H716   H     0.92531   0.83871   0.10154   0.00000  Uiso   1.00
H717   H     0.74230   0.82617   0.40649   0.00000  Uiso   1.00
H718   H     0.82380   0.85331   0.36763   0.00000  Uiso   1.00
H719   H     0.83173   0.91808   0.32329   0.00000  Uiso   1.00
H720   H     0.75792   0.95631   0.31865   0.00000  Uiso   1.00
H721   H     0.67622   0.92973   0.35770   0.00000  Uiso   1.00
H722   H     0.77486   0.85619   0.11015   0.00000  Uiso   1.00
H723   H     0.89046   0.81196   0.38911   0.00000  Uiso   1.00
H724   H     0.99274   0.88326   0.47178   0.00000  Uiso   1.00
H725   H     0.67715   0.77533   0.03063   0.00000  Uiso   1.00
H726   H     0.84574   0.86847   0.07844   0.00000  Uiso   1.00
H727   H     0.82537   0.78800   0.42498   0.00000  Uiso   1.00
H728   H     0.92190   0.70397   0.26029   0.00000  Uiso   1.00
N729   N     0.78403   0.83334   0.24999   0.00000  Uiso   1.00
N730   N     0.88264   0.83332   0.25001   0.00000  Uiso   1.00
O731   O     0.70625   0.77322   0.25000   0.00000  Uiso   1.00
O732   O     0.96042   0.89345   0.25000   0.00000  Uiso   1.00
O733   O     0.96039   0.77321   0.25001   0.00000  Uiso   1.00
O734   O     0.70628   0.89346   0.25000   0.00000  Uiso   1.00
O735   O     0.68519   0.83334   0.31492   0.00000  Uiso   1.00
O736   O     0.98148   0.83332   0.18509   0.00000  Uiso   1.00
O737   O     0.93933   0.83333   0.31492   0.00000  Uiso   1.00
O738   O     0.72733   0.83333   0.18508   0.00000  Uiso   1.00
C739   C    -0.00000   0.08735   0.74998   0.00000  Uiso   1.00
C740   C     0.04386   0.02133   0.74422   0.00000  Uiso   1.00
C741   C     0.00002   0.29059   0.74988   0.00000  Uiso   1.00
C742   C     0.00002   0.04274   0.74993   0.00000  Uiso   1.00
C743   C     0.18417   0.13874   0.77533   0.00000  Uiso   1.00
C744   C     0.14915   0.19464   0.72474   0.00000  Uiso   1.00
C745   C     0.13453   0.13876   0.77533   0.00000  Uiso   1.00
C746   C     0.19878   0.19462   0.72474   0.00000  Uiso   1.00
C747   C     0.30623   0.16816   0.83607   0.00000  Uiso   1.00
C748   C     0.02711   0.16504   0.66397   0.00000  Uiso   1.00
C749   C     0.29172   0.17322   0.88508   0.00000  Uiso   1.00
C750   C     0.00002   0.24598   0.74995   0.00000  Uiso   1.00
C751   C     0.04187   0.15862   0.61519   0.00000  Uiso   1.00
C752   C     0.30346   0.20052   0.95414   0.00000  Uiso   1.00
C753   C     0.03234   0.12640   0.54766   0.00000  Uiso   1.00
C754   C     0.32159   0.19320   0.90831   0.00000  Uiso   1.00
C755   C     0.01314   0.13614   0.59280   0.00000  Uiso   1.00
C756   C     0.24500   0.16026   0.90841   0.00000  Uiso   1.00
C757   C     0.08856   0.17150   0.59175   0.00000  Uiso   1.00
C758   C     0.22577   0.16822   0.95437   0.00000  Uiso   1.00
C759   C     0.10939   0.16018   0.54692   0.00000  Uiso   1.00
C760   C     0.25572   0.18938   0.97679   0.00000  Uiso   1.00
C761   C     0.18979   0.19148   0.54428   0.00000  Uiso   1.00
C762   C     0.08021   0.13731   0.52508   0.00000  Uiso   1.00
C763   C     0.17723   0.15721   0.97820   0.00000  Uiso   1.00
C764   C     0.15851   0.16995   0.52360   0.00000  Uiso   1.00
C765   C     0.29816   0.11943   0.61631   0.00000  Uiso   1.00
C766   C     0.29422   0.08097   0.63806   0.00000  Uiso   1.00
C767   C     0.24845   0.06529   0.66048   0.00000  Uiso   1.00
C768   C     0.20648   0.08784   0.66119   0.00000  Uiso   1.00
C769   C     0.21023   0.12611   0.63948   0.00000  Uiso   1.00
C770   C     0.25596   0.14201   0.61734   0.00000  Uiso   1.00
C771   C     0.03694   0.20956   0.88529   0.00000  Uiso   1.00
C772   C     0.14687   0.13374   0.95826   0.00000  Uiso   1.00
C773   C     0.07882   0.18816   0.88790   0.00000  Uiso   1.00
C774   C     0.12490   0.20334   0.86573   0.00000  Uiso   1.00
C775   C     0.12937   0.23985   0.84068   0.00000  Uiso   1.00
C776   C     0.08774   0.26134   0.83797   0.00000  Uiso   1.00
C777   C     0.04158   0.24630   0.86020   0.00000  Uiso   1.00
C778   C     0.23743   0.20053   0.52137   0.00000  Uiso   1.00
C779   C     0.09940   0.12424   0.98127   0.00000  Uiso   1.00
C780   C     0.28952   0.02127   0.75560   0.00000  Uiso   1.00
C781   C     0.04386   0.31206   0.74413   0.00000  Uiso   1.00
C782   C     0.28952   0.31201   0.75553   0.00000  Uiso   1.00
Cu783  Cu    0.04689   0.16667   0.75000   0.00000  Uiso   1.00
Cu784  Cu    0.28645   0.16666   0.75000   0.00000  Uiso   1.00
H785   H     0.25994   0.21728   0.53852   0.00000  Uiso   1.00
H786   H     0.07815   0.29603   0.73935   0.00000  Uiso   1.00
H787   H     0.25524   0.29594   0.76013   0.00000  Uiso   1.00
H788   H     0.07815   0.03740   0.73960   0.00000  Uiso   1.00
H789   H     0.19699   0.11646   0.79573   0.00000  Uiso   1.00
H790   H     0.13632   0.21695   0.70436   0.00000  Uiso   1.00
H791   H     0.10991   0.11653   0.79576   0.00000  Uiso   1.00
H792   H     0.22339   0.21687   0.70433   0.00000  Uiso   1.00
H793   H     0.32653   0.06332   0.63781   0.00000  Uiso   1.00
H794   H     0.24549   0.03564   0.67722   0.00000  Uiso   1.00
H795   H     0.17108   0.07572   0.67861   0.00000  Uiso   1.00
H796   H     0.07763   0.10596   0.96468   0.00000  Uiso   1.00
H797   H     0.17773   0.14358   0.64016   0.00000  Uiso   1.00
H798   H     0.25864   0.17204   0.60154   0.00000  Uiso   1.00
H799   H     0.07563   0.15950   0.90649   0.00000  Uiso   1.00
H800   H     0.15714   0.18664   0.86763   0.00000  Uiso   1.00
H801   H     0.16506   0.25142   0.82329   0.00000  Uiso   1.00
H802   H     0.09125   0.28965   0.81865   0.00000  Uiso   1.00
H803   H     0.00955   0.26306   0.85770   0.00000  Uiso   1.00
H804   H     0.10820   0.18953   0.61015   0.00000  Uiso   1.00
H805   H     0.22379   0.14529   0.88911   0.00000  Uiso   1.00
H806   H     0.32607   0.21659   0.97178   0.00000  Uiso   1.00
H807   H     0.01048   0.10866   0.53063   0.00000  Uiso   1.00
H808   H     0.17907   0.20180   0.57844   0.00000  Uiso   1.00
H809   H     0.15870   0.12134   0.92498   0.00000  Uiso   1.00
H810   H     0.25524   0.03731   0.76029   0.00000  Uiso   1.00
N811   N     0.11736   0.16668   0.74999   0.00000  Uiso   1.00
N812   N     0.21597   0.16666   0.75001   0.00000  Uiso   1.00
O813   O     0.03958   0.10655   0.75000   0.00000  Uiso   1.00
O814   O     0.29375   0.22678   0.75000   0.00000  Uiso   1.00
O815   O     0.29372   0.10654   0.75001   0.00000  Uiso   1.00
O816   O     0.03961   0.22679   0.75000   0.00000  Uiso   1.00
O817   O     0.01852   0.16668   0.81492   0.00000  Uiso   1.00
O818   O     0.31481   0.16666   0.68509   0.00000  Uiso   1.00
O819   O     0.27267   0.16667   0.81492   0.00000  Uiso   1.00
O820   O     0.06067   0.16667   0.68508   0.00000  Uiso   1.00
C821   C     0.33333   0.08735   0.74998   0.00000  Uiso   1.00
C822   C     0.37720   0.02133   0.74422   0.00000  Uiso   1.00
C823   C     0.33335   0.29059   0.74988   0.00000  Uiso   1.00
C824   C     0.33336   0.04274   0.74993   0.00000  Uiso   1.00
C825   C     0.51750   0.13874   0.77533   0.00000  Uiso   1.00
C826   C     0.48248   0.19464   0.72474   0.00000  Uiso   1.00
C827   C     0.46787   0.13876   0.77533   0.00000  Uiso   1.00
C828   C     0.53211   0.19462   0.72474   0.00000  Uiso   1.00
C829   C     0.63957   0.16816   0.83607   0.00000  Uiso   1.00
C830   C     0.36045   0.16504   0.66397   0.00000  Uiso   1.00
C831   C     0.62505   0.17322   0.88508   0.00000  Uiso   1.00
C832   C     0.33335   0.24598   0.74995   0.00000  Uiso   1.00
C833   C     0.37520   0.15862   0.61519   0.00000  Uiso   1.00
C834   C     0.63680   0.20052   0.95414   0.00000  Uiso   1.00
C835   C     0.36568   0.12640   0.54766   0.00000  Uiso   1.00
C836   C     0.65493   0.19320   0.90831   0.00000  Uiso   1.00
C837   C     0.34648   0.13614   0.59280   0.00000  Uiso   1.00
C838   C     0.57833   0.16026   0.90841   0.00000  Uiso   1.00
C839   C     0.42190   0.17150   0.59175   0.00000  Uiso   1.00
C840   C     0.55911   0.16822   0.95437   0.00000  Uiso   1.00
C841   C     0.44272   0.16018   0.54692   0.00000  Uiso   1.00
C842   C     0.58905   0.18938   0.97679   0.00000  Uiso   1.00
C843   C     0.52312   0.19148   0.54428   0.00000  Uiso   1.00
C844   C     0.41355   0.13731   0.52508   0.00000  Uiso   1.00
C845   C     0.51056   0.15721   0.97820   0.00000  Uiso   1.00
C846   C     0.49185   0.16995   0.52360   0.00000  Uiso   1.00
C847   C     0.63149   0.11943   0.61631   0.00000  Uiso   1.00
C848   C     0.62756   0.08097   0.63806   0.00000  Uiso   1.00
C849   C     0.58178   0.06529   0.66048   0.00000  Uiso   1.00
C850   C     0.53981   0.08784   0.66119   0.00000  Uiso   1.00
C851   C     0.54356   0.12611   0.63948   0.00000  Uiso   1.00
C852   C     0.58930   0.14201   0.61734   0.00000  Uiso   1.00
C853   C     0.37027   0.20956   0.88529   0.00000  Uiso   1.00
C854   C     0.48020   0.13374   0.95826   0.00000  Uiso   1.00
C855   C     0.41216   0.18816   0.88790   0.00000  Uiso   1.00
C856   C     0.45824   0.20334   0.86573   0.00000  Uiso   1.00
C857   C     0.46270   0.23985   0.84068   0.00000  Uiso   1.00
C858   C     0.42107   0.26134   0.83797   0.00000  Uiso   1.00
C859   C     0.37492   0.24630   0.86020   0.00000  Uiso   1.00
C860   C     0.57076   0.20053   0.52137   0.00000  Uiso   1.00
C861   C     0.43274   0.12424   0.98127   0.00000  Uiso   1.00
C862   C     0.62285   0.02127   0.75560   0.00000  Uiso   1.00
C863   C     0.37720   0.31206   0.74413   0.00000  Uiso   1.00
C864   C     0.62285   0.31201   0.75553   0.00000  Uiso   1.00
Cu865  Cu    0.38022   0.16667   0.75000   0.00000  Uiso   1.00
Cu866  Cu    0.61978   0.16666   0.75000   0.00000  Uiso   1.00
H867   H     0.59327   0.21728   0.53852   0.00000  Uiso   1.00
H868   H     0.41149   0.29603   0.73935   0.00000  Uiso   1.00
H869   H     0.58857   0.29594   0.76013   0.00000  Uiso   1.00
H870   H     0.41148   0.03740   0.73960   0.00000  Uiso   1.00
H871   H     0.53032   0.11646   0.79573   0.00000  Uiso   1.00
H872   H     0.46965   0.21695   0.70436   0.00000  Uiso   1.00
H873   H     0.44325   0.11653   0.79576   0.00000  Uiso   1.00
H874   H     0.55673   0.21687   0.70433   0.00000  Uiso   1.00
H875   H     0.65986   0.06332   0.63781   0.00000  Uiso   1.00
H876   H     0.57882   0.03564   0.67722   0.00000  Uiso   1.00
H877   H     0.50441   0.07572   0.67861   0.00000  Uiso   1.00
H878   H     0.41096   0.10596   0.96468   0.00000  Uiso   1.00
H879   H     0.51106   0.14358   0.64016   0.00000  Uiso   1.00
H880   H     0.59198   0.17204   0.60154   0.00000  Uiso   1.00
H881   H     0.40897   0.15950   0.90649   0.00000  Uiso   1.00
H882   H     0.49047   0.18664   0.86763   0.00000  Uiso   1.00
H883   H     0.49839   0.25142   0.82329   0.00000  Uiso   1.00
H884   H     0.42458   0.28965   0.81865   0.00000  Uiso   1.00
H885   H     0.34288   0.26306   0.85770   0.00000  Uiso   1.00
H886   H     0.44153   0.18953   0.61015   0.00000  Uiso   1.00
H887   H     0.55712   0.14529   0.88911   0.00000  Uiso   1.00
H888   H     0.65941   0.21659   0.97178   0.00000  Uiso   1.00
H889   H     0.34382   0.10866   0.53063   0.00000  Uiso   1.00
H890   H     0.51240   0.20180   0.57844   0.00000  Uiso   1.00
H891   H     0.49203   0.12134   0.92498   0.00000  Uiso   1.00
H892   H     0.58857   0.03731   0.76029   0.00000  Uiso   1.00
N893   N     0.45069   0.16668   0.74999   0.00000  Uiso   1.00
N894   N     0.54931   0.16666   0.75001   0.00000  Uiso   1.00
O895   O     0.37291   0.10655   0.75000   0.00000  Uiso   1.00
O896   O     0.62709   0.22678   0.75000   0.00000  Uiso   1.00
O897   O     0.62706   0.10654   0.75001   0.00000  Uiso   1.00
O898   O     0.37294   0.22679   0.75000   0.00000  Uiso   1.00
O899   O     0.35186   0.16668   0.81492   0.00000  Uiso   1.00
O900   O     0.64814   0.16666   0.68509   0.00000  Uiso   1.00
O901   O     0.60600   0.16667   0.81492   0.00000  Uiso   1.00
O902   O     0.39400   0.16667   0.68508   0.00000  Uiso   1.00
C903   C     0.66667   0.08735   0.74998   0.00000  Uiso   1.00
C904   C     0.71053   0.02133   0.74422   0.00000  Uiso   1.00
C905   C     0.66668   0.29059   0.74988   0.00000  Uiso   1.00
C906   C     0.66669   0.04274   0.74993   0.00000  Uiso   1.00
C907   C     0.85083   0.13874   0.77533   0.00000  Uiso   1.00
C908   C     0.81581   0.19464   0.72474   0.00000  Uiso   1.00
C909   C     0.80120   0.13876   0.77533   0.00000  Uiso   1.00
C910   C     0.86545   0.19462   0.72474   0.00000  Uiso   1.00
C911   C     0.97290   0.16816   0.83607   0.00000  Uiso   1.00
C912   C     0.69378   0.16504   0.66397   0.00000  Uiso   1.00
C913   C     0.95838   0.17322   0.88508   0.00000  Uiso   1.00
C914   C     0.66669   0.24598   0.74995   0.00000  Uiso   1.00
C915   C     0.70854   0.15862   0.61519   0.00000  Uiso   1.00
C916   C     0.97013   0.20052   0.95414   0.00000  Uiso   1.00
C917   C     0.69901   0.12640   0.54766   0.00000  Uiso   1.00
C918   C     0.98826   0.19320   0.90831   0.00000  Uiso   1.00
C919   C     0.67981   0.13614   0.59280   0.00000  Uiso   1.00
C920   C     0.91167   0.16026   0.90841   0.00000  Uiso   1.00
C921   C     0.75523   0.17150   0.59175   0.00000  Uiso   1.00
C922   C     0.89244   0.16822   0.95437   0.00000  Uiso   1.00
C923   C     0.77605   0.16018   0.54692   0.00000  Uiso   1.00
C924   C     0.92238   0.18938   0.97679   0.00000  Uiso   1.00
C925   C     0.85646   0.19148   0.54428   0.00000  Uiso   1.00
C926   C     0.74688   0.13731   0.52508   0.00000  Uiso   1.00
C927   C     0.84389   0.15721   0.97820   0.00000  Uiso   1.00
C928   C     0.82518   0.16995   0.52360   0.00000  Uiso   1.00
C929   C     0.96483   0.11943   0.61631   0.00000  Uiso   1.00
C930   C     0.96089   0.08097   0.63806   0.00000  Uiso   1.00
C931   C     0.91511   0.06529   0.66048   0.00000  Uiso   1.00
C932   C     0.87314   0.08784   0.66119   0.00000  Uiso   1.00
C933   C     0.87690   0.12611   0.63948   0.00000  Uiso   1.00
C934   C     0.92263   0.14201   0.61734   0.00000  Uiso   1.00
C935   C     0.70360   0.20956   0.88529   0.00000  Uiso   1.00
C936   C     0.81354   0.13374   0.95826   0.00000  Uiso   1.00
C937   C     0.74549   0.18816   0.88790   0.00000  Uiso   1.00
C938   C     0.79157   0.20334   0.86573   0.00000  Uiso   1.00
C939   C     0.79603   0.23985   0.84068   0.00000  Uiso   1.00
C940   C     0.75440   0.26134   0.83797   0.00000  Uiso   1.00
C941   C     0.70825   0.24630   0.86020   0.00000  Uiso   1.00
C942   C     0.90409   0.20053   0.52137   0.00000  Uiso   1.00
C943   C     0.76607   0.12424   0.98127   0.00000  Uiso   1.00
C944   C     0.95619   0.02127   0.75560   0.00000  Uiso   1.00
C945   C     0.71053   0.31206   0.74413   0.00000  Uiso   1.00
C946   C     0.95618   0.31201   0.75553   0.00000  Uiso   1.00
Cu947  Cu    0.71355   0.16667   0.75000   0.00000  Uiso   1.00
Cu948  Cu    0.95311   0.16666   0.75000   0.00000  Uiso   1.00
H949   H     0.92661   0.21728   0.53852   0.00000  Uiso   1.00
H950   H     0.74482   0.29603   0.73935   0.00000  Uiso   1.00
H951   H     0.92190   0.29594   0.76013   0.00000  Uiso   1.00
H952   H     0.74481   0.03740   0.73960   0.00000  Uiso   1.00
H953   H     0.86365   0.11646   0.79573   0.00000  Uiso   1.00
H954   H     0.80299   0.21695   0.70436   0.00000  Uiso   1.00
H955   H     0.77658   0.11653   0.79576   0.00000  Uiso   1.00
H956   H     0.89006   0.21687   0.70433   0.00000  Uiso   1.00
H957   H     0.99320   0.06332   0.63781   0.00000  Uiso   1.00
H958   H     0.91216   0.03564   0.67722   0.00000  Uiso   1.00
H959   H     0.83774   0.07572   0.67861   0.00000  Uiso   1.00
H960   H     0.74430   0.10596   0.96468   0.00000  Uiso   1.00
H961   H     0.84439   0.14358   0.64016   0.00000  Uiso   1.00
H962   H     0.92531   0.17204   0.60154   0.00000  Uiso   1.00
H963   H     0.74230   0.15950   0.90649   0.00000  Uiso   1.00
H964   H     0.82380   0.18664   0.86763   0.00000  Uiso   1.00
H965   H     0.83173   0.25142   0.82329   0.00000  Uiso   1.00
H966   H     0.75792   0.28965   0.81865   0.00000  Uiso   1.00
H967   H     0.67622   0.26306   0.85770   0.00000  Uiso   1.00
H968   H     0.77486   0.18953   0.61015   0.00000  Uiso   1.00
H969   H     0.89046   0.14529   0.88911   0.00000  Uiso   1.00
H970   H     0.99274   0.21659   0.97178   0.00000  Uiso   1.00
H971   H     0.67715   0.10866   0.53063   0.00000  Uiso   1.00
H972   H     0.84574   0.20180   0.57844   0.00000  Uiso   1.00
H973   H     0.82537   0.12134   0.92498   0.00000  Uiso   1.00
H974   H     0.92190   0.03731   0.76029   0.00000  Uiso   1.00
N975   N     0.78403   0.16668   0.74999   0.00000  Uiso   1.00
N976   N     0.88264   0.16666   0.75001   0.00000  Uiso   1.00
O977   O     0.70625   0.10655   0.75000   0.00000  Uiso   1.00
O978   O     0.96042   0.22678   0.75000   0.00000  Uiso   1.00
O979   O     0.96039   0.10654   0.75001   0.00000  Uiso   1.00
O980   O     0.70628   0.22679   0.75000   0.00000  Uiso   1.00
O981   O     0.68519   0.16668   0.81492   0.00000  Uiso   1.00
O982   O     0.98148   0.16666   0.68509   0.00000  Uiso   1.00
O983   O     0.93933   0.16667   0.81492   0.00000  Uiso   1.00
O984   O     0.72733   0.16667   0.68508   0.00000  Uiso   1.00
C985   C    -0.00000   0.42068   0.74998   0.00000  Uiso   1.00
C986   C     0.04386   0.35466   0.74422   0.00000  Uiso   1.00
C987   C     0.00002   0.62393   0.74988   0.00000  Uiso   1.00
C988   C     0.00002   0.37608   0.74993   0.00000  Uiso   1.00
C989   C     0.18417   0.47208   0.77533   0.00000  Uiso   1.00
C990   C     0.14915   0.52798   0.72474   0.00000  Uiso   1.00
C991   C     0.13453   0.47210   0.77533   0.00000  Uiso   1.00
C992   C     0.19878   0.52796   0.72474   0.00000  Uiso   1.00
C993   C     0.30623   0.50149   0.83607   0.00000  Uiso   1.00
C994   C     0.02711   0.49838   0.66397   0.00000  Uiso   1.00
C995   C     0.29172   0.50655   0.88508   0.00000  Uiso   1.00
C996   C     0.00002   0.57932   0.74995   0.00000  Uiso   1.00
C997   C     0.04187   0.49196   0.61519   0.00000  Uiso   1.00
C998   C     0.30346   0.53385   0.95414   0.00000  Uiso   1.00
C999   C     0.03234   0.45974   0.54766   0.00000  Uiso   1.00
C1000  C     0.32159   0.52653   0.90831   0.00000  Uiso   1.00
C1001  C     0.01314   0.46948   0.59280   0.00000  Uiso   1.00
C1002  C     0.24500   0.49359   0.90841   0.00000  Uiso   1.00
C1003  C     0.08856   0.50483   0.59175   0.00000  Uiso   1.00
C1004  C     0.22577   0.50155   0.95437   0.00000  Uiso   1.00
C1005  C     0.10939   0.49351   0.54692   0.00000  Uiso   1.00
C1006  C     0.25572   0.52272   0.97679   0.00000  Uiso   1.00
C1007  C     0.18979   0.52482   0.54428   0.00000  Uiso   1.00
C1008  C     0.08021   0.47065   0.52508   0.00000  Uiso   1.00
C1009  C     0.17723   0.49055   0.97820   0.00000  Uiso   1.00
C1010  C     0.15851   0.50328   0.52360   0.00000  Uiso   1.00
C1011  C     0.29816   0.45277   0.61631   0.00000  Uiso   1.00
C1012  C     0.29422   0.41431   0.63806   0.00000  Uiso   1.00
C1013  C     0.24845   0.39863   0.66048   0.00000  Uiso   1.00
C1014  C     0.20648   0.42118   0.66119   0.00000  Uiso   1.00
C1015  C     0.21023   0.45944   0.63948   0.00000  Uiso   1.00
C1016  C     0.25596   0.47535   0.61734   0.00000  Uiso   1.00
C1017  C     0.03694   0.54289   0.88529   0.00000  Uiso   1.00
C1018  C     0.14687   0.46708   0.95826   0.00000  Uiso   1.00
C1019  C     0.07882   0.52149   0.88790   0.00000  Uiso   1.00
C1020  C     0.12490   0.53668   0.86573   0.00000  Uiso   1.00
C1021  C     0.12937   0.57319   0.84068   0.00000  Uiso   1.00
C1022  C     0.08774   0.59467   0.83797   0.00000  Uiso   1.00
C1023  C     0.04158   0.57963   0.86020   0.00000  Uiso   1.00
C1024  C     0.23743   0.53386   0.52137   0.00000  Uiso   1.00
C1025  C     0.09940   0.45757   0.98127   0.00000  Uiso   1.00
C1026  C     0.28952   0.35461   0.75560   0.00000  Uiso   1.00
C1027  C     0.04386   0.64540   0.74413   0.00000  Uiso   1.00
C1028  C     0.28952   0.64534   0.75553   0.00000  Uiso   1.00
Cu1029 Cu    0.04689   0.50001   0.75000   0.00000  Uiso   1.00
Cu1030 Cu    0.28645   0.49999   0.75000   0.00000  Uiso   1.00
H1031  H     0.25994   0.55061   0.53852   0.00000  Uiso   1.00
H1032  H     0.07815   0.62936   0.73935   0.00000  Uiso   1.00
H1033  H     0.25524   0.62927   0.76013   0.00000  Uiso   1.00
H1034  H     0.07815   0.37073   0.73960   0.00000  Uiso   1.00
H1035  H     0.19699   0.44979   0.79573   0.00000  Uiso   1.00
H1036  H     0.13632   0.55028   0.70436   0.00000  Uiso   1.00
H1037  H     0.10991   0.44987   0.79576   0.00000  Uiso   1.00
H1038  H     0.22339   0.55021   0.70433   0.00000  Uiso   1.00
H1039  H     0.32653   0.39665   0.63781   0.00000  Uiso   1.00
H1040  H     0.24549   0.36897   0.67722   0.00000  Uiso   1.00
H1041  H     0.17108   0.40906   0.67861   0.00000  Uiso   1.00
H1042  H     0.07763   0.43930   0.96468   0.00000  Uiso   1.00
H1043  H     0.17773   0.47692   0.64016   0.00000  Uiso   1.00
H1044  H     0.25864   0.50537   0.60154   0.00000  Uiso   1.00
H1045  H     0.07563   0.49284   0.90649   0.00000  Uiso   1.00
H1046  H     0.15714   0.51998   0.86763   0.00000  Uiso   1.00
H1047  H     0.16506   0.58475   0.82329   0.00000  Uiso   1.00
H1048  H     0.09125   0.62298   0.81865   0.00000  Uiso   1.00
H1049  H     0.00955   0.59640   0.85770   0.00000  Uiso   1.00
H1050  H     0.10820   0.52286   0.61015   0.00000  Uiso   1.00
H1051  H     0.22379   0.47862   0.88911   0.00000  Uiso   1.00
H1052  H     0.32607   0.54992   0.97178   0.00000  Uiso   1.00
H1053  H     0.01048   0.44200   0.53063   0.00000  Uiso   1.00
H1054  H     0.17907   0.53514   0.57844   0.00000  Uiso   1.00
H1055  H     0.15870   0.45467   0.92498   0.00000  Uiso   1.00
H1056  H     0.25524   0.37064   0.76029   0.00000  Uiso   1.00
N1057  N     0.11736   0.50001   0.74999   0.00000  Uiso   1.00
N1058  N     0.21597   0.49999   0.75001   0.00000  Uiso   1.00
O1059  O     0.03958   0.43989   0.75000   0.00000  Uiso   1.00
O1060  O     0.29375   0.56011   0.75000   0.00000  Uiso   1.00
O1061  O     0.29372   0.43988   0.75001   0.00000  Uiso   1.00
O1062  O     0.03961   0.56012   0.75000   0.00000  Uiso   1.00
O1063  O     0.01852   0.50001   0.81492   0.00000  Uiso   1.00
O1064  O     0.31481   0.49999   0.68509   0.00000  Uiso   1.00
O1065  O     0.27267   0.50000   0.81492   0.00000  Uiso   1.00
O1066  O     0.06067   0.50000   0.68508   0.00000  Uiso   1.00
C1067  C     0.33333   0.42068   0.74998   0.00000  Uiso   1.00
C1068  C     0.37720   0.35466   0.74422   0.00000  Uiso   1.00
C1069  C     0.33335   0.62393   0.74988   0.00000  Uiso   1.00
C1070  C     0.33336   0.37608   0.74993   0.00000  Uiso   1.00
C1071  C     0.51750   0.47208   0.77533   0.00000  Uiso   1.00
C1072  C     0.48248   0.52798   0.72474   0.00000  Uiso   1.00
C1073  C     0.46787   0.47210   0.77533   0.00000  Uiso   1.00
C1074  C     0.53211   0.52796   0.72474   0.00000  Uiso   1.00
C1075  C     0.63957   0.50149   0.83607   0.00000  Uiso   1.00
C1076  C     0.36045   0.49838   0.66397   0.00000  Uiso   1.00
C1077  C     0.62505   0.50655   0.88508   0.00000  Uiso   1.00
C1078  C     0.33335   0.57932   0.74995   0.00000  Uiso   1.00
C1079  C     0.37520   0.49196   0.61519   0.00000  Uiso   1.00
C1080  C     0.63680   0.53385   0.95414   0.00000  Uiso   1.00
C1081  C     0.36568   0.45974   0.54766   0.00000  Uiso   1.00
C1082  C     0.65493   0.52653   0.90831   0.00000  Uiso   1.00
C1083  C     0.34648   0.46948   0.59280   0.00000  Uiso   1.00
C1084  C     0.57833   0.49359   0.90841   0.00000  Uiso   1.00
C1085  C     0.42190   0.50483   0.59175   0.00000  Uiso   1.00
C1086  C     0.55911   0.50155   0.95437   0.00000  Uiso   1.00
C1087  C     0.44272   0.49351   0.54692   0.00000  Uiso   1.00
C1088  C     0.58905   0.52272   0.97679   0.00000  Uiso   1.00
C1089  C     0.52312   0.52482   0.54428   0.00000  Uiso   1.00
C1090  C     0.41355   0.47065   0.52508   0.00000  Uiso   1.00
C1091  C     0.51056   0.49055   0.97820   0.00000  Uiso   1.00
C1092  C     0.49185   0.50328   0.52360   0.00000  Uiso   1.00
C1093  C     0.63149   0.45277   0.61631   0.00000  Uiso   1.00
C1094  C     0.62756   0.41431   0.63806   0.00000  Uiso   1.00
C1095  C     0.58178   0.39863   0.66048   0.00000  Uiso   1.00
C1096  C     0.53981   0.42118   0.66119   0.00000  Uiso   1.00
C1097  C     0.54356   0.45944   0.63948   0.00000  Uiso   1.00
C1098  C     0.58930   0.47535   0.61734   0.00000  Uiso   1.00
C1099  C     0.37027   0.54289   0.88529   0.00000  Uiso   1.00
C1100  C     0.48020   0.46708   0.95826   0.00000  Uiso   1.00
C1101  C     0.41216   0.52149   0.88790   0.00000  Uiso   1.00
C1102  C     0.45824   0.53668   0.86573   0.00000  Uiso   1.00
C1103  C     0.46270   0.57319   0.84068   0.00000  Uiso   1.00
C1104  C     0.42107   0.59467   0.83797   0.00000  Uiso   1.00
C1105  C     0.37492   0.57963   0.86020   0.00000  Uiso   1.00
C1106  C     0.57076   0.53386   0.52137   0.00000  Uiso   1.00
C1107  C     0.43274   0.45757   0.98127   0.00000  Uiso   1.00
C1108  C     0.62285   0.35461   0.75560   0.00000  Uiso   1.00
C1109  C     0.37720   0.64540   0.74413   0.00000  Uiso   1.00
C1110  C     0.62285   0.64534   0.75553   0.00000  Uiso   1.00
Cu1111 Cu    0.38022   0.50001   0.75000   0.00000  Uiso   1.00
Cu1112 Cu    0.61978   0.49999   0.75000   0.00000  Uiso   1.00
H1113  H     0.59327   0.55061   0.53852   0.00000  Uiso   1.00
H1114  H     0.41149   0.62936   0.73935   0.00000  Uiso   1.00
H1115  H     0.58857   0.62927   0.76013   0.00000  Uiso   1.00
H1116  H     0.41148   0.37073   0.73960   0.00000  Uiso   1.00
H1117  H     0.53032   0.44979   0.79573   0.00000  Uiso   1.00
H1118  H     0.46965   0.55028   0.70436   0.00000  Uiso   1.00
H1119  H     0.44325   0.44987   0.79576   0.00000  Uiso   1.00
H1120  H     0.55673   0.55021   0.70433   0.00000  Uiso   1.00
H1121  H     0.65986   0.39665   0.63781   0.00000  Uiso   1.00
H1122  H     0.57882   0.36897   0.67722   0.00000  Uiso   1.00
H1123  H     0.50441   0.40906   0.67861   0.00000  Uiso   1.00
H1124  H     0.41096   0.43930   0.96468   0.00000  Uiso   1.00
H1125  H     0.51106   0.47692   0.64016   0.00000  Uiso   1.00
H1126  H     0.59198   0.50537   0.60154   0.00000  Uiso   1.00
H1127  H     0.40897   0.49284   0.90649   0.00000  Uiso   1.00
H1128  H     0.49047   0.51998   0.86763   0.00000  Uiso   1.00
H1129  H     0.49839   0.58475   0.82329   0.00000  Uiso   1.00
H1130  H     0.42458   0.62298   0.81865   0.00000  Uiso   1.00
H1131  H     0.34288   0.59640   0.85770   0.00000  Uiso   1.00
H1132  H     0.44153   0.52286   0.61015   0.00000  Uiso   1.00
H1133  H     0.55712   0.47862   0.88911   0.00000  Uiso   1.00
H1134  H     0.65941   0.54992   0.97178   0.00000  Uiso   1.00
H1135  H     0.34382   0.44200   0.53063   0.00000  Uiso   1.00
H1136  H     0.51240   0.53514   0.57844   0.00000  Uiso   1.00
H1137  H     0.49203   0.45467   0.92498   0.00000  Uiso   1.00
H1138  H     0.58857   0.37064   0.76029   0.00000  Uiso   1.00
N1139  N     0.45069   0.50001   0.74999   0.00000  Uiso   1.00
N1140  N     0.54931   0.49999   0.75001   0.00000  Uiso   1.00
O1141  O     0.37291   0.43989   0.75000   0.00000  Uiso   1.00
O1142  O     0.62709   0.56011   0.75000   0.00000  Uiso   1.00
O1143  O     0.62706   0.43988   0.75001   0.00000  Uiso   1.00
O1144  O     0.37294   0.56012   0.75000   0.00000  Uiso   1.00
O1145  O     0.35186   0.50001   0.81492   0.00000  Uiso   1.00
O1146  O     0.64814   0.49999   0.68509   0.00000  Uiso   1.00
O1147  O     0.60600   0.50000   0.81492   0.00000  Uiso   1.00
O1148  O     0.39400   0.50000   0.68508   0.00000  Uiso   1.00
C1149  C     0.66667   0.42068   0.74998   0.00000  Uiso   1.00
C1150  C     0.71053   0.35466   0.74422   0.00000  Uiso   1.00
C1151  C     0.66668   0.62393   0.74988   0.00000  Uiso   1.00
C1152  C     0.66669   0.37608   0.74993   0.00000  Uiso   1.00
C1153  C     0.85083   0.47208   0.77533   0.00000  Uiso   1.00
C1154  C     0.81581   0.52798   0.72474   0.00000  Uiso   1.00
C1155  C     0.80120   0.47210   0.77533   0.00000  Uiso   1.00
C1156  C     0.86545   0.52796   0.72474   0.00000  Uiso   1.00
C1157  C     0.97290   0.50149   0.83607   0.00000  Uiso   1.00
C1158  C     0.69378   0.49838   0.66397   0.00000  Uiso   1.00
C1159  C     0.95838   0.50655   0.88508   0.00000  Uiso   1.00
C1160  C     0.66669   0.57932   0.74995   0.00000  Uiso   1.00
C1161  C     0.70854   0.49196   0.61519   0.00000  Uiso   1.00
C1162  C     0.97013   0.53385   0.95414   0.00000  Uiso   1.00
C1163  C     0.69901   0.45974   0.54766   0.00000  Uiso   1.00
C1164  C     0.98826   0.52653   0.90831   0.00000  Uiso   1.00
C1165  C     0.67981   0.46948   0.59280   0.00000  Uiso   1.00
C1166  C     0.91167   0.49359   0.90841   0.00000  Uiso   1.00
C1167  C     0.75523   0.50483   0.59175   0.00000  Uiso   1.00
C1168  C     0.89244   0.50155   0.95437   0.00000  Uiso   1.00
C1169  C     0.77605   0.49351   0.54692   0.00000  Uiso   1.00
C1170  C     0.92238   0.52272   0.97679   0.00000  Uiso   1.00
C1171  C     0.85646   0.52482   0.54428   0.00000  Uiso   1.00
C1172  C     0.74688   0.47065   0.52508   0.00000  Uiso   1.00
C1173  C     0.84389   0.49055   0.97820   0.00000  Uiso   1.00
C1174  C     0.82518   0.50328   0.52360   0.00000  Uiso   1.00
C1175  C     0.96483   0.45277   0.61631   0.00000  Uiso   1.00
C1176  C     0.96089   0.41431   0.63806   0.00000  Uiso   1.00
C1177  C     0.91511   0.39863   0.66048   0.00000  Uiso   1.00
C1178  C     0.87314   0.42118   0.66119   0.00000  Uiso   1.00
C1179  C     0.87690   0.45944   0.63948   0.00000  Uiso   1.00
C1180  C     0.92263   0.47535   0.61734   0.00000  Uiso   1.00
C1181  C     0.70360   0.54289   0.88529   0.00000  Uiso   1.00
C1182  C     0.81354   0.46708   0.95826   0.00000  Uiso   1.00
C1183  C     0.74549   0.52149   0.88790   0.00000  Uiso   1.00
C1184  C     0.79157   0.53668   0.86573   0.00000  Uiso   1.00
C1185  C     0.79603   0.57319   0.84068   0.00000  Uiso   1.00
C1186  C     0.75440   0.59467   0.83797   0.00000  Uiso   1.00
C1187  C     0.70825   0.57963   0.86020   0.00000  Uiso   1.00
C1188  C     0.90409   0.53386   0.52137   0.00000  Uiso   1.00
C1189  C     0.76607   0.45757   0.98127   0.00000  Uiso   1.00
C1190  C     0.95619   0.35461   0.75560   0.00000  Uiso   1.00
C1191  C     0.71053   0.64540   0.74413   0.00000  Uiso   1.00
C1192  C     0.95618   0.64534   0.75553   0.00000  Uiso   1.00
Cu1193 Cu    0.71355   0.50001   0.75000   0.00000  Uiso   1.00
Cu1194 Cu    0.95311   0.49999   0.75000   0.00000  Uiso   1.00
H1195  H     0.92661   0.55061   0.53852   0.00000  Uiso   1.00
H1196  H     0.74482   0.62936   0.73935   0.00000  Uiso   1.00
H1197  H     0.92190   0.62927   0.76013   0.00000  Uiso   1.00
H1198  H     0.74481   0.37073   0.73960   0.00000  Uiso   1.00
H1199  H     0.86365   0.44979   0.79573   0.00000  Uiso   1.00
H1200  H     0.80299   0.55028   0.70436   0.00000  Uiso   1.00
H1201  H     0.77658   0.44987   0.79576   0.00000  Uiso   1.00
H1202  H     0.89006   0.55021   0.70433   0.00000  Uiso   1.00
H1203  H     0.99320   0.39665   0.63781   0.00000  Uiso   1.00
H1204  H     0.91216   0.36897   0.67722   0.00000  Uiso   1.00
H1205  H     0.83774   0.40906   0.67861   0.00000  Uiso   1.00
H1206  H     0.74430   0.43930   0.96468   0.00000  Uiso   1.00
H1207  H     0.84439   0.47692   0.64016   0.00000  Uiso   1.00
H1208  H     0.92531   0.50537   0.60154   0.00000  Uiso   1.00
H1209  H     0.74230   0.49284   0.90649   0.00000  Uiso   1.00
H1210  H     0.82380   0.51998   0.86763   0.00000  Uiso   1.00
H1211  H     0.83173   0.58475   0.82329   0.00000  Uiso   1.00
H1212  H     0.75792   0.62298   0.81865   0.00000  Uiso   1.00
H1213  H     0.67622   0.59640   0.85770   0.00000  Uiso   1.00
H1214  H     0.77486   0.52286   0.61015   0.00000  Uiso   1.00
H1215  H     0.89046   0.47862   0.88911   0.00000  Uiso   1.00
H1216  H     0.99274   0.54992   0.97178   0.00000  Uiso   1.00
H1217  H     0.67715   0.44200   0.53063   0.00000  Uiso   1.00
H1218  H     0.84574   0.53514   0.57844   0.00000  Uiso   1.00
H1219  H     0.82537   0.45467   0.92498   0.00000  Uiso   1.00
H1220  H     0.92190   0.37064   0.76029   0.00000  Uiso   1.00
N1221  N     0.78403   0.50001   0.74999   0.00000  Uiso   1.00
N1222  N     0.88264   0.49999   0.75001   0.00000  Uiso   1.00
O1223  O     0.70625   0.43989   0.75000   0.00000  Uiso   1.00
O1224  O     0.96042   0.56011   0.75000   0.00000  Uiso   1.00
O1225  O     0.96039   0.43988   0.75001   0.00000  Uiso   1.00
O1226  O     0.70628   0.56012   0.75000   0.00000  Uiso   1.00
O1227  O     0.68519   0.50001   0.81492   0.00000  Uiso   1.00
O1228  O     0.98148   0.49999   0.68509   0.00000  Uiso   1.00
O1229  O     0.93933   0.50000   0.81492   0.00000  Uiso   1.00
O1230  O     0.72733   0.50000   0.68508   0.00000  Uiso   1.00
C1231  C    -0.00000   0.75402   0.74998   0.00000  Uiso   1.00
C1232  C     0.04386   0.68799   0.74422   0.00000  Uiso   1.00
C1233  C     0.00002   0.95726   0.74988   0.00000  Uiso   1.00
C1234  C     0.00002   0.70941   0.74993   0.00000  Uiso   1.00
C1235  C     0.18417   0.80541   0.77533   0.00000  Uiso   1.00
C1236  C     0.14915   0.86131   0.72474   0.00000  Uiso   1.00
C1237  C     0.13453   0.80543   0.77533   0.00000  Uiso   1.00
C1238  C     0.19878   0.86129   0.72474   0.00000  Uiso   1.00
C1239  C     0.30623   0.83483   0.83607   0.00000  Uiso   1.00
C1240  C     0.02711   0.83171   0.66397   0.00000  Uiso   1.00
C1241  C     0.29172   0.83988   0.88508   0.00000  Uiso   1.00
C1242  C     0.00002   0.91265   0.74995   0.00000  Uiso   1.00
C1243  C     0.04187   0.82529   0.61519   0.00000  Uiso   1.00
C1244  C     0.30346   0.86718   0.95414   0.00000  Uiso   1.00
C1245  C     0.03234   0.79307   0.54766   0.00000  Uiso   1.00
C1246  C     0.32159   0.85986   0.90831   0.00000  Uiso   1.00
C1247  C     0.01314   0.80281   0.59280   0.00000  Uiso   1.00
C1248  C     0.24500   0.82692   0.90841   0.00000  Uiso   1.00
C1249  C     0.08856   0.83816   0.59175   0.00000  Uiso   1.00
C1250  C     0.22577   0.83489   0.95437   0.00000  Uiso   1.00
C1251  C     0.10939   0.82684   0.54692   0.00000  Uiso   1.00
C1252  C     0.25572   0.85605   0.97679   0.00000  Uiso   1.00
C1253  C     0.18979   0.85815   0.54428   0.00000  Uiso   1.00
C1254  C     0.08021   0.80398   0.52508   0.00000  Uiso   1.00
C1255  C     0.17723   0.82388   0.97820   0.00000  Uiso   1.00
C1256  C     0.15851   0.83662   0.52360   0.00000  Uiso   1.00
C1257  C     0.29816   0.78610   0.61631   0.00000  Uiso   1.00
C1258  C     0.29422   0.74764   0.63806   0.00000  Uiso   1.00
C1259  C     0.24845   0.73196   0.66048   0.00000  Uiso   1.00
C1260  C     0.20648   0.75451   0.66119   0.00000  Uiso   1.00
C1261  C     0.21023   0.79278   0.63948   0.00000  Uiso   1.00
C1262  C     0.25596   0.80868   0.61734   0.00000  Uiso   1.00
C1263  C     0.03694   0.87622   0.88529   0.00000  Uiso   1.00
C1264  C     0.14687   0.80041   0.95826   0.00000  Uiso   1.00
C1265  C     0.07882   0.85482   0.88790   0.00000  Uiso   1.00
C1266  C     0.12490   0.87001   0.86573   0.00000  Uiso   1.00
C1267  C     0.12937   0.90652   0.84068   0.00000  Uiso   1.00
C1268  C     0.08774   0.92801   0.83797   0.00000  Uiso   1.00
C1269  C     0.04158   0.91297   0.86020   0.00000  Uiso   1.00
C1270  C     0.23743   0.86720   0.52137   0.00000  Uiso   1.00
C1271  C     0.09940   0.79090   0.98127   0.00000  Uiso   1.00
C1272  C     0.28952   0.68794   0.75560   0.00000  Uiso   1.00
C1273  C     0.04386   0.97873   0.74413   0.00000  Uiso   1.00
C1274  C     0.28952   0.97868   0.75553   0.00000  Uiso   1.00
Cu1275 Cu    0.04689   0.83334   0.75000   0.00000  Uiso   1.00
Cu1276 Cu    0.28645   0.83333   0.75000   0.00000  Uiso   1.00
H1277  H     0.25994   0.88394   0.53852   0.00000  Uiso   1.00
H1278  H     0.07815   0.96270   0.73935   0.00000  Uiso   1.00
H1279  H     0.25524   0.96261   0.76013   0.00000  Uiso   1.00
H1280  H     0.07815   0.70407   0.73960   0.00000  Uiso   1.00
H1281  H     0.19699   0.78312   0.79573   0.00000  Uiso   1.00
H1282  H     0.13632   0.88362   0.70436   0.00000  Uiso   1.00
H1283  H     0.10991   0.78320   0.79576   0.00000  Uiso   1.00
H1284  H     0.22339   0.88354   0.70433   0.00000  Uiso   1.00
H1285  H     0.32653   0.72998   0.63781   0.00000  Uiso   1.00
H1286  H     0.24549   0.70231   0.67722   0.00000  Uiso   1.00
H1287  H     0.17108   0.74239   0.67861   0.00000  Uiso   1.00
H1288  H     0.07763   0.77263   0.96468   0.00000  Uiso   1.00
H1289  H     0.17773   0.81025   0.64016   0.00000  Uiso   1.00
H1290  H     0.25864   0.83871   0.60154   0.00000  Uiso   1.00
H1291  H     0.07563   0.82617   0.90649   0.00000  Uiso   1.00
H1292  H     0.15714   0.85331   0.86763   0.00000  Uiso   1.00
H1293  H     0.16506   0.91808   0.82329   0.00000  Uiso   1.00
H1294  H     0.09125   0.95631   0.81865   0.00000  Uiso   1.00
H1295  H     0.00955   0.92973   0.85770   0.00000  Uiso   1.00
H1296  H     0.10820   0.85619   0.61015   0.00000  Uiso   1.00
H1297  H     0.22379   0.81196   0.88911   0.00000  Uiso   1.00
H1298  H     0.32607   0.88326   0.97178   0.00000  Uiso   1.00
H1299  H     0.01048   0.77533   0.53063   0.00000  Uiso   1.00
H1300  H     0.17907   0.86847   0.57844   0.00000  Uiso   1.00
H1301  H     0.15870   0.78800   0.92498   0.00000  Uiso   1.00
H1302  H     0.25524   0.70397   0.76029   0.00000  Uiso   1.00
N1303  N     0.11736   0.83334   0.74999   0.00000  Uiso   1.00
N1304  N     0.21597   0.83332   0.75001   0.00000  Uiso   1.00
O1305  O     0.03958   0.77322   0.75000   0.00000  Uiso   1.00
O1306  O     0.29375   0.89345   0.75000   0.00000  Uiso   1.00
O1307  O     0.29372   0.77321   0.75001   0.00000  Uiso   1.00
O1308  O     0.03961   0.89346   0.75000   0.00000  Uiso   1.00
O1309  O     0.01852   0.83334   0.81492   0.00000  Uiso   1.00
O1310  O     0.31481   0.83332   0.68509   0.00000  Uiso   1.00
O1311  O     0.27267   0.83333   0.81492   0.00000  Uiso   1.00
O1312  O     0.06067   0.83333   0.68508   0.00000  Uiso   1.00
C1313  C     0.33333   0.75402   0.74998   0.00000  Uiso   1.00
C1314  C     0.37720   0.68799   0.74422   0.00000  Uiso   1.00
C1315  C     0.33335   0.95726   0.74988   0.00000  Uiso   1.00
C1316  C     0.33336   0.70941   0.74993   0.00000  Uiso   1.00
C1317  C     0.51750   0.80541   0.77533   0.00000  Uiso   1.00
C1318  C     0.48248   0.86131   0.72474   0.00000  Uiso   1.00
C1319  C     0.46787   0.80543   0.77533   0.00000  Uiso   1.00
C1320  C     0.53211   0.86129   0.72474   0.00000  Uiso   1.00
C1321  C     0.63957   0.83483   0.83607   0.00000  Uiso   1.00
C1322  C     0.36045   0.83171   0.66397   0.00000  Uiso   1.00
C1323  C     0.62505   0.83988   0.88508   0.00000  Uiso   1.00
C1324  C     0.33335   0.91265   0.74995   0.00000  Uiso   1.00
C1325  C     0.37520   0.82529   0.61519   0.00000  Uiso   1.00
C1326  C     0.63680   0.86718   0.95414   0.00000  Uiso   1.00
C1327  C     0.36568   0.79307   0.54766   0.00000  Uiso   1.00
C1328  C     0.65493   0.85986   0.90831   0.00000  Uiso   1.00
C1329  C     0.34648   0.80281   0.59280   0.00000  Uiso   1.00
C1330  C     0.57833   0.82692   0.90841   0.00000  Uiso   1.00
C1331  C     0.42190   0.83816   0.59175   0.00000  Uiso   1.00
C1332  C     0.55911   0.83489   0.95437   0.00000  Uiso   1.00
C1333  C     0.44272   0.82684   0.54692   0.00000  Uiso   1.00
C1334  C     0.58905   0.85605   0.97679   0.00000  Uiso   1.00
C1335  C     0.52312   0.85815   0.54428   0.00000  Uiso   1.00
C1336  C     0.41355   0.80398   0.52508   0.00000  Uiso   1.00
C1337  C     0.51056   0.82388   0.97820   0.00000  Uiso   1.00
C1338  C     0.49185   0.83662   0.52360   0.00000  Uiso   1.00
C1339  C     0.63149   0.78610   0.61631   0.00000  Uiso   1.00
C1340  C     0.62756   0.74764   0.63806   0.00000  Uiso   1.00
C1341  C     0.58178   0.73196   0.66048   0.00000  Uiso   1.00
C1342  C     0.53981   0.75451   0.66119   0.00000  Uiso   1.00
C1343  C     0.54356   0.79278   0.63948   0.00000  Uiso   1.00
C1344  C     0.58930   0.80868   0.61734   0.00000  Uiso   1.00
C1345  C     0.37027   0.87622   0.88529   0.00000  Uiso   1.00
C1346  C     0.48020   0.80041   0.95826   0.00000  Uiso   1.00
C1347  C     0.41216   0.85482   0.88790   0.00000  Uiso   1.00
C1348  C     0.45824   0.87001   0.86573   0.00000  Uiso   1.00
C1349  C     0.46270   0.90652   0.84068   0.00000  Uiso   1.00
C1350  C     0.42107   0.92801   0.83797   0.00000  Uiso   1.00
C1351  C     0.37492   0.91297   0.86020   0.00000  Uiso   1.00
C1352  C     0.57076   0.86720   0.52137   0.00000  Uiso   1.00
C1353  C     0.43274   0.79090   0.98127   0.00000  Uiso   1.00
C1354  C     0.62285   0.68794   0.75560   0.00000  Uiso   1.00
C1355  C     0.37720   0.97873   0.74413   0.00000  Uiso   1.00
C1356  C     0.62285   0.97868   0.75553   0.00000  Uiso   1.00
Cu1357 Cu    0.38022   0.83334   0.75000   0.00000  Uiso   1.00
Cu1358 Cu    0.61978   0.83333   0.75000   0.00000  Uiso   1.00
H1359  H     0.59327   0.88394   0.53852   0.00000  Uiso   1.00
H1360  H     0.41149   0.96270   0.73935   0.00000  Uiso   1.00
H1361  H     0.58857   0.96261   0.76013   0.00000  Uiso   1.00
H1362  H     0.41148   0.70407   0.73960   0.00000  Uiso   1.00
H1363  H     0.53032   0.78312   0.79573   0.00000  Uiso   1.00
H1364  H     0.46965   0.88362   0.70436   0.00000  Uiso   1.00
H1365  H     0.44325   0.78320   0.79576   0.00000  Uiso   1.00
H1366  H     0.55673   0.88354   0.70433   0.00000  Uiso   1.00
H1367  H     0.65986   0.72998   0.63781   0.00000  Uiso   1.00
H1368  H     0.57882   0.70231   0.67722   0.00000  Uiso   1.00
H1369  H     0.50441   0.74239   0.67861   0.00000  Uiso   1.00
H1370  H     0.41096   0.77263   0.96468   0.00000  Uiso   1.00
H1371  H     0.51106   0.81025   0.64016   0.00000  Uiso   1.00
H1372  H     0.59198   0.83871   0.60154   0.00000  Uiso   1.00
H1373  H     0.40897   0.82617   0.90649   0.00000  Uiso   1.00
H1374  H     0.49047   0.85331   0.86763   0.00000  Uiso   1.00
H1375  H     0.49839   0.91808   0.82329   0.00000  Uiso   1.00
H1376  H     0.42458   0.95631   0.81865   0.00000  Uiso   1.00
H1377  H     0.34288   0.92973   0.85770   0.00000  Uiso   1.00
H1378  H     0.44153   0.85619   0.61015   0.00000  Uiso   1.00
H1379  H     0.55712   0.81196   0.88911   0.00000  Uiso   1.00
H1380  H     0.65941   0.88326   0.97178   0.00000  Uiso   1.00
H1381  H     0.34382   0.77533   0.53063   0.00000  Uiso   1.00
H1382  H     0.51240   0.86847   0.57844   0.00000  Uiso   1.00
H1383  H     0.49203   0.78800   0.92498   0.00000  Uiso   1.00
H1384  H     0.58857   0.70397   0.76029   0.00000  Uiso   1.00
N1385  N     0.45069   0.83334   0.74999   0.00000  Uiso   1.00
N1386  N     0.54931   0.83332   0.75001   0.00000  Uiso   1.00
O1387  O     0.37291   0.77322   0.75000   0.00000  Uiso   1.00
O1388  O     0.62709   0.89345   0.75000   0.00000  Uiso   1.00
O1389  O     0.62706   0.77321   0.75001   0.00000  Uiso   1.00
O1390  O     0.37294   0.89346   0.75000   0.00000  Uiso   1.00
O1391  O     0.35186   0.83334   0.81492   0.00000  Uiso   1.00
O1392  O     0.64814   0.83332   0.68509   0.00000  Uiso   1.00
O1393  O     0.60600   0.83333   0.81492   0.00000  Uiso   1.00
O1394  O     0.39400   0.83333   0.68508   0.00000  Uiso   1.00
C1395  C     0.66667   0.75402   0.74998   0.00000  Uiso   1.00
C1396  C     0.71053   0.68799   0.74422   0.00000  Uiso   1.00
C1397  C     0.66668   0.95726   0.74988   0.00000  Uiso   1.00
C1398  C     0.66669   0.70941   0.74993   0.00000  Uiso   1.00
C1399  C     0.85083   0.80541   0.77533   0.00000  Uiso   1.00
C1400  C     0.81581   0.86131   0.72474   0.00000  Uiso   1.00
C1401  C     0.80120   0.80543   0.77533   0.00000  Uiso   1.00
C1402  C     0.86545   0.86129   0.72474   0.00000  Uiso   1.00
C1403  C     0.97290   0.83483   0.83607   0.00000  Uiso   1.00
C1404  C     0.69378   0.83171   0.66397   0.00000  Uiso   1.00
C1405  C     0.95838   0.83988   0.88508   0.00000  Uiso   1.00
C1406  C     0.66669   0.91265   0.74995   0.00000  Uiso   1.00
C1407  C     0.70854   0.82529   0.61519   0.00000  Uiso   1.00
C1408  C     0.97013   0.86718   0.95414   0.00000  Uiso   1.00
C1409  C     0.69901   0.79307   0.54766   0.00000  Uiso   1.00
C1410  C     0.98826   0.85986   0.90831   0.00000  Uiso   1.00
C1411  C     0.67981   0.80281   0.59280   0.00000  Uiso   1.00
C1412  C     0.91167   0.82692   0.90841   0.00000  Uiso   1.00
C1413  C     0.75523   0.83816   0.59175   0.00000  Uiso   1.00
C1414  C     0.89244   0.83489   0.95437   0.00000  Uiso   1.00
C1415  C     0.77605   0.82684   0.54692   0.00000  Uiso   1.00
C1416  C     0.92238   0.85605   0.97679   0.00000  Uiso   1.00
C1417  C     0.85646   0.85815   0.54428   0.00000  Uiso   1.00
C1418  C     0.74688   0.80398   0.52508   0.00000  Uiso   1.00
C1419  C     0.84389   0.82388   0.97820   0.00000  Uiso   1.00
C1420  C     0.82518   0.83662   0.52360   0.00000  Uiso   1.00
C1421  C     0.96483   0.78610   0.61631   0.00000  Uiso   1.00
C1422  C     0.96089   0.74764   0.63806   0.00000  Uiso   1.00
C1423  C     0.91511   0.73196   0.66048   0.00000  Uiso   1.00
C1424  C     0.87314   0.75451   0.66119   0.00000  Uiso   1.00
C1425  C     0.87690   0.79278   0.63948   0.00000  Uiso   1.00
C1426  C     0.92263   0.80868   0.61734   0.00000  Uiso   1.00
C1427  C     0.70360   0.87622   0.88529   0.00000  Uiso   1.00
C1428  C     0.81354   0.80041   0.95826   0.00000  Uiso   1.00
C1429  C     0.74549   0.85482   0.88790   0.00000  Uiso   1.00
C1430  C     0.79157   0.87001   0.86573   0.00000  Uiso   1.00
C1431  C     0.79603   0.90652   0.84068   0.00000  Uiso   1.00
C1432  C     0.75440   0.92801   0.83797   0.00000  Uiso   1.00
C1433  C     0.70825   0.91297   0.86020   0.00000  Uiso   1.00
C1434  C     0.90409   0.86720   0.52137   0.00000  Uiso   1.00
C1435  C     0.76607   0.79090   0.98127   0.00000  Uiso   1.00
C1436  C     0.95619   0.68794   0.75560   0.00000  Uiso   1.00
C1437  C     0.71053   0.97873   0.74413   0.00000  Uiso   1.00
C1438  C     0.95618   0.97868   0.75553   0.00000  Uiso   1.00
Cu1439 Cu    0.71355   0.83334   0.75000   0.00000  Uiso   1.00
Cu1440 Cu    0.95311   0.83333   0.75000   0.00000  Uiso   1.00
H1441  H     0.92661   0.88394   0.53852   0.00000  Uiso   1.00
H1442  H     0.74482   0.96270   0.73935   0.00000  Uiso   1.00
H1443  H     0.92190   0.96261   0.76013   0.00000  Uiso   1.00
H1444  H     0.74481   0.70407   0.73960   0.00000  Uiso   1.00
H1445  H     0.86365   0.78312   0.79573   0.00000  Uiso   1.00
H1446  H     0.80299   0.88362   0.70436   0.00000  Uiso   1.00
H1447  H     0.77658   0.78320   0.79576   0.00000  Uiso   1.00
H1448  H     0.89006   0.88354   0.70433   0.00000  Uiso   1.00
H1449  H     0.99320   0.72998   0.63781   0.00000  Uiso   1.00
H1450  H     0.91216   0.70231   0.67722   0.00000  Uiso   1.00
H1451  H     0.83774   0.74239   0.67861   0.00000  Uiso   1.00
H1452  H     0.74430   0.77263   0.96468   0.00000  Uiso   1.00
H1453  H     0.84439   0.81025   0.64016   0.00000  Uiso   1.00
H1454  H     0.92531   0.83871   0.60154   0.00000  Uiso   1.00
H1455  H     0.74230   0.82617   0.90649   0.00000  Uiso   1.00
H1456  H     0.82380   0.85331   0.86763   0.00000  Uiso   1.00
H1457  H     0.83173   0.91808   0.82329   0.00000  Uiso   1.00
H1458  H     0.75792   0.95631   0.81865   0.00000  Uiso   1.00
H1459  H     0.67622   0.92973   0.85770   0.00000  Uiso   1.00
H1460  H     0.77486   0.85619   0.61015   0.00000  Uiso   1.00
H1461  H     0.89046   0.81196   0.88911   0.00000  Uiso   1.00
H1462  H     0.99274   0.88326   0.97178   0.00000  Uiso   1.00
H1463  H     0.67715   0.77533   0.53063   0.00000  Uiso   1.00
H1464  H     0.84574   0.86847   0.57844   0.00000  Uiso   1.00
H1465  H     0.82537   0.78800   0.92498   0.00000  Uiso   1.00
H1466  H     0.92190   0.70397   0.76029   0.00000  Uiso   1.00
N1467  N     0.78403   0.83334   0.74999   0.00000  Uiso   1.00
N1468  N     0.88264   0.83332   0.75001   0.00000  Uiso   1.00
O1469  O     0.70625   0.77322   0.75000   0.00000  Uiso   1.00
O1470  O     0.96042   0.89345   0.75000   0.00000  Uiso   1.00
O1471  O     0.96039   0.77321   0.75001   0.00000  Uiso   1.00
O1472  O     0.70628   0.89346   0.75000   0.00000  Uiso   1.00
O1473  O     0.68519   0.83334   0.81492   0.00000  Uiso   1.00
O1474  O     0.98148   0.83332   0.68509   0.00000  Uiso   1.00
O1475  O     0.93933   0.83333   0.81492   0.00000  Uiso   1.00
O1476  O     0.72733   0.83333   0.68508   0.00000  Uiso   1.00
loop_
_geom_bond_atom_site_label_1
_geom_bond_atom_site_label_2
_geom_bond_distance
_geom_bond_site_symmetry_2
_ccdc_geom_bond_type
C1     O241    1.290   1_455 A
C1     C4      1.448   .     S
C1     O75     1.290   .     S
C2     H50     1.083   .     S
C2     C4      1.401   .     A
C2     C535    1.383   1_545 S
C3     C43     1.401   .     A
C3     C12     1.448   .     S
C3     C208    1.401   1_455 S
C4     C206    1.401   1_455 S
C5     N74     1.367   .     A
C5     C7      1.416   .     A
C5     H51     1.082   .     S
C6     C8      1.416   .     A
C6     N73     1.367   .     A
C6     H52     1.082   .     S
C7     N73     1.366   .     A
C7     H53     1.082   .     S
C8     H54     1.082   .     S
C8     N74     1.366   .     A
C9     C11     1.471   .     S
C9     O81     1.296   .     A
C9     O161    1.293   .     S
C10    O82     1.295   .     A
C10    C13     1.470   .     S
C10    O244    1.293   1_455 S
C11    C18     1.399   .     A
C11    C16     1.413   .     A
C12    O78     1.290   .     A
C12    O240    1.290   1_455 S
C13    C19     1.398   .     A
C13    C17     1.412   .     A
C14    C16     1.396   .     A
C14    C22     1.402   .     A
C14    H68     1.085   .     S
C15    H69     1.085   .     S
C15    C24     1.402   .     A
C15    C17     1.396   .     A
C16    C115    1.478   .     S
C17    C191    1.477   1_455 S
C18    H67     1.075   .     S
C18    C20     1.407   .     A
C19    C21     1.407   .     A
C19    H66     1.075   .     S
C20    C25     1.429   .     A
C20    C22     1.416   .     A
C21    C26     1.429   .     A
C21    C24     1.417   .     A
C22    C778    1.388   .     S
C23    C40     1.385   .     A
C23    C26     1.416   .     A
C23    H70     1.075   .     S
C24    C779    1.389   1_554 S
C25    C34     1.415   .     A
C25    C764    1.427   .     S
C26    C763    1.427   1_554 S
C27    C32     1.402   .     A
C27    C28     1.404   .     A
C27    C99     1.477   .     S
C28    C29     1.399   .     A
C28    H55     1.083   .     S
C29    C30     1.398   .     A
C29    H56     1.082   .     S
C30    C31     1.398   .     A
C30    H57     1.083   .     S
C31    H59     1.082   .     S
C31    C32     1.399   .     A
C32    H60     1.080   .     S
C33    C39     1.404   .     A
C33    C35     1.402   .     A
C33    C180    1.478   1_455 S
C34    C41     1.385   .     A
C34    H71     1.076   .     S
C35    C36     1.398   .     A
C35    H61     1.080   .     S
C36    H62     1.082   .     S
C36    C37     1.398   .     A
C37    H63     1.083   .     S
C37    C38     1.398   .     A
C38    H64     1.082   .     S
C38    C39     1.399   .     A
C39    H65     1.083   .     S
C40    H47     1.084   .     S
C40    C760    1.388   1_554 S
C41    H58     1.084   .     S
C41    C762    1.389   .     S
C42    H72     1.083   .     S
C42    C86     1.401   .     S
C42    C536    1.383   1_545 S
C43    H48     1.083   .     S
C43    C248    1.383   .     S
C44    H49     1.083   .     S
C44    C85     1.401   .     S
C44    C288    1.383   .     S
Cu45   O82     1.940   .     S
Cu45   N73     2.010   .     S
Cu45   O78     1.963   .     S
Cu45   O79     1.954   .     S
Cu45   O75     1.963   .     S
Cu45   Cu210   2.675   1_455 S
Cu46   O76     1.963   .     S
Cu46   O81     1.940   .     S
Cu46   N74     2.010   .     S
Cu46   O77     1.963   .     S
Cu46   O80     1.954   .     S
Cu46   Cu127   2.675   .     S
O76    C94     1.290   .     S
O77    C83     1.290   .     A
O79    C173    1.293   1_455 S
O80    C92     1.293   .     S
C83    C86     1.448   .     S
C83    O157    1.290   .     S
C84    H132    1.083   .     S
C84    C86     1.401   .     A
C84    C617    1.383   1_545 S
C85    C125    1.401   .     A
C85    C94     1.448   .     S
C87    N156    1.367   .     A
C87    C89     1.416   .     A
C87    H133    1.082   .     S
C88    C90     1.416   .     A
C88    N155    1.367   .     A
C88    H134    1.082   .     S
C89    N155    1.366   .     A
C89    H135    1.082   .     S
C90    H136    1.082   .     S
C90    N156    1.366   .     A
C91    C93     1.471   .     S
C91    O163    1.296   .     A
C91    O243    1.293   .     S
C92    O164    1.295   .     A
C92    C95     1.470   .     S
C93    C100    1.399   .     A
C93    C98     1.413   .     A
C94    O160    1.290   .     A
C95    C101    1.398   .     A
C95    C99     1.412   .     A
C96    C98     1.396   .     A
C96    C104    1.402   .     A
C96    H150    1.085   .     S
C97    H151    1.085   .     S
C97    C106    1.402   .     A
C97    C99     1.396   .     A
C98    C197    1.478   .     S
C100   H149    1.075   .     S
C100   C102    1.407   .     A
C101   C103    1.407   .     A
C101   H148    1.075   .     S
C102   C107    1.429   .     A
C102   C104    1.416   .     A
C103   C108    1.429   .     A
C103   C106    1.417   .     A
C104   C860    1.388   .     S
C105   C122    1.385   .     A
C105   C108    1.416   .     A
C105   H152    1.075   .     S
C106   C861    1.389   1_554 S
C107   C116    1.415   .     A
C107   C846    1.427   .     S
C108   C845    1.427   1_554 S
C109   C114    1.402   .     A
C109   C110    1.404   .     A
C109   C181    1.477   .     S
C110   C111    1.399   .     A
C110   H137    1.083   .     S
C111   C112    1.398   .     A
C111   H138    1.082   .     S
C112   C113    1.398   .     A
C112   H139    1.083   .     S
C113   H141    1.082   .     S
C113   C114    1.399   .     A
C114   H142    1.080   .     S
C115   C121    1.404   .     A
C115   C117    1.402   .     A
C116   C123    1.385   .     A
C116   H153    1.076   .     S
C117   C118    1.398   .     A
C117   H143    1.080   .     S
C118   H144    1.082   .     S
C118   C119    1.398   .     A
C119   H145    1.083   .     S
C119   C120    1.398   .     A
C120   H146    1.082   .     S
C120   C121    1.399   .     A
C121   H147    1.083   .     S
C122   H129    1.084   .     S
C122   C842    1.388   1_554 S
C123   H140    1.084   .     S
C123   C844    1.389   .     S
C124   H154    1.083   .     S
C124   C168    1.401   .     S
C124   C618    1.383   1_545 S
C125   H130    1.083   .     S
C125   C330    1.383   .     S
C126   H131    1.083   .     S
C126   C167    1.401   .     S
C126   C370    1.383   .     S
Cu127  O164    1.940   .     S
Cu127  N155    2.010   .     S
Cu127  O160    1.963   .     S
Cu127  O161    1.954   .     S
Cu127  O157    1.963   .     S
Cu128  O158    1.963   .     S
Cu128  O163    1.940   .     S
Cu128  N156    2.010   .     S
Cu128  O159    1.963   .     S
Cu128  O162    1.954   .     S
Cu128  Cu209   2.675   .     S
O158   C176    1.290   .     S
O159   C165    1.290   .     A
O162   C174    1.293   .     S
C165   C168    1.448   .     S
C165   O239    1.290   .     S
C166   H214    1.083   .     S
C166   C168    1.401   .     A
C166   C699    1.383   1_545 S
C167   C207    1.401   .     A
C167   C176    1.448   .     S
C169   N238    1.367   .     A
C169   C171    1.416   .     A
C169   H215    1.082   .     S
C170   C172    1.416   .     A
C170   N237    1.367   .     A
C170   H216    1.082   .     S
C171   N237    1.366   .     A
C171   H217    1.082   .     S
C172   H218    1.082   .     S
C172   N238    1.366   .     A
C173   C175    1.471   .     S
C173   O245    1.296   .     A
C173   O79     1.293   1_655 S
C174   O246    1.295   .     A
C174   C177    1.470   .     S
C175   C182    1.399   .     A
C175   C180    1.413   .     A
C176   O242    1.290   .     A
C177   C183    1.398   .     A
C177   C181    1.412   .     A
C178   C180    1.396   .     A
C178   C186    1.402   .     A
C178   H232    1.085   .     S
C179   H233    1.085   .     S
C179   C188    1.402   .     A
C179   C181    1.396   .     A
C180   C33     1.478   1_655 S
C182   H231    1.075   .     S
C182   C184    1.407   .     A
C183   C185    1.407   .     A
C183   H230    1.075   .     S
C184   C189    1.429   .     A
C184   C186    1.416   .     A
C185   C190    1.429   .     A
C185   C188    1.417   .     A
C186   C942    1.388   .     S
C187   C204    1.385   .     A
C187   C190    1.416   .     A
C187   H234    1.075   .     S
C188   C943    1.389   1_554 S
C189   C198    1.415   .     A
C189   C928    1.427   .     S
C190   C927    1.427   1_554 S
C191   C196    1.402   .     A
C191   C192    1.404   .     A
C191   C17     1.477   1_655 S
C192   C193    1.399   .     A
C192   H219    1.083   .     S
C193   C194    1.398   .     A
C193   H220    1.082   .     S
C194   C195    1.398   .     A
C194   H221    1.083   .     S
C195   H223    1.082   .     S
C195   C196    1.399   .     A
C196   H224    1.080   .     S
C197   C203    1.404   .     A
C197   C199    1.402   .     A
C198   C205    1.385   .     A
C198   H235    1.076   .     S
C199   C200    1.398   .     A
C199   H225    1.080   .     S
C200   H226    1.082   .     S
C200   C201    1.398   .     A
C201   H227    1.083   .     S
C201   C202    1.398   .     A
C202   H228    1.082   .     S
C202   C203    1.399   .     A
C203   H229    1.083   .     S
C204   H211    1.084   .     S
C204   C924    1.388   1_554 S
C205   H222    1.084   .     S
C205   C926    1.389   .     S
C206   H236    1.083   .     S
C206   C4      1.401   1_655 S
C206   C700    1.383   1_545 S
C207   H212    1.083   .     S
C207   C412    1.383   .     S
C208   H213    1.083   .     S
C208   C3      1.401   1_655 S
C208   C452    1.383   .     S
Cu209  O246    1.940   .     S
Cu209  N237    2.010   .     S
Cu209  O242    1.963   .     S
Cu209  O243    1.954   .     S
Cu209  O239    1.963   .     S
Cu210  O240    1.963   .     S
Cu210  O245    1.940   .     S
Cu210  N238    2.010   .     S
Cu210  O241    1.963   .     S
Cu210  O244    1.954   .     S
Cu210  Cu45    2.675   1_655 S
O240   C12     1.290   1_655 S
O241   C1      1.290   1_655 A
O244   C10     1.293   1_655 S
C247   O487    1.290   1_455 A
C247   C250    1.448   .     S
C247   O321    1.290   .     S
C248   H296    1.083   .     S
C248   C250    1.401   .     A
C249   C289    1.401   .     A
C249   C258    1.448   .     S
C249   C454    1.401   1_455 S
C250   C452    1.401   1_455 S
C251   N320    1.367   .     A
C251   C253    1.416   .     A
C251   H297    1.082   .     S
C252   C254    1.416   .     A
C252   N319    1.367   .     A
C252   H298    1.082   .     S
C253   N319    1.366   .     A
C253   H299    1.082   .     S
C254   H300    1.082   .     S
C254   N320    1.366   .     A
C255   C257    1.471   .     S
C255   O327    1.296   .     A
C255   O407    1.293   .     S
C256   O328    1.295   .     A
C256   C259    1.470   .     S
C256   O490    1.293   1_455 S
C257   C264    1.399   .     A
C257   C262    1.413   .     A
C258   O324    1.290   .     A
C258   O486    1.290   1_455 S
C259   C265    1.398   .     A
C259   C263    1.412   .     A
C260   C262    1.396   .     A
C260   C268    1.402   .     A
C260   H314    1.085   .     S
C261   H315    1.085   .     S
C261   C270    1.402   .     A
C261   C263    1.396   .     A
C262   C361    1.478   .     S
C263   C437    1.477   1_455 S
C264   H313    1.075   .     S
C264   C266    1.407   .     A
C265   C267    1.407   .     A
C265   H312    1.075   .     S
C266   C271    1.429   .     A
C266   C268    1.416   .     A
C267   C272    1.429   .     A
C267   C270    1.417   .     A
C268   C1024   1.388   .     S
C269   C286    1.385   .     A
C269   C272    1.416   .     A
C269   H316    1.075   .     S
C270   C1025   1.389   1_554 S
C271   C280    1.415   .     A
C271   C1010   1.427   .     S
C272   C1009   1.427   1_554 S
C273   C278    1.402   .     A
C273   C274    1.404   .     A
C273   C345    1.477   .     S
C274   C275    1.399   .     A
C274   H301    1.083   .     S
C275   C276    1.398   .     A
C275   H302    1.082   .     S
C276   C277    1.398   .     A
C276   H303    1.083   .     S
C277   H305    1.082   .     S
C277   C278    1.399   .     A
C278   H306    1.080   .     S
C279   C285    1.404   .     A
C279   C281    1.402   .     A
C279   C426    1.478   1_455 S
C280   C287    1.385   .     A
C280   H317    1.076   .     S
C281   C282    1.398   .     A
C281   H307    1.080   .     S
C282   H308    1.082   .     S
C282   C283    1.398   .     A
C283   H309    1.083   .     S
C283   C284    1.398   .     A
C284   H310    1.082   .     S
C284   C285    1.399   .     A
C285   H311    1.083   .     S
C286   H293    1.084   .     S
C286   C1006   1.388   1_554 S
C287   H304    1.084   .     S
C287   C1008   1.389   .     S
C288   H318    1.083   .     S
C288   C332    1.401   .     S
C289   H294    1.083   .     S
C289   C494    1.383   .     S
C290   H295    1.083   .     S
C290   C331    1.401   .     S
C290   C534    1.383   .     S
Cu291  O328    1.940   .     S
Cu291  N319    2.010   .     S
Cu291  O324    1.963   .     S
Cu291  O325    1.954   .     S
Cu291  O321    1.963   .     S
Cu291  Cu456   2.675   1_455 S
Cu292  O322    1.963   .     S
Cu292  O327    1.940   .     S
Cu292  N320    2.010   .     S
Cu292  O323    1.963   .     S
Cu292  O326    1.954   .     S
Cu292  Cu373   2.675   .     S
O322   C340    1.290   .     S
O323   C329    1.290   .     A
O325   C419    1.293   1_455 S
O326   C338    1.293   .     S
C329   C332    1.448   .     S
C329   O403    1.290   .     S
C330   H378    1.083   .     S
C330   C332    1.401   .     A
C331   C371    1.401   .     A
C331   C340    1.448   .     S
C333   N402    1.367   .     A
C333   C335    1.416   .     A
C333   H379    1.082   .     S
C334   C336    1.416   .     A
C334   N401    1.367   .     A
C334   H380    1.082   .     S
C335   N401    1.366   .     A
C335   H381    1.082   .     S
C336   H382    1.082   .     S
C336   N402    1.366   .     A
C337   C339    1.471   .     S
C337   O409    1.296   .     A
C337   O489    1.293   .     S
C338   O410    1.295   .     A
C338   C341    1.470   .     S
C339   C346    1.399   .     A
C339   C344    1.413   .     A
C340   O406    1.290   .     A
C341   C347    1.398   .     A
C341   C345    1.412   .     A
C342   C344    1.396   .     A
C342   C350    1.402   .     A
C342   H396    1.085   .     S
C343   H397    1.085   .     S
C343   C352    1.402   .     A
C343   C345    1.396   .     A
C344   C443    1.478   .     S
C346   H395    1.075   .     S
C346   C348    1.407   .     A
C347   C349    1.407   .     A
C347   H394    1.075   .     S
C348   C353    1.429   .     A
C348   C350    1.416   .     A
C349   C354    1.429   .     A
C349   C352    1.417   .     A
C350   C1106   1.388   .     S
C351   C368    1.385   .     A
C351   C354    1.416   .     A
C351   H398    1.075   .     S
C352   C1107   1.389   1_554 S
C353   C362    1.415   .     A
C353   C1092   1.427   .     S
C354   C1091   1.427   1_554 S
C355   C360    1.402   .     A
C355   C356    1.404   .     A
C355   C427    1.477   .     S
C356   C357    1.399   .     A
C356   H383    1.083   .     S
C357   C358    1.398   .     A
C357   H384    1.082   .     S
C358   C359    1.398   .     A
C358   H385    1.083   .     S
C359   H387    1.082   .     S
C359   C360    1.399   .     A
C360   H388    1.080   .     S
C361   C367    1.404   .     A
C361   C363    1.402   .     A
C362   C369    1.385   .     A
C362   H399    1.076   .     S
C363   C364    1.398   .     A
C363   H389    1.080   .     S
C364   H390    1.082   .     S
C364   C365    1.398   .     A
C365   H391    1.083   .     S
C365   C366    1.398   .     A
C366   H392    1.082   .     S
C366   C367    1.399   .     A
C367   H393    1.083   .     S
C368   H375    1.084   .     S
C368   C1088   1.388   1_554 S
C369   H386    1.084   .     S
C369   C1090   1.389   .     S
C370   H400    1.083   .     S
C370   C414    1.401   .     S
C371   H376    1.083   .     S
C371   C576    1.383   .     S
C372   H377    1.083   .     S
C372   C413    1.401   .     S
C372   C616    1.383   .     S
Cu373  O410    1.940   .     S
Cu373  N401    2.010   .     S
Cu373  O406    1.963   .     S
Cu373  O407    1.954   .     S
Cu373  O403    1.963   .     S
Cu374  O404    1.963   .     S
Cu374  O409    1.940   .     S
Cu374  N402    2.010   .     S
Cu374  O405    1.963   .     S
Cu374  O408    1.954   .     S
Cu374  Cu455   2.675   .     S
O404   C422    1.290   .     S
O405   C411    1.290   .     A
O408   C420    1.293   .     S
C411   C414    1.448   .     S
C411   O485    1.290   .     S
C412   H460    1.083   .     S
C412   C414    1.401   .     A
C413   C453    1.401   .     A
C413   C422    1.448   .     S
C415   N484    1.367   .     A
C415   C417    1.416   .     A
C415   H461    1.082   .     S
C416   C418    1.416   .     A
C416   N483    1.367   .     A
C416   H462    1.082   .     S
C417   N483    1.366   .     A
C417   H463    1.082   .     S
C418   H464    1.082   .     S
C418   N484    1.366   .     A
C419   C421    1.471   .     S
C419   O491    1.296   .     A
C419   O325    1.293   1_655 S
C420   O492    1.295   .     A
C420   C423    1.470   .     S
C421   C428    1.399   .     A
C421   C426    1.413   .     A
C422   O488    1.290   .     A
C423   C429    1.398   .     A
C423   C427    1.412   .     A
C424   C426    1.396   .     A
C424   C432    1.402   .     A
C424   H478    1.085   .     S
C425   H479    1.085   .     S
C425   C434    1.402   .     A
C425   C427    1.396   .     A
C426   C279    1.478   1_655 S
C428   H477    1.075   .     S
C428   C430    1.407   .     A
C429   C431    1.407   .     A
C429   H476    1.075   .     S
C430   C435    1.429   .     A
C430   C432    1.416   .     A
C431   C436    1.429   .     A
C431   C434    1.417   .     A
C432   C1188   1.388   .     S
C433   C450    1.385   .     A
C433   C436    1.416   .     A
C433   H480    1.075   .     S
C434   C1189   1.389   1_554 S
C435   C444    1.415   .     A
C435   C1174   1.427   .     S
C436   C1173   1.427   1_554 S
C437   C442    1.402   .     A
C437   C438    1.404   .     A
C437   C263    1.477   1_655 S
C438   C439    1.399   .     A
C438   H465    1.083   .     S
C439   C440    1.398   .     A
C439   H466    1.082   .     S
C440   C441    1.398   .     A
C440   H467    1.083   .     S
C441   H469    1.082   .     S
C441   C442    1.399   .     A
C442   H470    1.080   .     S
C443   C449    1.404   .     A
C443   C445    1.402   .     A
C444   C451    1.385   .     A
C444   H481    1.076   .     S
C445   C446    1.398   .     A
C445   H471    1.080   .     S
C446   H472    1.082   .     S
C446   C447    1.398   .     A
C447   H473    1.083   .     S
C447   C448    1.398   .     A
C448   H474    1.082   .     S
C448   C449    1.399   .     A
C449   H475    1.083   .     S
C450   H457    1.084   .     S
C450   C1170   1.388   1_554 S
C451   H468    1.084   .     S
C451   C1172   1.389   .     S
C452   H482    1.083   .     S
C452   C250    1.401   1_655 S
C453   H458    1.083   .     S
C453   C658    1.383   .     S
C454   H459    1.083   .     S
C454   C249    1.401   1_655 S
C454   C698    1.383   .     S
Cu455  O492    1.940   .     S
Cu455  N483    2.010   .     S
Cu455  O488    1.963   .     S
Cu455  O489    1.954   .     S
Cu455  O485    1.963   .     S
Cu456  O486    1.963   .     S
Cu456  O491    1.940   .     S
Cu456  N484    2.010   .     S
Cu456  O487    1.963   .     S
Cu456  O490    1.954   .     S
Cu456  Cu291   2.675   1_655 S
O486   C258    1.290   1_655 S
O487   C247    1.290   1_655 A
O490   C256    1.293   1_655 S
C493   O733    1.290   1_455 A
C493   C496    1.448   .     S
C493   O567    1.290   .     S
C494   H542    1.083   .     S
C494   C496    1.401   .     A
C495   C535    1.401   .     A
C495   C504    1.448   .     S
C495   C700    1.401   1_455 S
C496   C698    1.401   1_455 S
C497   N566    1.367   .     A
C497   C499    1.416   .     A
C497   H543    1.082   .     S
C498   C500    1.416   .     A
C498   N565    1.367   .     A
C498   H544    1.082   .     S
C499   N565    1.366   .     A
C499   H545    1.082   .     S
C500   H546    1.082   .     S
C500   N566    1.366   .     A
C501   C503    1.471   .     S
C501   O573    1.296   .     A
C501   O653    1.293   .     S
C502   O574    1.295   .     A
C502   C505    1.470   .     S
C502   O736    1.293   1_455 S
C503   C510    1.399   .     A
C503   C508    1.413   .     A
C504   O570    1.290   .     A
C504   O732    1.290   1_455 S
C505   C511    1.398   .     A
C505   C509    1.412   .     A
C506   C508    1.396   .     A
C506   C514    1.402   .     A
C506   H560    1.085   .     S
C507   H561    1.085   .     S
C507   C516    1.402   .     A
C507   C509    1.396   .     A
C508   C607    1.478   .     S
C509   C683    1.477   1_455 S
C510   H559    1.075   .     S
C510   C512    1.407   .     A
C511   C513    1.407   .     A
C511   H558    1.075   .     S
C512   C517    1.429   .     A
C512   C514    1.416   .     A
C513   C518    1.429   .     A
C513   C516    1.417   .     A
C514   C1270   1.388   .     S
C515   C532    1.385   .     A
C515   C518    1.416   .     A
C515   H562    1.075   .     S
C516   C1271   1.389   1_554 S
C517   C526    1.415   .     A
C517   C1256   1.427   .     S
C518   C1255   1.427   1_554 S
C519   C524    1.402   .     A
C519   C520    1.404   .     A
C519   C591    1.477   .     S
C520   C521    1.399   .     A
C520   H547    1.083   .     S
C521   C522    1.398   .     A
C521   H548    1.082   .     S
C522   C523    1.398   .     A
C522   H549    1.083   .     S
C523   H551    1.082   .     S
C523   C524    1.399   .     A
C524   H552    1.080   .     S
C525   C531    1.404   .     A
C525   C527    1.402   .     A
C525   C672    1.478   1_455 S
C526   C533    1.385   .     A
C526   H563    1.076   .     S
C527   C528    1.398   .     A
C527   H553    1.080   .     S
C528   H554    1.082   .     S
C528   C529    1.398   .     A
C529   H555    1.083   .     S
C529   C530    1.398   .     A
C530   H556    1.082   .     S
C530   C531    1.399   .     A
C531   H557    1.083   .     S
C532   H539    1.084   .     S
C532   C1252   1.388   1_554 S
C533   H550    1.084   .     S
C533   C1254   1.389   .     S
C534   H564    1.083   .     S
C534   C578    1.401   .     S
C535   H540    1.083   .     S
C535   C2      1.383   1_565 S
C536   H541    1.083   .     S
C536   C577    1.401   .     S
C536   C42     1.383   1_565 S
Cu537  O574    1.940   .     S
Cu537  N565    2.010   .     S
Cu537  O570    1.963   .     S
Cu537  O571    1.954   .     S
Cu537  O567    1.963   .     S
Cu537  Cu702   2.675   1_455 S
Cu538  O568    1.963   .     S
Cu538  O573    1.940   .     S
Cu538  N566    2.010   .     S
Cu538  O569    1.963   .     S
Cu538  O572    1.954   .     S
Cu538  Cu619   2.675   .     S
O568   C586    1.290   .     S
O569   C575    1.290   .     A
O571   C665    1.293   1_455 S
O572   C584    1.293   .     S
C575   C578    1.448   .     S
C575   O649    1.290   .     S
C576   H624    1.083   .     S
C576   C578    1.401   .     A
C577   C617    1.401   .     A
C577   C586    1.448   .     S
C579   N648    1.367   .     A
C579   C581    1.416   .     A
C579   H625    1.082   .     S
C580   C582    1.416   .     A
C580   N647    1.367   .     A
C580   H626    1.082   .     S
C581   N647    1.366   .     A
C581   H627    1.082   .     S
C582   H628    1.082   .     S
C582   N648    1.366   .     A
C583   C585    1.471   .     S
C583   O655    1.296   .     A
C583   O735    1.293   .     S
C584   O656    1.295   .     A
C584   C587    1.470   .     S
C585   C592    1.399   .     A
C585   C590    1.413   .     A
C586   O652    1.290   .     A
C587   C593    1.398   .     A
C587   C591    1.412   .     A
C588   C590    1.396   .     A
C588   C596    1.402   .     A
C588   H642    1.085   .     S
C589   H643    1.085   .     S
C589   C598    1.402   .     A
C589   C591    1.396   .     A
C590   C689    1.478   .     S
C592   H641    1.075   .     S
C592   C594    1.407   .     A
C593   C595    1.407   .     A
C593   H640    1.075   .     S
C594   C599    1.429   .     A
C594   C596    1.416   .     A
C595   C600    1.429   .     A
C595   C598    1.417   .     A
C596   C1352   1.388   .     S
C597   C614    1.385   .     A
C597   C600    1.416   .     A
C597   H644    1.075   .     S
C598   C1353   1.389   1_554 S
C599   C608    1.415   .     A
C599   C1338   1.427   .     S
C600   C1337   1.427   1_554 S
C601   C606    1.402   .     A
C601   C602    1.404   .     A
C601   C673    1.477   .     S
C602   C603    1.399   .     A
C602   H629    1.083   .     S
C603   C604    1.398   .     A
C603   H630    1.082   .     S
C604   C605    1.398   .     A
C604   H631    1.083   .     S
C605   H633    1.082   .     S
C605   C606    1.399   .     A
C606   H634    1.080   .     S
C607   C613    1.404   .     A
C607   C609    1.402   .     A
C608   C615    1.385   .     A
C608   H645    1.076   .     S
C609   C610    1.398   .     A
C609   H635    1.080   .     S
C610   H636    1.082   .     S
C610   C611    1.398   .     A
C611   H637    1.083   .     S
C611   C612    1.398   .     A
C612   H638    1.082   .     S
C612   C613    1.399   .     A
C613   H639    1.083   .     S
C614   H621    1.084   .     S
C614   C1334   1.388   1_554 S
C615   H632    1.084   .     S
C615   C1336   1.389   .     S
C616   H646    1.083   .     S
C616   C660    1.401   .     S
C617   H622    1.083   .     S
C617   C84     1.383   1_565 S
C618   H623    1.083   .     S
C618   C659    1.401   .     S
C618   C124    1.383   1_565 S
Cu619  O656    1.940   .     S
Cu619  N647    2.010   .     S
Cu619  O652    1.963   .     S
Cu619  O653    1.954   .     S
Cu619  O649    1.963   .     S
Cu620  O650    1.963   .     S
Cu620  O655    1.940   .     S
Cu620  N648    2.010   .     S
Cu620  O651    1.963   .     S
Cu620  O654    1.954   .     S
Cu620  Cu701   2.675   .     S
O650   C668    1.290   .     S
O651   C657    1.290   .     A
O654   C666    1.293   .     S
C657   C660    1.448   .     S
C657   O731    1.290   .     S
C658   H706    1.083   .     S
C658   C660    1.401   .     A
C659   C699    1.401   .     A
C659   C668    1.448   .     S
C661   N730    1.367   .     A
C661   C663    1.416   .     A
C661   H707    1.082   .     S
C662   C664    1.416   .     A
C662   N729    1.367   .     A
C662   H708    1.082   .     S
C663   N729    1.366   .     A
C663   H709    1.082   .     S
C664   H710    1.082   .     S
C664   N730    1.366   .     A
C665   C667    1.471   .     S
C665   O737    1.296   .     A
C665   O571    1.293   1_655 S
C666   O738    1.295   .     A
C666   C669    1.470   .     S
C667   C674    1.399   .     A
C667   C672    1.413   .     A
C668   O734    1.290   .     A
C669   C675    1.398   .     A
C669   C673    1.412   .     A
C670   C672    1.396   .     A
C670   C678    1.402   .     A
C670   H724    1.085   .     S
C671   H725    1.085   .     S
C671   C680    1.402   .     A
C671   C673    1.396   .     A
C672   C525    1.478   1_655 S
C674   H723    1.075   .     S
C674   C676    1.407   .     A
C675   C677    1.407   .     A
C675   H722    1.075   .     S
C676   C681    1.429   .     A
C676   C678    1.416   .     A
C677   C682    1.429   .     A
C677   C680    1.417   .     A
C678   C1434   1.388   .     S
C679   C696    1.385   .     A
C679   C682    1.416   .     A
C679   H726    1.075   .     S
C680   C1435   1.389   1_554 S
C681   C690    1.415   .     A
C681   C1420   1.427   .     S
C682   C1419   1.427   1_554 S
C683   C688    1.402   .     A
C683   C684    1.404   .     A
C683   C509    1.477   1_655 S
C684   C685    1.399   .     A
C684   H711    1.083   .     S
C685   C686    1.398   .     A
C685   H712    1.082   .     S
C686   C687    1.398   .     A
C686   H713    1.083   .     S
C687   H715    1.082   .     S
C687   C688    1.399   .     A
C688   H716    1.080   .     S
C689   C695    1.404   .     A
C689   C691    1.402   .     A
C690   C697    1.385   .     A
C690   H727    1.076   .     S
C691   C692    1.398   .     A
C691   H717    1.080   .     S
C692   H718    1.082   .     S
C692   C693    1.398   .     A
C693   H719    1.083   .     S
C693   C694    1.398   .     A
C694   H720    1.082   .     S
C694   C695    1.399   .     A
C695   H721    1.083   .     S
C696   H703    1.084   .     S
C696   C1416   1.388   1_554 S
C697   H714    1.084   .     S
C697   C1418   1.389   .     S
C698   H728    1.083   .     S
C698   C496    1.401   1_655 S
C699   H704    1.083   .     S
C699   C166    1.383   1_565 S
C700   H705    1.083   .     S
C700   C495    1.401   1_655 S
C700   C206    1.383   1_565 S
Cu701  O738    1.940   .     S
Cu701  N729    2.010   .     S
Cu701  O734    1.963   .     S
Cu701  O735    1.954   .     S
Cu701  O731    1.963   .     S
Cu702  O732    1.963   .     S
Cu702  O737    1.940   .     S
Cu702  N730    2.010   .     S
Cu702  O733    1.963   .     S
Cu702  O736    1.954   .     S
Cu702  Cu537   2.675   1_655 S
O732   C504    1.290   1_655 S
O733   C493    1.290   1_655 A
O736   C502    1.293   1_655 S
C739   O979    1.290   1_455 A
C739   C742    1.448   .     S
C739   O813    1.290   .     S
C740   H788    1.083   .     S
C740   C742    1.401   .     A
C740   C1273   1.383   1_545 S
C741   C781    1.401   .     A
C741   C750    1.448   .     S
C741   C946    1.401   1_455 S
C742   C944    1.401   1_455 S
C743   N812    1.367   .     A
C743   C745    1.416   .     A
C743   H789    1.082   .     S
C744   C746    1.416   .     A
C744   N811    1.367   .     A
C744   H790    1.082   .     S
C745   N811    1.366   .     A
C745   H791    1.082   .     S
C746   H792    1.082   .     S
C746   N812    1.366   .     A
C747   C749    1.471   .     S
C747   O819    1.296   .     A
C747   O899    1.293   .     S
C748   O820    1.295   .     A
C748   C751    1.470   .     S
C748   O982    1.293   1_455 S
C749   C756    1.399   .     A
C749   C754    1.413   .     A
C750   O816    1.290   .     A
C750   O978    1.290   1_455 S
C751   C757    1.398   .     A
C751   C755    1.412   .     A
C752   C754    1.396   .     A
C752   C760    1.402   .     A
C752   H806    1.085   .     S
C753   H807    1.085   .     S
C753   C762    1.402   .     A
C753   C755    1.396   .     A
C754   C853    1.478   .     S
C755   C929    1.477   1_455 S
C756   H805    1.075   .     S
C756   C758    1.407   .     A
C757   C759    1.407   .     A
C757   H804    1.075   .     S
C758   C763    1.429   .     A
C758   C760    1.416   .     A
C759   C764    1.429   .     A
C759   C762    1.417   .     A
C760   C40     1.388   1_556 S
C761   C778    1.385   .     A
C761   C764    1.416   .     A
C761   H808    1.075   .     S
C763   C772    1.415   .     A
C763   C26     1.427   1_556 S
C765   C770    1.402   .     A
C765   C766    1.404   .     A
C765   C837    1.477   .     S
C766   C767    1.399   .     A
C766   H793    1.083   .     S
C767   C768    1.398   .     A
C767   H794    1.082   .     S
C768   C769    1.398   .     A
C768   H795    1.083   .     S
C769   H797    1.082   .     S
C769   C770    1.399   .     A
C770   H798    1.080   .     S
C771   C777    1.404   .     A
C771   C773    1.402   .     A
C771   C918    1.478   1_455 S
C772   C779    1.385   .     A
C772   H809    1.076   .     S
C773   C774    1.398   .     A
C773   H799    1.080   .     S
C774   H800    1.082   .     S
C774   C775    1.398   .     A
C775   H801    1.083   .     S
C775   C776    1.398   .     A
C776   H802    1.082   .     S
C776   C777    1.399   .     A
C777   H803    1.083   .     S
C778   H785    1.084   .     S
C779   H796    1.084   .     S
C779   C24     1.389   1_556 S
C780   H810    1.083   .     S
C780   C824    1.401   .     S
C780   C1274   1.383   1_545 S
C781   H786    1.083   .     S
C781   C986    1.383   .     S
C782   H787    1.083   .     S
C782   C823    1.401   .     S
C782   C1026   1.383   .     S
Cu783  O820    1.940   .     S
Cu783  N811    2.010   .     S
Cu783  O816    1.963   .     S
Cu783  O817    1.954   .     S
Cu783  O813    1.963   .     S
Cu783  Cu948   2.675   1_455 S
Cu784  O814    1.963   .     S
Cu784  O819    1.940   .     S
Cu784  N812    2.010   .     S
Cu784  O815    1.963   .     S
Cu784  O818    1.954   .     S
Cu784  Cu865   2.675   .     S
O814   C832    1.290   .     S
O815   C821    1.290   .     A
O817   C911    1.293   1_455 S
O818   C830    1.293   .     S
C821   C824    1.448   .     S
C821   O895    1.290   .     S
C822   H870    1.083   .     S
C822   C824    1.401   .     A
C822   C1355   1.383   1_545 S
C823   C863    1.401   .     A
C823   C832    1.448   .     S
C825   N894    1.367   .     A
C825   C827    1.416   .     A
C825   H871    1.082   .     S
C826   C828    1.416   .     A
C826   N893    1.367   .     A
C826   H872    1.082   .     S
C827   N893    1.366   .     A
C827   H873    1.082   .     S
C828   H874    1.082   .     S
C828   N894    1.366   .     A
C829   C831    1.471   .     S
C829   O901    1.296   .     A
C829   O981    1.293   .     S
C830   O902    1.295   .     A
C830   C833    1.470   .     S
C831   C838    1.399   .     A
C831   C836    1.413   .     A
C832   O898    1.290   .     A
C833   C839    1.398   .     A
C833   C837    1.412   .     A
C834   C836    1.396   .     A
C834   C842    1.402   .     A
C834   H888    1.085   .     S
C835   H889    1.085   .     S
C835   C844    1.402   .     A
C835   C837    1.396   .     A
C836   C935    1.478   .     S
C838   H887    1.075   .     S
C838   C840    1.407   .     A
C839   C841    1.407   .     A
C839   H886    1.075   .     S
C840   C845    1.429   .     A
C840   C842    1.416   .     A
C841   C846    1.429   .     A
C841   C844    1.417   .     A
C842   C122    1.388   1_556 S
C843   C860    1.385   .     A
C843   C846    1.416   .     A
C843   H890    1.075   .     S
C845   C854    1.415   .     A
C845   C108    1.427   1_556 S
C847   C852    1.402   .     A
C847   C848    1.404   .     A
C847   C919    1.477   .     S
C848   C849    1.399   .     A
C848   H875    1.083   .     S
C849   C850    1.398   .     A
C849   H876    1.082   .     S
C850   C851    1.398   .     A
C850   H877    1.083   .     S
C851   H879    1.082   .     S
C851   C852    1.399   .     A
C852   H880    1.080   .     S
C853   C859    1.404   .     A
C853   C855    1.402   .     A
C854   C861    1.385   .     A
C854   H891    1.076   .     S
C855   C856    1.398   .     A
C855   H881    1.080   .     S
C856   H882    1.082   .     S
C856   C857    1.398   .     A
C857   H883    1.083   .     S
C857   C858    1.398   .     A
C858   H884    1.082   .     S
C858   C859    1.399   .     A
C859   H885    1.083   .     S
C860   H867    1.084   .     S
C861   H878    1.084   .     S
C861   C106    1.389   1_556 S
C862   H892    1.083   .     S
C862   C906    1.401   .     S
C862   C1356   1.383   1_545 S
C863   H868    1.083   .     S
C863   C1068   1.383   .     S
C864   H869    1.083   .     S
C864   C905    1.401   .     S
C864   C1108   1.383   .     S
Cu865  O902    1.940   .     S
Cu865  N893    2.010   .     S
Cu865  O898    1.963   .     S
Cu865  O899    1.954   .     S
Cu865  O895    1.963   .     S
Cu866  O896    1.963   .     S
Cu866  O901    1.940   .     S
Cu866  N894    2.010   .     S
Cu866  O897    1.963   .     S
Cu866  O900    1.954   .     S
Cu866  Cu947   2.675   .     S
O896   C914    1.290   .     S
O897   C903    1.290   .     A
O900   C912    1.293   .     S
C903   C906    1.448   .     S
C903   O977    1.290   .     S
C904   H952    1.083   .     S
C904   C906    1.401   .     A
C904   C1437   1.383   1_545 S
C905   C945    1.401   .     A
C905   C914    1.448   .     S
C907   N976    1.367   .     A
C907   C909    1.416   .     A
C907   H953    1.082   .     S
C908   C910    1.416   .     A
C908   N975    1.367   .     A
C908   H954    1.082   .     S
C909   N975    1.366   .     A
C909   H955    1.082   .     S
C910   H956    1.082   .     S
C910   N976    1.366   .     A
C911   C913    1.471   .     S
C911   O983    1.296   .     A
C911   O817    1.293   1_655 S
C912   O984    1.295   .     A
C912   C915    1.470   .     S
C913   C920    1.399   .     A
C913   C918    1.413   .     A
C914   O980    1.290   .     A
C915   C921    1.398   .     A
C915   C919    1.412   .     A
C916   C918    1.396   .     A
C916   C924    1.402   .     A
C916   H970    1.085   .     S
C917   H971    1.085   .     S
C917   C926    1.402   .     A
C917   C919    1.396   .     A
C918   C771    1.478   1_655 S
C920   H969    1.075   .     S
C920   C922    1.407   .     A
C921   C923    1.407   .     A
C921   H968    1.075   .     S
C922   C927    1.429   .     A
C922   C924    1.416   .     A
C923   C928    1.429   .     A
C923   C926    1.417   .     A
C924   C204    1.388   1_556 S
C925   C942    1.385   .     A
C925   C928    1.416   .     A
C925   H972    1.075   .     S
C927   C936    1.415   .     A
C927   C190    1.427   1_556 S
C929   C934    1.402   .     A
C929   C930    1.404   .     A
C929   C755    1.477   1_655 S
C930   C931    1.399   .     A
C930   H957    1.083   .     S
C931   C932    1.398   .     A
C931   H958    1.082   .     S
C932   C933    1.398   .     A
C932   H959    1.083   .     S
C933   H961    1.082   .     S
C933   C934    1.399   .     A
C934   H962    1.080   .     S
C935   C941    1.404   .     A
C935   C937    1.402   .     A
C936   C943    1.385   .     A
C936   H973    1.076   .     S
C937   C938    1.398   .     A
C937   H963    1.080   .     S
C938   H964    1.082   .     S
C938   C939    1.398   .     A
C939   H965    1.083   .     S
C939   C940    1.398   .     A
C940   H966    1.082   .     S
C940   C941    1.399   .     A
C941   H967    1.083   .     S
C942   H949    1.084   .     S
C943   H960    1.084   .     S
C943   C188    1.389   1_556 S
C944   H974    1.083   .     S
C944   C742    1.401   1_655 S
C944   C1438   1.383   1_545 S
C945   H950    1.083   .     S
C945   C1150   1.383   .     S
C946   H951    1.083   .     S
C946   C741    1.401   1_655 S
C946   C1190   1.383   .     S
Cu947  O984    1.940   .     S
Cu947  N975    2.010   .     S
Cu947  O980    1.963   .     S
Cu947  O981    1.954   .     S
Cu947  O977    1.963   .     S
Cu948  O978    1.963   .     S
Cu948  O983    1.940   .     S
Cu948  N976    2.010   .     S
Cu948  O979    1.963   .     S
Cu948  O982    1.954   .     S
Cu948  Cu783   2.675   1_655 S
O978   C750    1.290   1_655 S
O979   C739    1.290   1_655 A
O982   C748    1.293   1_655 S
C985   O1225   1.290   1_455 A
C985   C988    1.448   .     S
C985   O1059   1.290   .     S
C986   H1034   1.083   .     S
C986   C988    1.401   .     A
C987   C1027   1.401   .     A
C987   C996    1.448   .     S
C987   C1192   1.401   1_455 S
C988   C1190   1.401   1_455 S
C989   N1058   1.367   .     A
C989   C991    1.416   .     A
C989   H1035   1.082   .     S
C990   C992    1.416   .     A
C990   N1057   1.367   .     A
C990   H1036   1.082   .     S
C991   N1057   1.366   .     A
C991   H1037   1.082   .     S
C992   H1038   1.082   .     S
C992   N1058   1.366   .     A
C993   C995    1.471   .     S
C993   O1065   1.296   .     A
C993   O1145   1.293   .     S
C994   O1066   1.295   .     A
C994   C997    1.470   .     S
C994   O1228   1.293   1_455 S
C995   C1002   1.399   .     A
C995   C1000   1.413   .     A
C996   O1062   1.290   .     A
C996   O1224   1.290   1_455 S
C997   C1003   1.398   .     A
C997   C1001   1.412   .     A
C998   C1000   1.396   .     A
C998   C1006   1.402   .     A
C998   H1052   1.085   .     S
C999   H1053   1.085   .     S
C999   C1008   1.402   .     A
C999   C1001   1.396   .     A
C1000  C1099   1.478   .     S
C1001  C1175   1.477   1_455 S
C1002  H1051   1.075   .     S
C1002  C1004   1.407   .     A
C1003  C1005   1.407   .     A
C1003  H1050   1.075   .     S
C1004  C1009   1.429   .     A
C1004  C1006   1.416   .     A
C1005  C1010   1.429   .     A
C1005  C1008   1.417   .     A
C1006  C286    1.388   1_556 S
C1007  C1024   1.385   .     A
C1007  C1010   1.416   .     A
C1007  H1054   1.075   .     S
C1009  C1018   1.415   .     A
C1009  C272    1.427   1_556 S
C1011  C1016   1.402   .     A
C1011  C1012   1.404   .     A
C1011  C1083   1.477   .     S
C1012  C1013   1.399   .     A
C1012  H1039   1.083   .     S
C1013  C1014   1.398   .     A
C1013  H1040   1.082   .     S
C1014  C1015   1.398   .     A
C1014  H1041   1.083   .     S
C1015  H1043   1.082   .     S
C1015  C1016   1.399   .     A
C1016  H1044   1.080   .     S
C1017  C1023   1.404   .     A
C1017  C1019   1.402   .     A
C1017  C1164   1.478   1_455 S
C1018  C1025   1.385   .     A
C1018  H1055   1.076   .     S
C1019  C1020   1.398   .     A
C1019  H1045   1.080   .     S
C1020  H1046   1.082   .     S
C1020  C1021   1.398   .     A
C1021  H1047   1.083   .     S
C1021  C1022   1.398   .     A
C1022  H1048   1.082   .     S
C1022  C1023   1.399   .     A
C1023  H1049   1.083   .     S
C1024  H1031   1.084   .     S
C1025  H1042   1.084   .     S
C1025  C270    1.389   1_556 S
C1026  H1056   1.083   .     S
C1026  C1070   1.401   .     S
C1027  H1032   1.083   .     S
C1027  C1232   1.383   .     S
C1028  H1033   1.083   .     S
C1028  C1069   1.401   .     S
C1028  C1272   1.383   .     S
Cu1029 O1066   1.940   .     S
Cu1029 N1057   2.010   .     S
Cu1029 O1062   1.963   .     S
Cu1029 O1063   1.954   .     S
Cu1029 O1059   1.963   .     S
Cu1029 Cu1194  2.675   1_455 S
Cu1030 O1060   1.963   .     S
Cu1030 O1065   1.940   .     S
Cu1030 N1058   2.010   .     S
Cu1030 O1061   1.963   .     S
Cu1030 O1064   1.954   .     S
Cu1030 Cu1111  2.675   .     S
O1060  C1078   1.290   .     S
O1061  C1067   1.290   .     A
O1063  C1157   1.293   1_455 S
O1064  C1076   1.293   .     S
C1067  C1070   1.448   .     S
C1067  O1141   1.290   .     S
C1068  H1116   1.083   .     S
C1068  C1070   1.401   .     A
C1069  C1109   1.401   .     A
C1069  C1078   1.448   .     S
C1071  N1140   1.367   .     A
C1071  C1073   1.416   .     A
C1071  H1117   1.082   .     S
C1072  C1074   1.416   .     A
C1072  N1139   1.367   .     A
C1072  H1118   1.082   .     S
C1073  N1139   1.366   .     A
C1073  H1119   1.082   .     S
C1074  H1120   1.082   .     S
C1074  N1140   1.366   .     A
C1075  C1077   1.471   .     S
C1075  O1147   1.296   .     A
C1075  O1227   1.293   .     S
C1076  O1148   1.295   .     A
C1076  C1079   1.470   .     S
C1077  C1084   1.399   .     A
C1077  C1082   1.413   .     A
C1078  O1144   1.290   .     A
C1079  C1085   1.398   .     A
C1079  C1083   1.412   .     A
C1080  C1082   1.396   .     A
C1080  C1088   1.402   .     A
C1080  H1134   1.085   .     S
C1081  H1135   1.085   .     S
C1081  C1090   1.402   .     A
C1081  C1083   1.396   .     A
C1082  C1181   1.478   .     S
C1084  H1133   1.075   .     S
C1084  C1086   1.407   .     A
C1085  C1087   1.407   .     A
C1085  H1132   1.075   .     S
C1086  C1091   1.429   .     A
C1086  C1088   1.416   .     A
C1087  C1092   1.429   .     A
C1087  C1090   1.417   .     A
C1088  C368    1.388   1_556 S
C1089  C1106   1.385   .     A
C1089  C1092   1.416   .     A
C1089  H1136   1.075   .     S
C1091  C1100   1.415   .     A
C1091  C354    1.427   1_556 S
C1093  C1098   1.402   .     A
C1093  C1094   1.404   .     A
C1093  C1165   1.477   .     S
C1094  C1095   1.399   .     A
C1094  H1121   1.083   .     S
C1095  C1096   1.398   .     A
C1095  H1122   1.082   .     S
C1096  C1097   1.398   .     A
C1096  H1123   1.083   .     S
C1097  H1125   1.082   .     S
C1097  C1098   1.399   .     A
C1098  H1126   1.080   .     S
C1099  C1105   1.404   .     A
C1099  C1101   1.402   .     A
C1100  C1107   1.385   .     A
C1100  H1137   1.076   .     S
C1101  C1102   1.398   .     A
C1101  H1127   1.080   .     S
C1102  H1128   1.082   .     S
C1102  C1103   1.398   .     A
C1103  H1129   1.083   .     S
C1103  C1104   1.398   .     A
C1104  H1130   1.082   .     S
C1104  C1105   1.399   .     A
C1105  H1131   1.083   .     S
C1106  H1113   1.084   .     S
C1107  H1124   1.084   .     S
C1107  C352    1.389   1_556 S
C1108  H1138   1.083   .     S
C1108  C1152   1.401   .     S
C1109  H1114   1.083   .     S
C1109  C1314   1.383   .     S
C1110  H1115   1.083   .     S
C1110  C1151   1.401   .     S
C1110  C1354   1.383   .     S
Cu1111 O1148   1.940   .     S
Cu1111 N1139   2.010   .     S
Cu1111 O1144   1.963   .     S
Cu1111 O1145   1.954   .     S
Cu1111 O1141   1.963   .     S
Cu1112 O1142   1.963   .     S
Cu1112 O1147   1.940   .     S
Cu1112 N1140   2.010   .     S
Cu1112 O1143   1.963   .     S
Cu1112 O1146   1.954   .     S
Cu1112 Cu1193  2.675   .     S
O1142  C1160   1.290   .     S
O1143  C1149   1.290   .     A
O1146  C1158   1.293   .     S
C1149  C1152   1.448   .     S
C1149  O1223   1.290   .     S
C1150  H1198   1.083   .     S
C1150  C1152   1.401   .     A
C1151  C1191   1.401   .     A
C1151  C1160   1.448   .     S
C1153  N1222   1.367   .     A
C1153  C1155   1.416   .     A
C1153  H1199   1.082   .     S
C1154  C1156   1.416   .     A
C1154  N1221   1.367   .     A
C1154  H1200   1.082   .     S
C1155  N1221   1.366   .     A
C1155  H1201   1.082   .     S
C1156  H1202   1.082   .     S
C1156  N1222   1.366   .     A
C1157  C1159   1.471   .     S
C1157  O1229   1.296   .     A
C1157  O1063   1.293   1_655 S
C1158  O1230   1.295   .     A
C1158  C1161   1.470   .     S
C1159  C1166   1.399   .     A
C1159  C1164   1.413   .     A
C1160  O1226   1.290   .     A
C1161  C1167   1.398   .     A
C1161  C1165   1.412   .     A
C1162  C1164   1.396   .     A
C1162  C1170   1.402   .     A
C1162  H1216   1.085   .     S
C1163  H1217   1.085   .     S
C1163  C1172   1.402   .     A
C1163  C1165   1.396   .     A
C1164  C1017   1.478   1_655 S
C1166  H1215   1.075   .     S
C1166  C1168   1.407   .     A
C1167  C1169   1.407   .     A
C1167  H1214   1.075   .     S
C1168  C1173   1.429   .     A
C1168  C1170   1.416   .     A
C1169  C1174   1.429   .     A
C1169  C1172   1.417   .     A
C1170  C450    1.388   1_556 S
C1171  C1188   1.385   .     A
C1171  C1174   1.416   .     A
C1171  H1218   1.075   .     S
C1173  C1182   1.415   .     A
C1173  C436    1.427   1_556 S
C1175  C1180   1.402   .     A
C1175  C1176   1.404   .     A
C1175  C1001   1.477   1_655 S
C1176  C1177   1.399   .     A
C1176  H1203   1.083   .     S
C1177  C1178   1.398   .     A
C1177  H1204   1.082   .     S
C1178  C1179   1.398   .     A
C1178  H1205   1.083   .     S
C1179  H1207   1.082   .     S
C1179  C1180   1.399   .     A
C1180  H1208   1.080   .     S
C1181  C1187   1.404   .     A
C1181  C1183   1.402   .     A
C1182  C1189   1.385   .     A
C1182  H1219   1.076   .     S
C1183  C1184   1.398   .     A
C1183  H1209   1.080   .     S
C1184  H1210   1.082   .     S
C1184  C1185   1.398   .     A
C1185  H1211   1.083   .     S
C1185  C1186   1.398   .     A
C1186  H1212   1.082   .     S
C1186  C1187   1.399   .     A
C1187  H1213   1.083   .     S
C1188  H1195   1.084   .     S
C1189  H1206   1.084   .     S
C1189  C434    1.389   1_556 S
C1190  H1220   1.083   .     S
C1190  C988    1.401   1_655 S
C1191  H1196   1.083   .     S
C1191  C1396   1.383   .     S
C1192  H1197   1.083   .     S
C1192  C987    1.401   1_655 S
C1192  C1436   1.383   .     S
Cu1193 O1230   1.940   .     S
Cu1193 N1221   2.010   .     S
Cu1193 O1226   1.963   .     S
Cu1193 O1227   1.954   .     S
Cu1193 O1223   1.963   .     S
Cu1194 O1224   1.963   .     S
Cu1194 O1229   1.940   .     S
Cu1194 N1222   2.010   .     S
Cu1194 O1225   1.963   .     S
Cu1194 O1228   1.954   .     S
Cu1194 Cu1029  2.675   1_655 S
O1224  C996    1.290   1_655 S
O1225  C985    1.290   1_655 A
O1228  C994    1.293   1_655 S
C1231  O1471   1.290   1_455 A
C1231  C1234   1.448   .     S
C1231  O1305   1.290   .     S
C1232  H1280   1.083   .     S
C1232  C1234   1.401   .     A
C1233  C1273   1.401   .     A
C1233  C1242   1.448   .     S
C1233  C1438   1.401   1_455 S
C1234  C1436   1.401   1_455 S
C1235  N1304   1.367   .     A
C1235  C1237   1.416   .     A
C1235  H1281   1.082   .     S
C1236  C1238   1.416   .     A
C1236  N1303   1.367   .     A
C1236  H1282   1.082   .     S
C1237  N1303   1.366   .     A
C1237  H1283   1.082   .     S
C1238  H1284   1.082   .     S
C1238  N1304   1.366   .     A
C1239  C1241   1.471   .     S
C1239  O1311   1.296   .     A
C1239  O1391   1.293   .     S
C1240  O1312   1.295   .     A
C1240  C1243   1.470   .     S
C1240  O1474   1.293   1_455 S
C1241  C1248   1.399   .     A
C1241  C1246   1.413   .     A
C1242  O1308   1.290   .     A
C1242  O1470   1.290   1_455 S
C1243  C1249   1.398   .     A
C1243  C1247   1.412   .     A
C1244  C1246   1.396   .     A
C1244  C1252   1.402   .     A
C1244  H1298   1.085   .     S
C1245  H1299   1.085   .     S
C1245  C1254   1.402   .     A
C1245  C1247   1.396   .     A
C1246  C1345   1.478   .     S
C1247  C1421   1.477   1_455 S
C1248  H1297   1.075   .     S
C1248  C1250   1.407   .     A
C1249  C1251   1.407   .     A
C1249  H1296   1.075   .     S
C1250  C1255   1.429   .     A
C1250  C1252   1.416   .     A
C1251  C1256   1.429   .     A
C1251  C1254   1.417   .     A
C1252  C532    1.388   1_556 S
C1253  C1270   1.385   .     A
C1253  C1256   1.416   .     A
C1253  H1300   1.075   .     S
C1255  C1264   1.415   .     A
C1255  C518    1.427   1_556 S
C1257  C1262   1.402   .     A
C1257  C1258   1.404   .     A
C1257  C1329   1.477   .     S
C1258  C1259   1.399   .     A
C1258  H1285   1.083   .     S
C1259  C1260   1.398   .     A
C1259  H1286   1.082   .     S
C1260  C1261   1.398   .     A
C1260  H1287   1.083   .     S
C1261  H1289   1.082   .     S
C1261  C1262   1.399   .     A
C1262  H1290   1.080   .     S
C1263  C1269   1.404   .     A
C1263  C1265   1.402   .     A
C1263  C1410   1.478   1_455 S
C1264  C1271   1.385   .     A
C1264  H1301   1.076   .     S
C1265  C1266   1.398   .     A
C1265  H1291   1.080   .     S
C1266  H1292   1.082   .     S
C1266  C1267   1.398   .     A
C1267  H1293   1.083   .     S
C1267  C1268   1.398   .     A
C1268  H1294   1.082   .     S
C1268  C1269   1.399   .     A
C1269  H1295   1.083   .     S
C1270  H1277   1.084   .     S
C1271  H1288   1.084   .     S
C1271  C516    1.389   1_556 S
C1272  H1302   1.083   .     S
C1272  C1316   1.401   .     S
C1273  H1278   1.083   .     S
C1273  C740    1.383   1_565 S
C1274  H1279   1.083   .     S
C1274  C1315   1.401   .     S
C1274  C780    1.383   1_565 S
Cu1275 O1312   1.940   .     S
Cu1275 N1303   2.010   .     S
Cu1275 O1308   1.963   .     S
Cu1275 O1309   1.954   .     S
Cu1275 O1305   1.963   .     S
Cu1275 Cu1440  2.675   1_455 S
Cu1276 O1306   1.963   .     S
Cu1276 O1311   1.940   .     S
Cu1276 N1304   2.010   .     S
Cu1276 O1307   1.963   .     S
Cu1276 O1310   1.954   .     S
Cu1276 Cu1357  2.675   .     S
O1306  C1324   1.290   .     S
O1307  C1313   1.290   .     A
O1309  C1403   1.293   1_455 S
O1310  C1322   1.293   .     S
C1313  C1316   1.448   .     S
C1313  O1387   1.290   .     S
C1314  H1362   1.083   .     S
C1314  C1316   1.401   .     A
C1315  C1355   1.401   .     A
C1315  C1324   1.448   .     S
C1317  N1386   1.367   .     A
C1317  C1319   1.416   .     A
C1317  H1363   1.082   .     S
C1318  C1320   1.416   .     A
C1318  N1385   1.367   .     A
C1318  H1364   1.082   .     S
C1319  N1385   1.366   .     A
C1319  H1365   1.082   .     S
C1320  H1366   1.082   .     S
C1320  N1386   1.366   .     A
C1321  C1323   1.471   .     S
C1321  O1393   1.296   .     A
C1321  O1473   1.293   .     S
C1322  O1394   1.295   .     A
C1322  C1325   1.470   .     S
C1323  C1330   1.399   .     A
C1323  C1328   1.413   .     A
C1324  O1390   1.290   .     A
C1325  C1331   1.398   .     A
C1325  C1329   1.412   .     A
C1326  C1328   1.396   .     A
C1326  C1334   1.402   .     A
C1326  H1380   1.085   .     S
C1327  H1381   1.085   .     S
C1327  C1336   1.402   .     A
C1327  C1329   1.396   .     A
C1328  C1427   1.478   .     S
C1330  H1379   1.075   .     S
C1330  C1332   1.407   .     A
C1331  C1333   1.407   .     A
C1331  H1378   1.075   .     S
C1332  C1337   1.429   .     A
C1332  C1334   1.416   .     A
C1333  C1338   1.429   .     A
C1333  C1336   1.417   .     A
C1334  C614    1.388   1_556 S
C1335  C1352   1.385   .     A
C1335  C1338   1.416   .     A
C1335  H1382   1.075   .     S
C1337  C1346   1.415   .     A
C1337  C600    1.427   1_556 S
C1339  C1344   1.402   .     A
C1339  C1340   1.404   .     A
C1339  C1411   1.477   .     S
C1340  C1341   1.399   .     A
C1340  H1367   1.083   .     S
C1341  C1342   1.398   .     A
C1341  H1368   1.082   .     S
C1342  C1343   1.398   .     A
C1342  H1369   1.083   .     S
C1343  H1371   1.082   .     S
C1343  C1344   1.399   .     A
C1344  H1372   1.080   .     S
C1345  C1351   1.404   .     A
C1345  C1347   1.402   .     A
C1346  C1353   1.385   .     A
C1346  H1383   1.076   .     S
C1347  C1348   1.398   .     A
C1347  H1373   1.080   .     S
C1348  H1374   1.082   .     S
C1348  C1349   1.398   .     A
C1349  H1375   1.083   .     S
C1349  C1350   1.398   .     A
C1350  H1376   1.082   .     S
C1350  C1351   1.399   .     A
C1351  H1377   1.083   .     S
C1352  H1359   1.084   .     S
C1353  H1370   1.084   .     S
C1353  C598    1.389   1_556 S
C1354  H1384   1.083   .     S
C1354  C1398   1.401   .     S
C1355  H1360   1.083   .     S
C1355  C822    1.383   1_565 S
C1356  H1361   1.083   .     S
C1356  C1397   1.401   .     S
C1356  C862    1.383   1_565 S
Cu1357 O1394   1.940   .     S
Cu1357 N1385   2.010   .     S
Cu1357 O1390   1.963   .     S
Cu1357 O1391   1.954   .     S
Cu1357 O1387   1.963   .     S
Cu1358 O1388   1.963   .     S
Cu1358 O1393   1.940   .     S
Cu1358 N1386   2.010   .     S
Cu1358 O1389   1.963   .     S
Cu1358 O1392   1.954   .     S
Cu1358 Cu1439  2.675   .     S
O1388  C1406   1.290   .     S
O1389  C1395   1.290   .     A
O1392  C1404   1.293   .     S
C1395  C1398   1.448   .     S
C1395  O1469   1.290   .     S
C1396  H1444   1.083   .     S
C1396  C1398   1.401   .     A
C1397  C1437   1.401   .     A
C1397  C1406   1.448   .     S
C1399  N1468   1.367   .     A
C1399  C1401   1.416   .     A
C1399  H1445   1.082   .     S
C1400  C1402   1.416   .     A
C1400  N1467   1.367   .     A
C1400  H1446   1.082   .     S
C1401  N1467   1.366   .     A
C1401  H1447   1.082   .     S
C1402  H1448   1.082   .     S
C1402  N1468   1.366   .     A
C1403  C1405   1.471   .     S
C1403  O1475   1.296   .     A
C1403  O1309   1.293   1_655 S
C1404  O1476   1.295   .     A
C1404  C1407   1.470   .     S
C1405  C1412   1.399   .     A
C1405  C1410   1.413   .     A
C1406  O1472   1.290   .     A
C1407  C1413   1.398   .     A
C1407  C1411   1.412   .     A
C1408  C1410   1.396   .     A
C1408  C1416   1.402   .     A
C1408  H1462   1.085   .     S
C1409  H1463   1.085   .     S
C1409  C1418   1.402   .     A
C1409  C1411   1.396   .     A
C1410  C1263   1.478   1_655 S
C1412  H1461   1.075   .     S
C1412  C1414   1.407   .     A
C1413  C1415   1.407   .     A
C1413  H1460   1.075   .     S
C1414  C1419   1.429   .     A
C1414  C1416   1.416   .     A
C1415  C1420   1.429   .     A
C1415  C1418   1.417   .     A
C1416  C696    1.388   1_556 S
C1417  C1434   1.385   .     A
C1417  C1420   1.416   .     A
C1417  H1464   1.075   .     S
C1419  C1428   1.415   .     A
C1419  C682    1.427   1_556 S
C1421  C1426   1.402   .     A
C1421  C1422   1.404   .     A
C1421  C1247   1.477   1_655 S
C1422  C1423   1.399   .     A
C1422  H1449   1.083   .     S
C1423  C1424   1.398   .     A
C1423  H1450   1.082   .     S
C1424  C1425   1.398   .     A
C1424  H1451   1.083   .     S
C1425  H1453   1.082   .     S
C1425  C1426   1.399   .     A
C1426  H1454   1.080   .     S
C1427  C1433   1.404   .     A
C1427  C1429   1.402   .     A
C1428  C1435   1.385   .     A
C1428  H1465   1.076   .     S
C1429  C1430   1.398   .     A
C1429  H1455   1.080   .     S
C1430  H1456   1.082   .     S
C1430  C1431   1.398   .     A
C1431  H1457   1.083   .     S
C1431  C1432   1.398   .     A
C1432  H1458   1.082   .     S
C1432  C1433   1.399   .     A
C1433  H1459   1.083   .     S
C1434  H1441   1.084   .     S
C1435  H1452   1.084   .     S
C1435  C680    1.389   1_556 S
C1436  H1466   1.083   .     S
C1436  C1234   1.401   1_655 S
C1437  H1442   1.083   .     S
C1437  C904    1.383   1_565 S
C1438  H1443   1.083   .     S
C1438  C1233   1.401   1_655 S
C1438  C944    1.383   1_565 S
Cu1439 O1476   1.940   .     S
Cu1439 N1467   2.010   .     S
Cu1439 O1472   1.963   .     S
Cu1439 O1473   1.954   .     S
Cu1439 O1469   1.963   .     S
Cu1440 O1470   1.963   .     S
Cu1440 O1475   1.940   .     S
Cu1440 N1468   2.010   .     S
Cu1440 O1471   1.963   .     S
Cu1440 O1474   1.954   .     S
Cu1440 Cu1275  2.675   1_655 S
O1470  C1242   1.290   1_655 S
O1471  C1231   1.290   1_655 A
O1474  C1240   1.293   1_655 S
