data_str_m2_o10_o17_pcu_sym.96
_audit_creation_date              2020-01-03
_audit_creation_method            'Materials Studio'
_symmetry_space_group_name_H-M    'P1'
_symmetry_Int_Tables_number       1
_symmetry_cell_setting            triclinic
loop_
_symmetry_equiv_pos_as_xyz
  x,y,z
_cell_length_a                    30.4347
_cell_length_b                    26.3994
_cell_length_c                    23.1605
_cell_angle_alpha                 102.4529
_cell_angle_beta                  96.0583
_cell_angle_gamma                 97.1976
loop_
_atom_site_label
_atom_site_type_symbol
_atom_site_fract_x
_atom_site_fract_y
_atom_site_fract_z
_atom_site_U_iso_or_equiv
_atom_site_adp_type
_atom_site_occupancy
C1     C     0.24896   0.06702   0.15132   0.00000  Uiso   1.00
C2     C     0.25108   0.26632   0.18202   0.00000  Uiso   1.00
C3     C     0.00427   0.07342   0.11294   0.00000  Uiso   1.00
C4     C     0.49570   0.26006   0.22032   0.00000  Uiso   1.00
C5     C     0.24586   0.01069   0.14333   0.00000  Uiso   1.00
C6     C     0.25422   0.32266   0.19001   0.00000  Uiso   1.00
C7     C     0.16449   0.16364   0.16562   0.00000  Uiso   1.00
C8     C     0.33551   0.16972   0.16773   0.00000  Uiso   1.00
C9     C     0.41526   0.21822   0.18921   0.00000  Uiso   1.00
C10    C     0.08470   0.11521   0.14407   0.00000  Uiso   1.00
C11    C     0.38442   0.17082   0.16991   0.00000  Uiso   1.00
C12    C     0.11557   0.16259   0.16347   0.00000  Uiso   1.00
C13    C     0.39982   0.12282   0.15177   0.00000  Uiso   1.00
C14    C     0.10020   0.21059   0.18181   0.00000  Uiso   1.00
C15    C     0.44529   0.12201   0.14625   0.00000  Uiso   1.00
C16    C     0.05471   0.21142   0.18720   0.00000  Uiso   1.00
C17    C     0.47684   0.16794   0.16825   0.00000  Uiso   1.00
C18    C     0.02315   0.16551   0.16512   0.00000  Uiso   1.00
C19    C     0.46228   0.21604   0.19362   0.00000  Uiso   1.00
C20    C     0.03769   0.11743   0.13969   0.00000  Uiso   1.00
C21    C     0.45957   0.07597   0.11818   0.00000  Uiso   1.00
C22    C     0.04040   0.25748   0.21519   0.00000  Uiso   1.00
Cu23   Cu    0.25501   0.17246   0.22813   0.00000  Uiso   1.00
Cu24   Cu    0.24500   0.16087   0.10521   0.00000  Uiso   1.00
H25    H     0.43544   0.04195   0.09585   0.00000  Uiso   1.00
H26    H     0.06451   0.29153   0.23749   0.00000  Uiso   1.00
H27    H     0.23462   0.31989   0.09871   0.00000  Uiso   1.00
H28    H     0.26542   0.01346   0.23465   0.00000  Uiso   1.00
N29    N     0.23745   0.15214   0.01284   0.00000  Uiso   1.00
N30    N     0.26256   0.18119   0.32049   0.00000  Uiso   1.00
O31    O     0.25326   0.09538   0.20659   0.00000  Uiso   1.00
O32    O     0.24675   0.23796   0.12674   0.00000  Uiso   1.00
O33    O     0.24480   0.08559   0.10279   0.00000  Uiso   1.00
O34    O     0.25520   0.24774   0.23055   0.00000  Uiso   1.00
O35    O     0.18936   0.17155   0.21857   0.00000  Uiso   1.00
O36    O     0.31065   0.16179   0.11476   0.00000  Uiso   1.00
O37    O     0.18090   0.16176   0.11477   0.00000  Uiso   1.00
O38    O     0.31910   0.17157   0.21857   0.00000  Uiso   1.00
S39    S     0.39497   0.27941   0.19521   0.00000  Uiso   1.00
O40    O     0.39545   0.30705   0.25914   0.00000  Uiso   1.00
O41    O     0.42348   0.31361   0.16522   0.00000  Uiso   1.00
O42    O     0.34279   0.27115   0.16201   0.00000  Uiso   1.00
H43    H     0.33523   0.30689   0.16949   0.00000  Uiso   1.00
S44    S     0.10494   0.05398   0.13794   0.00000  Uiso   1.00
O45    O     0.07642   0.01973   0.16785   0.00000  Uiso   1.00
O46    O     0.10444   0.02644   0.07397   0.00000  Uiso   1.00
O47    O     0.15712   0.06217   0.17112   0.00000  Uiso   1.00
H48    H     0.16485   0.02650   0.16286   0.00000  Uiso   1.00
C49    C     0.36815   0.07335   0.14219   0.00000  Uiso   1.00
H50    H     0.36399   0.04341   0.10098   0.00000  Uiso   1.00
O51    O     0.34658   0.06599   0.18187   0.00000  Uiso   1.00
C52    C     0.13194   0.26005   0.19183   0.00000  Uiso   1.00
H53    H     0.13605   0.28979   0.23320   0.00000  Uiso   1.00
O54    O     0.15364   0.26764   0.15235   0.00000  Uiso   1.00
C55    C     0.01244   0.02644   0.07100   0.00000  Uiso   1.00
H56    H     0.03151   0.03108   0.03527   0.00000  Uiso   1.00
O57    O     0.49714   0.31592   0.07540   0.00000  Uiso   1.00
C58    C     0.48749   0.30711   0.26211   0.00000  Uiso   1.00
H59    H     0.46839   0.30257   0.29784   0.00000  Uiso   1.00
O60    O     0.00281   0.01760   0.25761   0.00000  Uiso   1.00
S61    S     0.19151   0.10495   0.31308   0.00000  Uiso   1.00
O62    O     0.15357   0.12777   0.28703   0.00000  Uiso   1.00
O63    O     0.20396   0.06100   0.26882   0.00000  Uiso   1.00
O64    O     0.17124   0.07724   0.03203   0.00000  Uiso   1.00
H65    H     0.17483   0.03972   0.02082   0.00000  Uiso   1.00
S66    S     0.30844   0.22846   0.02023   0.00000  Uiso   1.00
O67    O     0.29587   0.27244   0.06433   0.00000  Uiso   1.00
O68    O     0.34639   0.20577   0.04647   0.00000  Uiso   1.00
O69    O     0.32877   0.25609   0.30125   0.00000  Uiso   1.00
H70    H     0.32526   0.29363   0.31245   0.00000  Uiso   1.00
C71    C     0.74896   0.06702   0.15132   0.00000  Uiso   1.00
C72    C     0.75108   0.26632   0.18202   0.00000  Uiso   1.00
C73    C     0.50427   0.07342   0.11294   0.00000  Uiso   1.00
C74    C     0.99570   0.26006   0.22032   0.00000  Uiso   1.00
C75    C     0.74586   0.01069   0.14333   0.00000  Uiso   1.00
C76    C     0.75422   0.32266   0.19001   0.00000  Uiso   1.00
C77    C     0.66449   0.16364   0.16562   0.00000  Uiso   1.00
C78    C     0.83551   0.16972   0.16773   0.00000  Uiso   1.00
C79    C     0.91526   0.21822   0.18921   0.00000  Uiso   1.00
C80    C     0.58470   0.11521   0.14407   0.00000  Uiso   1.00
C81    C     0.88442   0.17082   0.16991   0.00000  Uiso   1.00
C82    C     0.61557   0.16259   0.16347   0.00000  Uiso   1.00
C83    C     0.89982   0.12282   0.15177   0.00000  Uiso   1.00
C84    C     0.60020   0.21059   0.18181   0.00000  Uiso   1.00
C85    C     0.94529   0.12201   0.14625   0.00000  Uiso   1.00
C86    C     0.55471   0.21142   0.18720   0.00000  Uiso   1.00
C87    C     0.97684   0.16794   0.16825   0.00000  Uiso   1.00
C88    C     0.52315   0.16551   0.16512   0.00000  Uiso   1.00
C89    C     0.96228   0.21604   0.19362   0.00000  Uiso   1.00
C90    C     0.53769   0.11743   0.13969   0.00000  Uiso   1.00
C91    C     0.95957   0.07597   0.11818   0.00000  Uiso   1.00
C92    C     0.54040   0.25748   0.21519   0.00000  Uiso   1.00
Cu93   Cu    0.75501   0.17246   0.22813   0.00000  Uiso   1.00
Cu94   Cu    0.74500   0.16087   0.10521   0.00000  Uiso   1.00
H95    H     0.93544   0.04195   0.09585   0.00000  Uiso   1.00
H96    H     0.56451   0.29153   0.23749   0.00000  Uiso   1.00
H97    H     0.73462   0.31989   0.09871   0.00000  Uiso   1.00
H98    H     0.76542   0.01346   0.23465   0.00000  Uiso   1.00
N99    N     0.73745   0.15214   0.01284   0.00000  Uiso   1.00
N100   N     0.76256   0.18119   0.32049   0.00000  Uiso   1.00
O101   O     0.75326   0.09538   0.20659   0.00000  Uiso   1.00
O102   O     0.74675   0.23796   0.12674   0.00000  Uiso   1.00
O103   O     0.74480   0.08559   0.10279   0.00000  Uiso   1.00
O104   O     0.75520   0.24774   0.23055   0.00000  Uiso   1.00
O105   O     0.68936   0.17155   0.21857   0.00000  Uiso   1.00
O106   O     0.81065   0.16179   0.11476   0.00000  Uiso   1.00
O107   O     0.68090   0.16176   0.11477   0.00000  Uiso   1.00
O108   O     0.81910   0.17157   0.21857   0.00000  Uiso   1.00
S109   S     0.89497   0.27941   0.19521   0.00000  Uiso   1.00
O110   O     0.89545   0.30705   0.25914   0.00000  Uiso   1.00
O111   O     0.92348   0.31361   0.16522   0.00000  Uiso   1.00
O112   O     0.84279   0.27115   0.16201   0.00000  Uiso   1.00
H113   H     0.83523   0.30689   0.16949   0.00000  Uiso   1.00
S114   S     0.60494   0.05398   0.13794   0.00000  Uiso   1.00
O115   O     0.57642   0.01973   0.16785   0.00000  Uiso   1.00
O116   O     0.60444   0.02644   0.07397   0.00000  Uiso   1.00
O117   O     0.65712   0.06217   0.17112   0.00000  Uiso   1.00
H118   H     0.66485   0.02650   0.16286   0.00000  Uiso   1.00
C119   C     0.86815   0.07335   0.14219   0.00000  Uiso   1.00
H120   H     0.86399   0.04341   0.10098   0.00000  Uiso   1.00
O121   O     0.84658   0.06599   0.18187   0.00000  Uiso   1.00
C122   C     0.63194   0.26005   0.19183   0.00000  Uiso   1.00
H123   H     0.63605   0.28979   0.23320   0.00000  Uiso   1.00
O124   O     0.65364   0.26764   0.15235   0.00000  Uiso   1.00
C125   C     0.51244   0.02644   0.07100   0.00000  Uiso   1.00
H126   H     0.53151   0.03108   0.03527   0.00000  Uiso   1.00
O127   O     0.99714   0.31592   0.07540   0.00000  Uiso   1.00
C128   C     0.98749   0.30711   0.26211   0.00000  Uiso   1.00
H129   H     0.96839   0.30257   0.29784   0.00000  Uiso   1.00
O130   O     0.50281   0.01760   0.25761   0.00000  Uiso   1.00
S131   S     0.69151   0.10495   0.31308   0.00000  Uiso   1.00
O132   O     0.65357   0.12777   0.28703   0.00000  Uiso   1.00
O133   O     0.70396   0.06100   0.26882   0.00000  Uiso   1.00
O134   O     0.67124   0.07724   0.03203   0.00000  Uiso   1.00
H135   H     0.67483   0.03972   0.02082   0.00000  Uiso   1.00
S136   S     0.80844   0.22846   0.02023   0.00000  Uiso   1.00
O137   O     0.79587   0.27244   0.06433   0.00000  Uiso   1.00
O138   O     0.84639   0.20577   0.04647   0.00000  Uiso   1.00
O139   O     0.82877   0.25609   0.30125   0.00000  Uiso   1.00
H140   H     0.82526   0.29363   0.31245   0.00000  Uiso   1.00
C141   C     0.24896   0.40035   0.15132   0.00000  Uiso   1.00
C142   C     0.25108   0.59965   0.18202   0.00000  Uiso   1.00
C143   C     0.00427   0.40676   0.11294   0.00000  Uiso   1.00
C144   C     0.49570   0.59339   0.22032   0.00000  Uiso   1.00
C145   C     0.24586   0.34403   0.14333   0.00000  Uiso   1.00
C146   C     0.25422   0.65599   0.19001   0.00000  Uiso   1.00
C147   C     0.16449   0.49698   0.16562   0.00000  Uiso   1.00
C148   C     0.33551   0.50306   0.16773   0.00000  Uiso   1.00
C149   C     0.41526   0.55156   0.18921   0.00000  Uiso   1.00
C150   C     0.08470   0.44854   0.14407   0.00000  Uiso   1.00
C151   C     0.38442   0.50415   0.16991   0.00000  Uiso   1.00
C152   C     0.11557   0.49592   0.16347   0.00000  Uiso   1.00
C153   C     0.39982   0.45615   0.15177   0.00000  Uiso   1.00
C154   C     0.10020   0.54392   0.18181   0.00000  Uiso   1.00
C155   C     0.44529   0.45535   0.14625   0.00000  Uiso   1.00
C156   C     0.05471   0.54475   0.18720   0.00000  Uiso   1.00
C157   C     0.47684   0.50127   0.16825   0.00000  Uiso   1.00
C158   C     0.02315   0.49885   0.16512   0.00000  Uiso   1.00
C159   C     0.46228   0.54937   0.19362   0.00000  Uiso   1.00
C160   C     0.03769   0.45076   0.13969   0.00000  Uiso   1.00
C161   C     0.45957   0.40930   0.11818   0.00000  Uiso   1.00
C162   C     0.04040   0.59082   0.21519   0.00000  Uiso   1.00
Cu163  Cu    0.25501   0.50579   0.22813   0.00000  Uiso   1.00
Cu164  Cu    0.24500   0.49421   0.10521   0.00000  Uiso   1.00
H165   H     0.43544   0.37528   0.09585   0.00000  Uiso   1.00
H166   H     0.06451   0.62487   0.23749   0.00000  Uiso   1.00
H167   H     0.23462   0.65323   0.09871   0.00000  Uiso   1.00
H168   H     0.26542   0.34679   0.23465   0.00000  Uiso   1.00
N169   N     0.23745   0.48547   0.01284   0.00000  Uiso   1.00
N170   N     0.26256   0.51453   0.32049   0.00000  Uiso   1.00
O171   O     0.25326   0.42871   0.20659   0.00000  Uiso   1.00
O172   O     0.24675   0.57129   0.12674   0.00000  Uiso   1.00
O173   O     0.24480   0.41892   0.10279   0.00000  Uiso   1.00
O174   O     0.25520   0.58108   0.23055   0.00000  Uiso   1.00
O175   O     0.18936   0.50488   0.21857   0.00000  Uiso   1.00
O176   O     0.31065   0.49512   0.11476   0.00000  Uiso   1.00
O177   O     0.18090   0.49510   0.11477   0.00000  Uiso   1.00
O178   O     0.31910   0.50490   0.21857   0.00000  Uiso   1.00
S179   S     0.39497   0.61275   0.19521   0.00000  Uiso   1.00
O180   O     0.39545   0.64038   0.25914   0.00000  Uiso   1.00
O181   O     0.42348   0.64694   0.16522   0.00000  Uiso   1.00
O182   O     0.34279   0.60448   0.16201   0.00000  Uiso   1.00
H183   H     0.33523   0.64022   0.16949   0.00000  Uiso   1.00
S184   S     0.10494   0.38731   0.13794   0.00000  Uiso   1.00
O185   O     0.07642   0.35306   0.16785   0.00000  Uiso   1.00
O186   O     0.10444   0.35977   0.07397   0.00000  Uiso   1.00
O187   O     0.15712   0.39550   0.17112   0.00000  Uiso   1.00
H188   H     0.16485   0.35984   0.16286   0.00000  Uiso   1.00
C189   C     0.36815   0.40668   0.14219   0.00000  Uiso   1.00
H190   H     0.36399   0.37675   0.10098   0.00000  Uiso   1.00
O191   O     0.34658   0.39933   0.18187   0.00000  Uiso   1.00
C192   C     0.13194   0.59339   0.19183   0.00000  Uiso   1.00
H193   H     0.13605   0.62312   0.23320   0.00000  Uiso   1.00
O194   O     0.15364   0.60097   0.15235   0.00000  Uiso   1.00
C195   C     0.01244   0.35978   0.07100   0.00000  Uiso   1.00
H196   H     0.03151   0.36442   0.03527   0.00000  Uiso   1.00
O197   O     0.49714   0.64925   0.07540   0.00000  Uiso   1.00
C198   C     0.48749   0.64045   0.26211   0.00000  Uiso   1.00
H199   H     0.46839   0.63590   0.29784   0.00000  Uiso   1.00
O200   O     0.00281   0.35093   0.25761   0.00000  Uiso   1.00
S201   S     0.19151   0.43829   0.31308   0.00000  Uiso   1.00
O202   O     0.15357   0.46110   0.28703   0.00000  Uiso   1.00
O203   O     0.20396   0.39433   0.26882   0.00000  Uiso   1.00
O204   O     0.17124   0.41057   0.03203   0.00000  Uiso   1.00
H205   H     0.17483   0.37306   0.02082   0.00000  Uiso   1.00
S206   S     0.30844   0.56179   0.02023   0.00000  Uiso   1.00
O207   O     0.29587   0.60577   0.06433   0.00000  Uiso   1.00
O208   O     0.34639   0.53910   0.04647   0.00000  Uiso   1.00
O209   O     0.32877   0.58942   0.30125   0.00000  Uiso   1.00
H210   H     0.32526   0.62696   0.31245   0.00000  Uiso   1.00
C211   C     0.74896   0.40035   0.15132   0.00000  Uiso   1.00
C212   C     0.75108   0.59965   0.18202   0.00000  Uiso   1.00
C213   C     0.50427   0.40676   0.11294   0.00000  Uiso   1.00
C214   C     0.99570   0.59339   0.22032   0.00000  Uiso   1.00
C215   C     0.74586   0.34403   0.14333   0.00000  Uiso   1.00
C216   C     0.75422   0.65599   0.19001   0.00000  Uiso   1.00
C217   C     0.66449   0.49698   0.16562   0.00000  Uiso   1.00
C218   C     0.83551   0.50306   0.16773   0.00000  Uiso   1.00
C219   C     0.91526   0.55156   0.18921   0.00000  Uiso   1.00
C220   C     0.58470   0.44854   0.14407   0.00000  Uiso   1.00
C221   C     0.88442   0.50415   0.16991   0.00000  Uiso   1.00
C222   C     0.61557   0.49592   0.16347   0.00000  Uiso   1.00
C223   C     0.89982   0.45615   0.15177   0.00000  Uiso   1.00
C224   C     0.60020   0.54392   0.18181   0.00000  Uiso   1.00
C225   C     0.94529   0.45535   0.14625   0.00000  Uiso   1.00
C226   C     0.55471   0.54475   0.18720   0.00000  Uiso   1.00
C227   C     0.97684   0.50127   0.16825   0.00000  Uiso   1.00
C228   C     0.52315   0.49885   0.16512   0.00000  Uiso   1.00
C229   C     0.96228   0.54937   0.19362   0.00000  Uiso   1.00
C230   C     0.53769   0.45076   0.13969   0.00000  Uiso   1.00
C231   C     0.95957   0.40930   0.11818   0.00000  Uiso   1.00
C232   C     0.54040   0.59082   0.21519   0.00000  Uiso   1.00
Cu233  Cu    0.75501   0.50579   0.22813   0.00000  Uiso   1.00
Cu234  Cu    0.74500   0.49421   0.10521   0.00000  Uiso   1.00
H235   H     0.93544   0.37528   0.09585   0.00000  Uiso   1.00
H236   H     0.56451   0.62487   0.23749   0.00000  Uiso   1.00
H237   H     0.73462   0.65323   0.09871   0.00000  Uiso   1.00
H238   H     0.76542   0.34679   0.23465   0.00000  Uiso   1.00
N239   N     0.73745   0.48547   0.01284   0.00000  Uiso   1.00
N240   N     0.76256   0.51453   0.32049   0.00000  Uiso   1.00
O241   O     0.75326   0.42871   0.20659   0.00000  Uiso   1.00
O242   O     0.74675   0.57129   0.12674   0.00000  Uiso   1.00
O243   O     0.74480   0.41892   0.10279   0.00000  Uiso   1.00
O244   O     0.75520   0.58108   0.23055   0.00000  Uiso   1.00
O245   O     0.68936   0.50488   0.21857   0.00000  Uiso   1.00
O246   O     0.81065   0.49512   0.11476   0.00000  Uiso   1.00
O247   O     0.68090   0.49510   0.11477   0.00000  Uiso   1.00
O248   O     0.81910   0.50490   0.21857   0.00000  Uiso   1.00
S249   S     0.89497   0.61275   0.19521   0.00000  Uiso   1.00
O250   O     0.89545   0.64038   0.25914   0.00000  Uiso   1.00
O251   O     0.92348   0.64694   0.16522   0.00000  Uiso   1.00
O252   O     0.84279   0.60448   0.16201   0.00000  Uiso   1.00
H253   H     0.83523   0.64022   0.16949   0.00000  Uiso   1.00
S254   S     0.60494   0.38731   0.13794   0.00000  Uiso   1.00
O255   O     0.57642   0.35306   0.16785   0.00000  Uiso   1.00
O256   O     0.60444   0.35977   0.07397   0.00000  Uiso   1.00
O257   O     0.65712   0.39550   0.17112   0.00000  Uiso   1.00
H258   H     0.66485   0.35984   0.16286   0.00000  Uiso   1.00
C259   C     0.86815   0.40668   0.14219   0.00000  Uiso   1.00
H260   H     0.86399   0.37675   0.10098   0.00000  Uiso   1.00
O261   O     0.84658   0.39933   0.18187   0.00000  Uiso   1.00
C262   C     0.63194   0.59339   0.19183   0.00000  Uiso   1.00
H263   H     0.63605   0.62312   0.23320   0.00000  Uiso   1.00
O264   O     0.65364   0.60097   0.15235   0.00000  Uiso   1.00
C265   C     0.51244   0.35978   0.07100   0.00000  Uiso   1.00
H266   H     0.53151   0.36442   0.03527   0.00000  Uiso   1.00
O267   O     0.99714   0.64925   0.07540   0.00000  Uiso   1.00
C268   C     0.98749   0.64045   0.26211   0.00000  Uiso   1.00
H269   H     0.96839   0.63590   0.29784   0.00000  Uiso   1.00
O270   O     0.50281   0.35093   0.25761   0.00000  Uiso   1.00
S271   S     0.69151   0.43829   0.31308   0.00000  Uiso   1.00
O272   O     0.65357   0.46110   0.28703   0.00000  Uiso   1.00
O273   O     0.70396   0.39433   0.26882   0.00000  Uiso   1.00
O274   O     0.67124   0.41057   0.03203   0.00000  Uiso   1.00
H275   H     0.67483   0.37306   0.02082   0.00000  Uiso   1.00
S276   S     0.80844   0.56179   0.02023   0.00000  Uiso   1.00
O277   O     0.79587   0.60577   0.06433   0.00000  Uiso   1.00
O278   O     0.84639   0.53910   0.04647   0.00000  Uiso   1.00
O279   O     0.82877   0.58942   0.30125   0.00000  Uiso   1.00
H280   H     0.82526   0.62696   0.31245   0.00000  Uiso   1.00
C281   C     0.24896   0.73369   0.15132   0.00000  Uiso   1.00
C282   C     0.25108   0.93299   0.18202   0.00000  Uiso   1.00
C283   C     0.00427   0.74009   0.11294   0.00000  Uiso   1.00
C284   C     0.49570   0.92673   0.22032   0.00000  Uiso   1.00
C285   C     0.24586   0.67736   0.14333   0.00000  Uiso   1.00
C286   C     0.25422   0.98932   0.19001   0.00000  Uiso   1.00
C287   C     0.16449   0.83031   0.16562   0.00000  Uiso   1.00
C288   C     0.33551   0.83639   0.16773   0.00000  Uiso   1.00
C289   C     0.41526   0.88489   0.18921   0.00000  Uiso   1.00
C290   C     0.08470   0.78188   0.14407   0.00000  Uiso   1.00
C291   C     0.38442   0.83749   0.16991   0.00000  Uiso   1.00
C292   C     0.11557   0.82926   0.16347   0.00000  Uiso   1.00
C293   C     0.39982   0.78948   0.15177   0.00000  Uiso   1.00
C294   C     0.10020   0.87726   0.18181   0.00000  Uiso   1.00
C295   C     0.44529   0.78868   0.14625   0.00000  Uiso   1.00
C296   C     0.05471   0.87809   0.18720   0.00000  Uiso   1.00
C297   C     0.47684   0.83461   0.16825   0.00000  Uiso   1.00
C298   C     0.02315   0.83218   0.16512   0.00000  Uiso   1.00
C299   C     0.46228   0.88270   0.19362   0.00000  Uiso   1.00
C300   C     0.03769   0.78409   0.13969   0.00000  Uiso   1.00
C301   C     0.45957   0.74264   0.11818   0.00000  Uiso   1.00
C302   C     0.04040   0.92415   0.21519   0.00000  Uiso   1.00
Cu303  Cu    0.25501   0.83913   0.22813   0.00000  Uiso   1.00
Cu304  Cu    0.24500   0.82754   0.10521   0.00000  Uiso   1.00
H305   H     0.43544   0.70861   0.09585   0.00000  Uiso   1.00
H306   H     0.06451   0.95820   0.23749   0.00000  Uiso   1.00
H307   H     0.23462   0.98656   0.09871   0.00000  Uiso   1.00
H308   H     0.26542   0.68012   0.23465   0.00000  Uiso   1.00
N309   N     0.23745   0.81881   0.01284   0.00000  Uiso   1.00
N310   N     0.26256   0.84786   0.32049   0.00000  Uiso   1.00
O311   O     0.25326   0.76204   0.20659   0.00000  Uiso   1.00
O312   O     0.24675   0.90462   0.12674   0.00000  Uiso   1.00
O313   O     0.24480   0.75226   0.10279   0.00000  Uiso   1.00
O314   O     0.25520   0.91441   0.23055   0.00000  Uiso   1.00
O315   O     0.18936   0.83821   0.21857   0.00000  Uiso   1.00
O316   O     0.31065   0.82845   0.11476   0.00000  Uiso   1.00
O317   O     0.18090   0.82843   0.11477   0.00000  Uiso   1.00
O318   O     0.31910   0.83824   0.21857   0.00000  Uiso   1.00
S319   S     0.39497   0.94608   0.19521   0.00000  Uiso   1.00
O320   O     0.39545   0.97372   0.25914   0.00000  Uiso   1.00
O321   O     0.42348   0.98027   0.16522   0.00000  Uiso   1.00
O322   O     0.34279   0.93781   0.16201   0.00000  Uiso   1.00
H323   H     0.33523   0.97356   0.16949   0.00000  Uiso   1.00
S324   S     0.10494   0.72065   0.13794   0.00000  Uiso   1.00
O325   O     0.07642   0.68640   0.16785   0.00000  Uiso   1.00
O326   O     0.10444   0.69311   0.07397   0.00000  Uiso   1.00
O327   O     0.15712   0.72884   0.17112   0.00000  Uiso   1.00
H328   H     0.16485   0.69317   0.16286   0.00000  Uiso   1.00
C329   C     0.36815   0.74002   0.14219   0.00000  Uiso   1.00
H330   H     0.36399   0.71008   0.10098   0.00000  Uiso   1.00
O331   O     0.34658   0.73266   0.18187   0.00000  Uiso   1.00
C332   C     0.13194   0.92672   0.19183   0.00000  Uiso   1.00
H333   H     0.13605   0.95646   0.23320   0.00000  Uiso   1.00
O334   O     0.15364   0.93430   0.15235   0.00000  Uiso   1.00
C335   C     0.01244   0.69311   0.07100   0.00000  Uiso   1.00
H336   H     0.03151   0.69775   0.03527   0.00000  Uiso   1.00
O337   O     0.49714   0.98258   0.07540   0.00000  Uiso   1.00
C338   C     0.48749   0.97378   0.26211   0.00000  Uiso   1.00
H339   H     0.46839   0.96923   0.29784   0.00000  Uiso   1.00
O340   O     0.00281   0.68427   0.25761   0.00000  Uiso   1.00
S341   S     0.19151   0.77162   0.31308   0.00000  Uiso   1.00
O342   O     0.15357   0.79443   0.28703   0.00000  Uiso   1.00
O343   O     0.20396   0.72767   0.26882   0.00000  Uiso   1.00
O344   O     0.17124   0.74390   0.03203   0.00000  Uiso   1.00
H345   H     0.17483   0.70639   0.02082   0.00000  Uiso   1.00
S346   S     0.30844   0.89513   0.02023   0.00000  Uiso   1.00
O347   O     0.29587   0.93910   0.06433   0.00000  Uiso   1.00
O348   O     0.34639   0.87244   0.04647   0.00000  Uiso   1.00
O349   O     0.32877   0.92276   0.30125   0.00000  Uiso   1.00
H350   H     0.32526   0.96030   0.31245   0.00000  Uiso   1.00
C351   C     0.74896   0.73369   0.15132   0.00000  Uiso   1.00
C352   C     0.75108   0.93299   0.18202   0.00000  Uiso   1.00
C353   C     0.50427   0.74009   0.11294   0.00000  Uiso   1.00
C354   C     0.99570   0.92673   0.22032   0.00000  Uiso   1.00
C355   C     0.74586   0.67736   0.14333   0.00000  Uiso   1.00
C356   C     0.75422   0.98932   0.19001   0.00000  Uiso   1.00
C357   C     0.66449   0.83031   0.16562   0.00000  Uiso   1.00
C358   C     0.83551   0.83639   0.16773   0.00000  Uiso   1.00
C359   C     0.91526   0.88489   0.18921   0.00000  Uiso   1.00
C360   C     0.58470   0.78188   0.14407   0.00000  Uiso   1.00
C361   C     0.88442   0.83749   0.16991   0.00000  Uiso   1.00
C362   C     0.61557   0.82926   0.16347   0.00000  Uiso   1.00
C363   C     0.89982   0.78948   0.15177   0.00000  Uiso   1.00
C364   C     0.60020   0.87726   0.18181   0.00000  Uiso   1.00
C365   C     0.94529   0.78868   0.14625   0.00000  Uiso   1.00
C366   C     0.55471   0.87809   0.18720   0.00000  Uiso   1.00
C367   C     0.97684   0.83461   0.16825   0.00000  Uiso   1.00
C368   C     0.52315   0.83218   0.16512   0.00000  Uiso   1.00
C369   C     0.96228   0.88270   0.19362   0.00000  Uiso   1.00
C370   C     0.53769   0.78409   0.13969   0.00000  Uiso   1.00
C371   C     0.95957   0.74264   0.11818   0.00000  Uiso   1.00
C372   C     0.54040   0.92415   0.21519   0.00000  Uiso   1.00
Cu373  Cu    0.75501   0.83913   0.22813   0.00000  Uiso   1.00
Cu374  Cu    0.74500   0.82754   0.10521   0.00000  Uiso   1.00
H375   H     0.93544   0.70861   0.09585   0.00000  Uiso   1.00
H376   H     0.56451   0.95820   0.23749   0.00000  Uiso   1.00
H377   H     0.73462   0.98656   0.09871   0.00000  Uiso   1.00
H378   H     0.76542   0.68012   0.23465   0.00000  Uiso   1.00
N379   N     0.73745   0.81881   0.01284   0.00000  Uiso   1.00
N380   N     0.76256   0.84786   0.32049   0.00000  Uiso   1.00
O381   O     0.75326   0.76204   0.20659   0.00000  Uiso   1.00
O382   O     0.74675   0.90462   0.12674   0.00000  Uiso   1.00
O383   O     0.74480   0.75226   0.10279   0.00000  Uiso   1.00
O384   O     0.75520   0.91441   0.23055   0.00000  Uiso   1.00
O385   O     0.68936   0.83821   0.21857   0.00000  Uiso   1.00
O386   O     0.81065   0.82845   0.11476   0.00000  Uiso   1.00
O387   O     0.68090   0.82843   0.11477   0.00000  Uiso   1.00
O388   O     0.81910   0.83824   0.21857   0.00000  Uiso   1.00
S389   S     0.89497   0.94608   0.19521   0.00000  Uiso   1.00
O390   O     0.89545   0.97372   0.25914   0.00000  Uiso   1.00
O391   O     0.92348   0.98027   0.16522   0.00000  Uiso   1.00
O392   O     0.84279   0.93781   0.16201   0.00000  Uiso   1.00
H393   H     0.83523   0.97356   0.16949   0.00000  Uiso   1.00
S394   S     0.60494   0.72065   0.13794   0.00000  Uiso   1.00
O395   O     0.57642   0.68640   0.16785   0.00000  Uiso   1.00
O396   O     0.60444   0.69311   0.07397   0.00000  Uiso   1.00
O397   O     0.65712   0.72884   0.17112   0.00000  Uiso   1.00
H398   H     0.66485   0.69317   0.16286   0.00000  Uiso   1.00
C399   C     0.86815   0.74002   0.14219   0.00000  Uiso   1.00
H400   H     0.86399   0.71008   0.10098   0.00000  Uiso   1.00
O401   O     0.84658   0.73266   0.18187   0.00000  Uiso   1.00
C402   C     0.63194   0.92672   0.19183   0.00000  Uiso   1.00
H403   H     0.63605   0.95646   0.23320   0.00000  Uiso   1.00
O404   O     0.65364   0.93430   0.15235   0.00000  Uiso   1.00
C405   C     0.51244   0.69311   0.07100   0.00000  Uiso   1.00
H406   H     0.53151   0.69775   0.03527   0.00000  Uiso   1.00
O407   O     0.99714   0.98258   0.07540   0.00000  Uiso   1.00
C408   C     0.98749   0.97378   0.26211   0.00000  Uiso   1.00
H409   H     0.96839   0.96923   0.29784   0.00000  Uiso   1.00
O410   O     0.50281   0.68427   0.25761   0.00000  Uiso   1.00
S411   S     0.69151   0.77162   0.31308   0.00000  Uiso   1.00
O412   O     0.65357   0.79443   0.28703   0.00000  Uiso   1.00
O413   O     0.70396   0.72767   0.26882   0.00000  Uiso   1.00
O414   O     0.67124   0.74390   0.03203   0.00000  Uiso   1.00
H415   H     0.67483   0.70639   0.02082   0.00000  Uiso   1.00
S416   S     0.80844   0.89513   0.02023   0.00000  Uiso   1.00
O417   O     0.79587   0.93910   0.06433   0.00000  Uiso   1.00
O418   O     0.84639   0.87244   0.04647   0.00000  Uiso   1.00
O419   O     0.82877   0.92276   0.30125   0.00000  Uiso   1.00
H420   H     0.82526   0.96030   0.31245   0.00000  Uiso   1.00
C421   C     0.24896   0.06702   0.48466   0.00000  Uiso   1.00
C422   C     0.25108   0.26632   0.51535   0.00000  Uiso   1.00
C423   C     0.00427   0.07342   0.44627   0.00000  Uiso   1.00
C424   C     0.49570   0.26006   0.55366   0.00000  Uiso   1.00
C425   C     0.24586   0.01069   0.47667   0.00000  Uiso   1.00
C426   C     0.25422   0.32266   0.52335   0.00000  Uiso   1.00
C427   C     0.16449   0.16364   0.49895   0.00000  Uiso   1.00
C428   C     0.33551   0.16972   0.50106   0.00000  Uiso   1.00
C429   C     0.41526   0.21822   0.52254   0.00000  Uiso   1.00
C430   C     0.08470   0.11521   0.47740   0.00000  Uiso   1.00
C431   C     0.38442   0.17082   0.50324   0.00000  Uiso   1.00
C432   C     0.11557   0.16259   0.49680   0.00000  Uiso   1.00
C433   C     0.39982   0.12282   0.48510   0.00000  Uiso   1.00
C434   C     0.10020   0.21059   0.51514   0.00000  Uiso   1.00
C435   C     0.44529   0.12201   0.47958   0.00000  Uiso   1.00
C436   C     0.05471   0.21142   0.52054   0.00000  Uiso   1.00
C437   C     0.47684   0.16794   0.50158   0.00000  Uiso   1.00
C438   C     0.02315   0.16551   0.49846   0.00000  Uiso   1.00
C439   C     0.46228   0.21604   0.52696   0.00000  Uiso   1.00
C440   C     0.03769   0.11743   0.47302   0.00000  Uiso   1.00
C441   C     0.45957   0.07597   0.45151   0.00000  Uiso   1.00
C442   C     0.04040   0.25748   0.54853   0.00000  Uiso   1.00
Cu443  Cu    0.25501   0.17246   0.56146   0.00000  Uiso   1.00
Cu444  Cu    0.24500   0.16087   0.43854   0.00000  Uiso   1.00
H445   H     0.43544   0.04195   0.42919   0.00000  Uiso   1.00
H446   H     0.06451   0.29153   0.57082   0.00000  Uiso   1.00
H447   H     0.23462   0.31989   0.43204   0.00000  Uiso   1.00
H448   H     0.26542   0.01346   0.56798   0.00000  Uiso   1.00
N449   N     0.23745   0.15214   0.34617   0.00000  Uiso   1.00
N450   N     0.26256   0.18119   0.65383   0.00000  Uiso   1.00
O451   O     0.25326   0.09538   0.53992   0.00000  Uiso   1.00
O452   O     0.24675   0.23796   0.46008   0.00000  Uiso   1.00
O453   O     0.24480   0.08559   0.43612   0.00000  Uiso   1.00
O454   O     0.25520   0.24774   0.56388   0.00000  Uiso   1.00
O455   O     0.18936   0.17155   0.55191   0.00000  Uiso   1.00
O456   O     0.31065   0.16179   0.44809   0.00000  Uiso   1.00
O457   O     0.18090   0.16176   0.44810   0.00000  Uiso   1.00
O458   O     0.31910   0.17157   0.55190   0.00000  Uiso   1.00
S459   S     0.39497   0.27941   0.52855   0.00000  Uiso   1.00
O460   O     0.39545   0.30705   0.59247   0.00000  Uiso   1.00
O461   O     0.42348   0.31361   0.49856   0.00000  Uiso   1.00
O462   O     0.34279   0.27115   0.49535   0.00000  Uiso   1.00
H463   H     0.33523   0.30689   0.50283   0.00000  Uiso   1.00
S464   S     0.10494   0.05398   0.47127   0.00000  Uiso   1.00
O465   O     0.07642   0.01973   0.50119   0.00000  Uiso   1.00
O466   O     0.10444   0.02644   0.40730   0.00000  Uiso   1.00
O467   O     0.15712   0.06217   0.50445   0.00000  Uiso   1.00
H468   H     0.16485   0.02650   0.49620   0.00000  Uiso   1.00
C469   C     0.36815   0.07335   0.47552   0.00000  Uiso   1.00
H470   H     0.36399   0.04341   0.43431   0.00000  Uiso   1.00
O471   O     0.34658   0.06599   0.51520   0.00000  Uiso   1.00
C472   C     0.13194   0.26005   0.52516   0.00000  Uiso   1.00
H473   H     0.13605   0.28979   0.56654   0.00000  Uiso   1.00
O474   O     0.15364   0.26764   0.48569   0.00000  Uiso   1.00
C475   C     0.01244   0.02644   0.40434   0.00000  Uiso   1.00
H476   H     0.03151   0.03108   0.36860   0.00000  Uiso   1.00
O477   O     0.49714   0.31592   0.40873   0.00000  Uiso   1.00
C478   C     0.48749   0.30711   0.59544   0.00000  Uiso   1.00
H479   H     0.46839   0.30257   0.63118   0.00000  Uiso   1.00
O480   O     0.00281   0.01760   0.59094   0.00000  Uiso   1.00
S481   S     0.19151   0.10495   0.64642   0.00000  Uiso   1.00
O482   O     0.15357   0.12777   0.62036   0.00000  Uiso   1.00
O483   O     0.20396   0.06100   0.60215   0.00000  Uiso   1.00
O484   O     0.17124   0.07724   0.36537   0.00000  Uiso   1.00
H485   H     0.17483   0.03972   0.35415   0.00000  Uiso   1.00
S486   S     0.30844   0.22846   0.35357   0.00000  Uiso   1.00
O487   O     0.29587   0.27244   0.39767   0.00000  Uiso   1.00
O488   O     0.34639   0.20577   0.37980   0.00000  Uiso   1.00
O489   O     0.32877   0.25609   0.63458   0.00000  Uiso   1.00
H490   H     0.32526   0.29363   0.64579   0.00000  Uiso   1.00
C491   C     0.74896   0.06702   0.48466   0.00000  Uiso   1.00
C492   C     0.75108   0.26632   0.51535   0.00000  Uiso   1.00
C493   C     0.50427   0.07342   0.44627   0.00000  Uiso   1.00
C494   C     0.99570   0.26006   0.55366   0.00000  Uiso   1.00
C495   C     0.74586   0.01069   0.47667   0.00000  Uiso   1.00
C496   C     0.75422   0.32266   0.52335   0.00000  Uiso   1.00
C497   C     0.66449   0.16364   0.49895   0.00000  Uiso   1.00
C498   C     0.83551   0.16972   0.50106   0.00000  Uiso   1.00
C499   C     0.91526   0.21822   0.52254   0.00000  Uiso   1.00
C500   C     0.58470   0.11521   0.47740   0.00000  Uiso   1.00
C501   C     0.88442   0.17082   0.50324   0.00000  Uiso   1.00
C502   C     0.61557   0.16259   0.49680   0.00000  Uiso   1.00
C503   C     0.89982   0.12282   0.48510   0.00000  Uiso   1.00
C504   C     0.60020   0.21059   0.51514   0.00000  Uiso   1.00
C505   C     0.94529   0.12201   0.47958   0.00000  Uiso   1.00
C506   C     0.55471   0.21142   0.52054   0.00000  Uiso   1.00
C507   C     0.97684   0.16794   0.50158   0.00000  Uiso   1.00
C508   C     0.52315   0.16551   0.49846   0.00000  Uiso   1.00
C509   C     0.96228   0.21604   0.52696   0.00000  Uiso   1.00
C510   C     0.53769   0.11743   0.47302   0.00000  Uiso   1.00
C511   C     0.95957   0.07597   0.45151   0.00000  Uiso   1.00
C512   C     0.54040   0.25748   0.54853   0.00000  Uiso   1.00
Cu513  Cu    0.75501   0.17246   0.56146   0.00000  Uiso   1.00
Cu514  Cu    0.74500   0.16087   0.43854   0.00000  Uiso   1.00
H515   H     0.93544   0.04195   0.42919   0.00000  Uiso   1.00
H516   H     0.56451   0.29153   0.57082   0.00000  Uiso   1.00
H517   H     0.73462   0.31989   0.43204   0.00000  Uiso   1.00
H518   H     0.76542   0.01346   0.56798   0.00000  Uiso   1.00
N519   N     0.73745   0.15214   0.34617   0.00000  Uiso   1.00
N520   N     0.76256   0.18119   0.65383   0.00000  Uiso   1.00
O521   O     0.75326   0.09538   0.53992   0.00000  Uiso   1.00
O522   O     0.74675   0.23796   0.46008   0.00000  Uiso   1.00
O523   O     0.74480   0.08559   0.43612   0.00000  Uiso   1.00
O524   O     0.75520   0.24774   0.56388   0.00000  Uiso   1.00
O525   O     0.68936   0.17155   0.55191   0.00000  Uiso   1.00
O526   O     0.81065   0.16179   0.44809   0.00000  Uiso   1.00
O527   O     0.68090   0.16176   0.44810   0.00000  Uiso   1.00
O528   O     0.81910   0.17157   0.55190   0.00000  Uiso   1.00
S529   S     0.89497   0.27941   0.52855   0.00000  Uiso   1.00
O530   O     0.89545   0.30705   0.59247   0.00000  Uiso   1.00
O531   O     0.92348   0.31361   0.49856   0.00000  Uiso   1.00
O532   O     0.84279   0.27115   0.49535   0.00000  Uiso   1.00
H533   H     0.83523   0.30689   0.50283   0.00000  Uiso   1.00
S534   S     0.60494   0.05398   0.47127   0.00000  Uiso   1.00
O535   O     0.57642   0.01973   0.50119   0.00000  Uiso   1.00
O536   O     0.60444   0.02644   0.40730   0.00000  Uiso   1.00
O537   O     0.65712   0.06217   0.50445   0.00000  Uiso   1.00
H538   H     0.66485   0.02650   0.49620   0.00000  Uiso   1.00
C539   C     0.86815   0.07335   0.47552   0.00000  Uiso   1.00
H540   H     0.86399   0.04341   0.43431   0.00000  Uiso   1.00
O541   O     0.84658   0.06599   0.51520   0.00000  Uiso   1.00
C542   C     0.63194   0.26005   0.52516   0.00000  Uiso   1.00
H543   H     0.63605   0.28979   0.56654   0.00000  Uiso   1.00
O544   O     0.65364   0.26764   0.48569   0.00000  Uiso   1.00
C545   C     0.51244   0.02644   0.40434   0.00000  Uiso   1.00
H546   H     0.53151   0.03108   0.36860   0.00000  Uiso   1.00
O547   O     0.99714   0.31592   0.40873   0.00000  Uiso   1.00
C548   C     0.98749   0.30711   0.59544   0.00000  Uiso   1.00
H549   H     0.96839   0.30257   0.63118   0.00000  Uiso   1.00
O550   O     0.50281   0.01760   0.59094   0.00000  Uiso   1.00
S551   S     0.69151   0.10495   0.64642   0.00000  Uiso   1.00
O552   O     0.65357   0.12777   0.62036   0.00000  Uiso   1.00
O553   O     0.70396   0.06100   0.60215   0.00000  Uiso   1.00
O554   O     0.67124   0.07724   0.36537   0.00000  Uiso   1.00
H555   H     0.67483   0.03972   0.35415   0.00000  Uiso   1.00
S556   S     0.80844   0.22846   0.35357   0.00000  Uiso   1.00
O557   O     0.79587   0.27244   0.39767   0.00000  Uiso   1.00
O558   O     0.84639   0.20577   0.37980   0.00000  Uiso   1.00
O559   O     0.82877   0.25609   0.63458   0.00000  Uiso   1.00
H560   H     0.82526   0.29363   0.64579   0.00000  Uiso   1.00
C561   C     0.24896   0.40035   0.48466   0.00000  Uiso   1.00
C562   C     0.25108   0.59965   0.51535   0.00000  Uiso   1.00
C563   C     0.00427   0.40676   0.44627   0.00000  Uiso   1.00
C564   C     0.49570   0.59339   0.55366   0.00000  Uiso   1.00
C565   C     0.24586   0.34403   0.47667   0.00000  Uiso   1.00
C566   C     0.25422   0.65599   0.52335   0.00000  Uiso   1.00
C567   C     0.16449   0.49698   0.49895   0.00000  Uiso   1.00
C568   C     0.33551   0.50306   0.50106   0.00000  Uiso   1.00
C569   C     0.41526   0.55156   0.52254   0.00000  Uiso   1.00
C570   C     0.08470   0.44854   0.47740   0.00000  Uiso   1.00
C571   C     0.38442   0.50415   0.50324   0.00000  Uiso   1.00
C572   C     0.11557   0.49592   0.49680   0.00000  Uiso   1.00
C573   C     0.39982   0.45615   0.48510   0.00000  Uiso   1.00
C574   C     0.10020   0.54392   0.51514   0.00000  Uiso   1.00
C575   C     0.44529   0.45535   0.47958   0.00000  Uiso   1.00
C576   C     0.05471   0.54475   0.52054   0.00000  Uiso   1.00
C577   C     0.47684   0.50127   0.50158   0.00000  Uiso   1.00
C578   C     0.02315   0.49885   0.49846   0.00000  Uiso   1.00
C579   C     0.46228   0.54937   0.52696   0.00000  Uiso   1.00
C580   C     0.03769   0.45076   0.47302   0.00000  Uiso   1.00
C581   C     0.45957   0.40930   0.45151   0.00000  Uiso   1.00
C582   C     0.04040   0.59082   0.54853   0.00000  Uiso   1.00
Cu583  Cu    0.25501   0.50579   0.56146   0.00000  Uiso   1.00
Cu584  Cu    0.24500   0.49421   0.43854   0.00000  Uiso   1.00
H585   H     0.43544   0.37528   0.42919   0.00000  Uiso   1.00
H586   H     0.06451   0.62487   0.57082   0.00000  Uiso   1.00
H587   H     0.23462   0.65323   0.43204   0.00000  Uiso   1.00
H588   H     0.26542   0.34679   0.56798   0.00000  Uiso   1.00
N589   N     0.23745   0.48547   0.34617   0.00000  Uiso   1.00
N590   N     0.26256   0.51453   0.65383   0.00000  Uiso   1.00
O591   O     0.25326   0.42871   0.53992   0.00000  Uiso   1.00
O592   O     0.24675   0.57129   0.46008   0.00000  Uiso   1.00
O593   O     0.24480   0.41892   0.43612   0.00000  Uiso   1.00
O594   O     0.25520   0.58108   0.56388   0.00000  Uiso   1.00
O595   O     0.18936   0.50488   0.55191   0.00000  Uiso   1.00
O596   O     0.31065   0.49512   0.44809   0.00000  Uiso   1.00
O597   O     0.18090   0.49510   0.44810   0.00000  Uiso   1.00
O598   O     0.31910   0.50490   0.55190   0.00000  Uiso   1.00
S599   S     0.39497   0.61275   0.52855   0.00000  Uiso   1.00
O600   O     0.39545   0.64038   0.59247   0.00000  Uiso   1.00
O601   O     0.42348   0.64694   0.49856   0.00000  Uiso   1.00
O602   O     0.34279   0.60448   0.49535   0.00000  Uiso   1.00
H603   H     0.33523   0.64022   0.50283   0.00000  Uiso   1.00
S604   S     0.10494   0.38731   0.47127   0.00000  Uiso   1.00
O605   O     0.07642   0.35306   0.50119   0.00000  Uiso   1.00
O606   O     0.10444   0.35977   0.40730   0.00000  Uiso   1.00
O607   O     0.15712   0.39550   0.50445   0.00000  Uiso   1.00
H608   H     0.16485   0.35984   0.49620   0.00000  Uiso   1.00
C609   C     0.36815   0.40668   0.47552   0.00000  Uiso   1.00
H610   H     0.36399   0.37675   0.43431   0.00000  Uiso   1.00
O611   O     0.34658   0.39933   0.51520   0.00000  Uiso   1.00
C612   C     0.13194   0.59339   0.52516   0.00000  Uiso   1.00
H613   H     0.13605   0.62312   0.56654   0.00000  Uiso   1.00
O614   O     0.15364   0.60097   0.48569   0.00000  Uiso   1.00
C615   C     0.01244   0.35978   0.40434   0.00000  Uiso   1.00
H616   H     0.03151   0.36442   0.36860   0.00000  Uiso   1.00
O617   O     0.49714   0.64925   0.40873   0.00000  Uiso   1.00
C618   C     0.48749   0.64045   0.59544   0.00000  Uiso   1.00
H619   H     0.46839   0.63590   0.63118   0.00000  Uiso   1.00
O620   O     0.00281   0.35093   0.59094   0.00000  Uiso   1.00
S621   S     0.19151   0.43829   0.64642   0.00000  Uiso   1.00
O622   O     0.15357   0.46110   0.62036   0.00000  Uiso   1.00
O623   O     0.20396   0.39433   0.60215   0.00000  Uiso   1.00
O624   O     0.17124   0.41057   0.36537   0.00000  Uiso   1.00
H625   H     0.17483   0.37306   0.35415   0.00000  Uiso   1.00
S626   S     0.30844   0.56179   0.35357   0.00000  Uiso   1.00
O627   O     0.29587   0.60577   0.39767   0.00000  Uiso   1.00
O628   O     0.34639   0.53910   0.37980   0.00000  Uiso   1.00
O629   O     0.32877   0.58942   0.63458   0.00000  Uiso   1.00
H630   H     0.32526   0.62696   0.64579   0.00000  Uiso   1.00
C631   C     0.74896   0.40035   0.48466   0.00000  Uiso   1.00
C632   C     0.75108   0.59965   0.51535   0.00000  Uiso   1.00
C633   C     0.50427   0.40676   0.44627   0.00000  Uiso   1.00
C634   C     0.99570   0.59339   0.55366   0.00000  Uiso   1.00
C635   C     0.74586   0.34403   0.47667   0.00000  Uiso   1.00
C636   C     0.75422   0.65599   0.52335   0.00000  Uiso   1.00
C637   C     0.66449   0.49698   0.49895   0.00000  Uiso   1.00
C638   C     0.83551   0.50306   0.50106   0.00000  Uiso   1.00
C639   C     0.91526   0.55156   0.52254   0.00000  Uiso   1.00
C640   C     0.58470   0.44854   0.47740   0.00000  Uiso   1.00
C641   C     0.88442   0.50415   0.50324   0.00000  Uiso   1.00
C642   C     0.61557   0.49592   0.49680   0.00000  Uiso   1.00
C643   C     0.89982   0.45615   0.48510   0.00000  Uiso   1.00
C644   C     0.60020   0.54392   0.51514   0.00000  Uiso   1.00
C645   C     0.94529   0.45535   0.47958   0.00000  Uiso   1.00
C646   C     0.55471   0.54475   0.52054   0.00000  Uiso   1.00
C647   C     0.97684   0.50127   0.50158   0.00000  Uiso   1.00
C648   C     0.52315   0.49885   0.49846   0.00000  Uiso   1.00
C649   C     0.96228   0.54937   0.52696   0.00000  Uiso   1.00
C650   C     0.53769   0.45076   0.47302   0.00000  Uiso   1.00
C651   C     0.95957   0.40930   0.45151   0.00000  Uiso   1.00
C652   C     0.54040   0.59082   0.54853   0.00000  Uiso   1.00
Cu653  Cu    0.75501   0.50579   0.56146   0.00000  Uiso   1.00
Cu654  Cu    0.74500   0.49421   0.43854   0.00000  Uiso   1.00
H655   H     0.93544   0.37528   0.42919   0.00000  Uiso   1.00
H656   H     0.56451   0.62487   0.57082   0.00000  Uiso   1.00
H657   H     0.73462   0.65323   0.43204   0.00000  Uiso   1.00
H658   H     0.76542   0.34679   0.56798   0.00000  Uiso   1.00
N659   N     0.73745   0.48547   0.34617   0.00000  Uiso   1.00
N660   N     0.76256   0.51453   0.65383   0.00000  Uiso   1.00
O661   O     0.75326   0.42871   0.53992   0.00000  Uiso   1.00
O662   O     0.74675   0.57129   0.46008   0.00000  Uiso   1.00
O663   O     0.74480   0.41892   0.43612   0.00000  Uiso   1.00
O664   O     0.75520   0.58108   0.56388   0.00000  Uiso   1.00
O665   O     0.68936   0.50488   0.55191   0.00000  Uiso   1.00
O666   O     0.81065   0.49512   0.44809   0.00000  Uiso   1.00
O667   O     0.68090   0.49510   0.44810   0.00000  Uiso   1.00
O668   O     0.81910   0.50490   0.55190   0.00000  Uiso   1.00
S669   S     0.89497   0.61275   0.52855   0.00000  Uiso   1.00
O670   O     0.89545   0.64038   0.59247   0.00000  Uiso   1.00
O671   O     0.92348   0.64694   0.49856   0.00000  Uiso   1.00
O672   O     0.84279   0.60448   0.49535   0.00000  Uiso   1.00
H673   H     0.83523   0.64022   0.50283   0.00000  Uiso   1.00
S674   S     0.60494   0.38731   0.47127   0.00000  Uiso   1.00
O675   O     0.57642   0.35306   0.50119   0.00000  Uiso   1.00
O676   O     0.60444   0.35977   0.40730   0.00000  Uiso   1.00
O677   O     0.65712   0.39550   0.50445   0.00000  Uiso   1.00
H678   H     0.66485   0.35984   0.49620   0.00000  Uiso   1.00
C679   C     0.86815   0.40668   0.47552   0.00000  Uiso   1.00
H680   H     0.86399   0.37675   0.43431   0.00000  Uiso   1.00
O681   O     0.84658   0.39933   0.51520   0.00000  Uiso   1.00
C682   C     0.63194   0.59339   0.52516   0.00000  Uiso   1.00
H683   H     0.63605   0.62312   0.56654   0.00000  Uiso   1.00
O684   O     0.65364   0.60097   0.48569   0.00000  Uiso   1.00
C685   C     0.51244   0.35978   0.40434   0.00000  Uiso   1.00
H686   H     0.53151   0.36442   0.36860   0.00000  Uiso   1.00
O687   O     0.99714   0.64925   0.40873   0.00000  Uiso   1.00
C688   C     0.98749   0.64045   0.59544   0.00000  Uiso   1.00
H689   H     0.96839   0.63590   0.63118   0.00000  Uiso   1.00
O690   O     0.50281   0.35093   0.59094   0.00000  Uiso   1.00
S691   S     0.69151   0.43829   0.64642   0.00000  Uiso   1.00
O692   O     0.65357   0.46110   0.62036   0.00000  Uiso   1.00
O693   O     0.70396   0.39433   0.60215   0.00000  Uiso   1.00
O694   O     0.67124   0.41057   0.36537   0.00000  Uiso   1.00
H695   H     0.67483   0.37306   0.35415   0.00000  Uiso   1.00
S696   S     0.80844   0.56179   0.35357   0.00000  Uiso   1.00
O697   O     0.79587   0.60577   0.39767   0.00000  Uiso   1.00
O698   O     0.84639   0.53910   0.37980   0.00000  Uiso   1.00
O699   O     0.82877   0.58942   0.63458   0.00000  Uiso   1.00
H700   H     0.82526   0.62696   0.64579   0.00000  Uiso   1.00
C701   C     0.24896   0.73369   0.48466   0.00000  Uiso   1.00
C702   C     0.25108   0.93299   0.51535   0.00000  Uiso   1.00
C703   C     0.00427   0.74009   0.44627   0.00000  Uiso   1.00
C704   C     0.49570   0.92673   0.55366   0.00000  Uiso   1.00
C705   C     0.24586   0.67736   0.47667   0.00000  Uiso   1.00
C706   C     0.25422   0.98932   0.52335   0.00000  Uiso   1.00
C707   C     0.16449   0.83031   0.49895   0.00000  Uiso   1.00
C708   C     0.33551   0.83639   0.50106   0.00000  Uiso   1.00
C709   C     0.41526   0.88489   0.52254   0.00000  Uiso   1.00
C710   C     0.08470   0.78188   0.47740   0.00000  Uiso   1.00
C711   C     0.38442   0.83749   0.50324   0.00000  Uiso   1.00
C712   C     0.11557   0.82926   0.49680   0.00000  Uiso   1.00
C713   C     0.39982   0.78948   0.48510   0.00000  Uiso   1.00
C714   C     0.10020   0.87726   0.51514   0.00000  Uiso   1.00
C715   C     0.44529   0.78868   0.47958   0.00000  Uiso   1.00
C716   C     0.05471   0.87809   0.52054   0.00000  Uiso   1.00
C717   C     0.47684   0.83461   0.50158   0.00000  Uiso   1.00
C718   C     0.02315   0.83218   0.49846   0.00000  Uiso   1.00
C719   C     0.46228   0.88270   0.52696   0.00000  Uiso   1.00
C720   C     0.03769   0.78409   0.47302   0.00000  Uiso   1.00
C721   C     0.45957   0.74264   0.45151   0.00000  Uiso   1.00
C722   C     0.04040   0.92415   0.54853   0.00000  Uiso   1.00
Cu723  Cu    0.25501   0.83913   0.56146   0.00000  Uiso   1.00
Cu724  Cu    0.24500   0.82754   0.43854   0.00000  Uiso   1.00
H725   H     0.43544   0.70861   0.42919   0.00000  Uiso   1.00
H726   H     0.06451   0.95820   0.57082   0.00000  Uiso   1.00
H727   H     0.23462   0.98656   0.43204   0.00000  Uiso   1.00
H728   H     0.26542   0.68012   0.56798   0.00000  Uiso   1.00
N729   N     0.23745   0.81881   0.34617   0.00000  Uiso   1.00
N730   N     0.26256   0.84786   0.65383   0.00000  Uiso   1.00
O731   O     0.25326   0.76204   0.53992   0.00000  Uiso   1.00
O732   O     0.24675   0.90462   0.46008   0.00000  Uiso   1.00
O733   O     0.24480   0.75226   0.43612   0.00000  Uiso   1.00
O734   O     0.25520   0.91441   0.56388   0.00000  Uiso   1.00
O735   O     0.18936   0.83821   0.55191   0.00000  Uiso   1.00
O736   O     0.31065   0.82845   0.44809   0.00000  Uiso   1.00
O737   O     0.18090   0.82843   0.44810   0.00000  Uiso   1.00
O738   O     0.31910   0.83824   0.55190   0.00000  Uiso   1.00
S739   S     0.39497   0.94608   0.52855   0.00000  Uiso   1.00
O740   O     0.39545   0.97372   0.59247   0.00000  Uiso   1.00
O741   O     0.42348   0.98027   0.49856   0.00000  Uiso   1.00
O742   O     0.34279   0.93781   0.49535   0.00000  Uiso   1.00
H743   H     0.33523   0.97356   0.50283   0.00000  Uiso   1.00
S744   S     0.10494   0.72065   0.47127   0.00000  Uiso   1.00
O745   O     0.07642   0.68640   0.50119   0.00000  Uiso   1.00
O746   O     0.10444   0.69311   0.40730   0.00000  Uiso   1.00
O747   O     0.15712   0.72884   0.50445   0.00000  Uiso   1.00
H748   H     0.16485   0.69317   0.49620   0.00000  Uiso   1.00
C749   C     0.36815   0.74002   0.47552   0.00000  Uiso   1.00
H750   H     0.36399   0.71008   0.43431   0.00000  Uiso   1.00
O751   O     0.34658   0.73266   0.51520   0.00000  Uiso   1.00
C752   C     0.13194   0.92672   0.52516   0.00000  Uiso   1.00
H753   H     0.13605   0.95646   0.56654   0.00000  Uiso   1.00
O754   O     0.15364   0.93430   0.48569   0.00000  Uiso   1.00
C755   C     0.01244   0.69311   0.40434   0.00000  Uiso   1.00
H756   H     0.03151   0.69775   0.36860   0.00000  Uiso   1.00
O757   O     0.49714   0.98258   0.40873   0.00000  Uiso   1.00
C758   C     0.48749   0.97378   0.59544   0.00000  Uiso   1.00
H759   H     0.46839   0.96923   0.63118   0.00000  Uiso   1.00
O760   O     0.00281   0.68427   0.59094   0.00000  Uiso   1.00
S761   S     0.19151   0.77162   0.64642   0.00000  Uiso   1.00
O762   O     0.15357   0.79443   0.62036   0.00000  Uiso   1.00
O763   O     0.20396   0.72767   0.60215   0.00000  Uiso   1.00
O764   O     0.17124   0.74390   0.36537   0.00000  Uiso   1.00
H765   H     0.17483   0.70639   0.35415   0.00000  Uiso   1.00
S766   S     0.30844   0.89513   0.35357   0.00000  Uiso   1.00
O767   O     0.29587   0.93910   0.39767   0.00000  Uiso   1.00
O768   O     0.34639   0.87244   0.37980   0.00000  Uiso   1.00
O769   O     0.32877   0.92276   0.63458   0.00000  Uiso   1.00
H770   H     0.32526   0.96030   0.64579   0.00000  Uiso   1.00
C771   C     0.74896   0.73369   0.48466   0.00000  Uiso   1.00
C772   C     0.75108   0.93299   0.51535   0.00000  Uiso   1.00
C773   C     0.50427   0.74009   0.44627   0.00000  Uiso   1.00
C774   C     0.99570   0.92673   0.55366   0.00000  Uiso   1.00
C775   C     0.74586   0.67736   0.47667   0.00000  Uiso   1.00
C776   C     0.75422   0.98932   0.52335   0.00000  Uiso   1.00
C777   C     0.66449   0.83031   0.49895   0.00000  Uiso   1.00
C778   C     0.83551   0.83639   0.50106   0.00000  Uiso   1.00
C779   C     0.91526   0.88489   0.52254   0.00000  Uiso   1.00
C780   C     0.58470   0.78188   0.47740   0.00000  Uiso   1.00
C781   C     0.88442   0.83749   0.50324   0.00000  Uiso   1.00
C782   C     0.61557   0.82926   0.49680   0.00000  Uiso   1.00
C783   C     0.89982   0.78948   0.48510   0.00000  Uiso   1.00
C784   C     0.60020   0.87726   0.51514   0.00000  Uiso   1.00
C785   C     0.94529   0.78868   0.47958   0.00000  Uiso   1.00
C786   C     0.55471   0.87809   0.52054   0.00000  Uiso   1.00
C787   C     0.97684   0.83461   0.50158   0.00000  Uiso   1.00
C788   C     0.52315   0.83218   0.49846   0.00000  Uiso   1.00
C789   C     0.96228   0.88270   0.52696   0.00000  Uiso   1.00
C790   C     0.53769   0.78409   0.47302   0.00000  Uiso   1.00
C791   C     0.95957   0.74264   0.45151   0.00000  Uiso   1.00
C792   C     0.54040   0.92415   0.54853   0.00000  Uiso   1.00
Cu793  Cu    0.75501   0.83913   0.56146   0.00000  Uiso   1.00
Cu794  Cu    0.74500   0.82754   0.43854   0.00000  Uiso   1.00
H795   H     0.93544   0.70861   0.42919   0.00000  Uiso   1.00
H796   H     0.56451   0.95820   0.57082   0.00000  Uiso   1.00
H797   H     0.73462   0.98656   0.43204   0.00000  Uiso   1.00
H798   H     0.76542   0.68012   0.56798   0.00000  Uiso   1.00
N799   N     0.73745   0.81881   0.34617   0.00000  Uiso   1.00
N800   N     0.76256   0.84786   0.65383   0.00000  Uiso   1.00
O801   O     0.75326   0.76204   0.53992   0.00000  Uiso   1.00
O802   O     0.74675   0.90462   0.46008   0.00000  Uiso   1.00
O803   O     0.74480   0.75226   0.43612   0.00000  Uiso   1.00
O804   O     0.75520   0.91441   0.56388   0.00000  Uiso   1.00
O805   O     0.68936   0.83821   0.55191   0.00000  Uiso   1.00
O806   O     0.81065   0.82845   0.44809   0.00000  Uiso   1.00
O807   O     0.68090   0.82843   0.44810   0.00000  Uiso   1.00
O808   O     0.81910   0.83824   0.55190   0.00000  Uiso   1.00
S809   S     0.89497   0.94608   0.52855   0.00000  Uiso   1.00
O810   O     0.89545   0.97372   0.59247   0.00000  Uiso   1.00
O811   O     0.92348   0.98027   0.49856   0.00000  Uiso   1.00
O812   O     0.84279   0.93781   0.49535   0.00000  Uiso   1.00
H813   H     0.83523   0.97356   0.50283   0.00000  Uiso   1.00
S814   S     0.60494   0.72065   0.47127   0.00000  Uiso   1.00
O815   O     0.57642   0.68640   0.50119   0.00000  Uiso   1.00
O816   O     0.60444   0.69311   0.40730   0.00000  Uiso   1.00
O817   O     0.65712   0.72884   0.50445   0.00000  Uiso   1.00
H818   H     0.66485   0.69317   0.49620   0.00000  Uiso   1.00
C819   C     0.86815   0.74002   0.47552   0.00000  Uiso   1.00
H820   H     0.86399   0.71008   0.43431   0.00000  Uiso   1.00
O821   O     0.84658   0.73266   0.51520   0.00000  Uiso   1.00
C822   C     0.63194   0.92672   0.52516   0.00000  Uiso   1.00
H823   H     0.63605   0.95646   0.56654   0.00000  Uiso   1.00
O824   O     0.65364   0.93430   0.48569   0.00000  Uiso   1.00
C825   C     0.51244   0.69311   0.40434   0.00000  Uiso   1.00
H826   H     0.53151   0.69775   0.36860   0.00000  Uiso   1.00
O827   O     0.99714   0.98258   0.40873   0.00000  Uiso   1.00
C828   C     0.98749   0.97378   0.59544   0.00000  Uiso   1.00
H829   H     0.96839   0.96923   0.63118   0.00000  Uiso   1.00
O830   O     0.50281   0.68427   0.59094   0.00000  Uiso   1.00
S831   S     0.69151   0.77162   0.64642   0.00000  Uiso   1.00
O832   O     0.65357   0.79443   0.62036   0.00000  Uiso   1.00
O833   O     0.70396   0.72767   0.60215   0.00000  Uiso   1.00
O834   O     0.67124   0.74390   0.36537   0.00000  Uiso   1.00
H835   H     0.67483   0.70639   0.35415   0.00000  Uiso   1.00
S836   S     0.80844   0.89513   0.35357   0.00000  Uiso   1.00
O837   O     0.79587   0.93910   0.39767   0.00000  Uiso   1.00
O838   O     0.84639   0.87244   0.37980   0.00000  Uiso   1.00
O839   O     0.82877   0.92276   0.63458   0.00000  Uiso   1.00
H840   H     0.82526   0.96030   0.64579   0.00000  Uiso   1.00
C841   C     0.24896   0.06702   0.81799   0.00000  Uiso   1.00
C842   C     0.25108   0.26632   0.84868   0.00000  Uiso   1.00
C843   C     0.00427   0.07342   0.77961   0.00000  Uiso   1.00
C844   C     0.49570   0.26006   0.88699   0.00000  Uiso   1.00
C845   C     0.24586   0.01069   0.81000   0.00000  Uiso   1.00
C846   C     0.25422   0.32266   0.85668   0.00000  Uiso   1.00
C847   C     0.16449   0.16364   0.83228   0.00000  Uiso   1.00
C848   C     0.33551   0.16972   0.83439   0.00000  Uiso   1.00
C849   C     0.41526   0.21822   0.85587   0.00000  Uiso   1.00
C850   C     0.08470   0.11521   0.81074   0.00000  Uiso   1.00
C851   C     0.38442   0.17082   0.83658   0.00000  Uiso   1.00
C852   C     0.11557   0.16259   0.83014   0.00000  Uiso   1.00
C853   C     0.39982   0.12282   0.81843   0.00000  Uiso   1.00
C854   C     0.10020   0.21059   0.84848   0.00000  Uiso   1.00
C855   C     0.44529   0.12201   0.81292   0.00000  Uiso   1.00
C856   C     0.05471   0.21142   0.85387   0.00000  Uiso   1.00
C857   C     0.47684   0.16794   0.83492   0.00000  Uiso   1.00
C858   C     0.02315   0.16551   0.83179   0.00000  Uiso   1.00
C859   C     0.46228   0.21604   0.86029   0.00000  Uiso   1.00
C860   C     0.03769   0.11743   0.80635   0.00000  Uiso   1.00
C861   C     0.45957   0.07597   0.78485   0.00000  Uiso   1.00
C862   C     0.04040   0.25748   0.88186   0.00000  Uiso   1.00
Cu863  Cu    0.25501   0.17246   0.89479   0.00000  Uiso   1.00
Cu864  Cu    0.24500   0.16087   0.77187   0.00000  Uiso   1.00
H865   H     0.43544   0.04195   0.76252   0.00000  Uiso   1.00
H866   H     0.06451   0.29153   0.90416   0.00000  Uiso   1.00
H867   H     0.23462   0.31989   0.76538   0.00000  Uiso   1.00
H868   H     0.26542   0.01346   0.90132   0.00000  Uiso   1.00
N869   N     0.23745   0.15214   0.67951   0.00000  Uiso   1.00
N870   N     0.26256   0.18119   0.98716   0.00000  Uiso   1.00
O871   O     0.25326   0.09538   0.87326   0.00000  Uiso   1.00
O872   O     0.24675   0.23796   0.79341   0.00000  Uiso   1.00
O873   O     0.24480   0.08559   0.76945   0.00000  Uiso   1.00
O874   O     0.25520   0.24774   0.89721   0.00000  Uiso   1.00
O875   O     0.18936   0.17155   0.88524   0.00000  Uiso   1.00
O876   O     0.31065   0.16179   0.78143   0.00000  Uiso   1.00
O877   O     0.18090   0.16176   0.78143   0.00000  Uiso   1.00
O878   O     0.31910   0.17157   0.88523   0.00000  Uiso   1.00
S879   S     0.39497   0.27941   0.86188   0.00000  Uiso   1.00
O880   O     0.39545   0.30705   0.92580   0.00000  Uiso   1.00
O881   O     0.42348   0.31361   0.83189   0.00000  Uiso   1.00
O882   O     0.34279   0.27115   0.82868   0.00000  Uiso   1.00
H883   H     0.33523   0.30689   0.83616   0.00000  Uiso   1.00
S884   S     0.10494   0.05398   0.80460   0.00000  Uiso   1.00
O885   O     0.07642   0.01973   0.83452   0.00000  Uiso   1.00
O886   O     0.10444   0.02644   0.74064   0.00000  Uiso   1.00
O887   O     0.15712   0.06217   0.83779   0.00000  Uiso   1.00
H888   H     0.16485   0.02650   0.82953   0.00000  Uiso   1.00
C889   C     0.36815   0.07335   0.80886   0.00000  Uiso   1.00
H890   H     0.36399   0.04341   0.76764   0.00000  Uiso   1.00
O891   O     0.34658   0.06599   0.84854   0.00000  Uiso   1.00
C892   C     0.13194   0.26005   0.85850   0.00000  Uiso   1.00
H893   H     0.13605   0.28979   0.89987   0.00000  Uiso   1.00
O894   O     0.15364   0.26764   0.81902   0.00000  Uiso   1.00
C895   C     0.01244   0.02644   0.73767   0.00000  Uiso   1.00
H896   H     0.03151   0.03108   0.70193   0.00000  Uiso   1.00
O897   O     0.49714   0.31592   0.74206   0.00000  Uiso   1.00
C898   C     0.48749   0.30711   0.92877   0.00000  Uiso   1.00
H899   H     0.46839   0.30257   0.96451   0.00000  Uiso   1.00
O900   O     0.00281   0.01760   0.92427   0.00000  Uiso   1.00
S901   S     0.19151   0.10495   0.97975   0.00000  Uiso   1.00
O902   O     0.15357   0.12777   0.95369   0.00000  Uiso   1.00
O903   O     0.20396   0.06100   0.93548   0.00000  Uiso   1.00
O904   O     0.17124   0.07724   0.69870   0.00000  Uiso   1.00
H905   H     0.17483   0.03972   0.68749   0.00000  Uiso   1.00
S906   S     0.30844   0.22846   0.68690   0.00000  Uiso   1.00
O907   O     0.29587   0.27244   0.73100   0.00000  Uiso   1.00
O908   O     0.34639   0.20577   0.71314   0.00000  Uiso   1.00
O909   O     0.32877   0.25609   0.96791   0.00000  Uiso   1.00
H910   H     0.32526   0.29363   0.97912   0.00000  Uiso   1.00
C911   C     0.74896   0.06702   0.81799   0.00000  Uiso   1.00
C912   C     0.75108   0.26632   0.84868   0.00000  Uiso   1.00
C913   C     0.50427   0.07342   0.77961   0.00000  Uiso   1.00
C914   C     0.99570   0.26006   0.88699   0.00000  Uiso   1.00
C915   C     0.74586   0.01069   0.81000   0.00000  Uiso   1.00
C916   C     0.75422   0.32266   0.85668   0.00000  Uiso   1.00
C917   C     0.66449   0.16364   0.83228   0.00000  Uiso   1.00
C918   C     0.83551   0.16972   0.83439   0.00000  Uiso   1.00
C919   C     0.91526   0.21822   0.85587   0.00000  Uiso   1.00
C920   C     0.58470   0.11521   0.81074   0.00000  Uiso   1.00
C921   C     0.88442   0.17082   0.83658   0.00000  Uiso   1.00
C922   C     0.61557   0.16259   0.83014   0.00000  Uiso   1.00
C923   C     0.89982   0.12282   0.81843   0.00000  Uiso   1.00
C924   C     0.60020   0.21059   0.84848   0.00000  Uiso   1.00
C925   C     0.94529   0.12201   0.81292   0.00000  Uiso   1.00
C926   C     0.55471   0.21142   0.85387   0.00000  Uiso   1.00
C927   C     0.97684   0.16794   0.83492   0.00000  Uiso   1.00
C928   C     0.52315   0.16551   0.83179   0.00000  Uiso   1.00
C929   C     0.96228   0.21604   0.86029   0.00000  Uiso   1.00
C930   C     0.53769   0.11743   0.80635   0.00000  Uiso   1.00
C931   C     0.95957   0.07597   0.78485   0.00000  Uiso   1.00
C932   C     0.54040   0.25748   0.88186   0.00000  Uiso   1.00
Cu933  Cu    0.75501   0.17246   0.89479   0.00000  Uiso   1.00
Cu934  Cu    0.74500   0.16087   0.77187   0.00000  Uiso   1.00
H935   H     0.93544   0.04195   0.76252   0.00000  Uiso   1.00
H936   H     0.56451   0.29153   0.90416   0.00000  Uiso   1.00
H937   H     0.73462   0.31989   0.76538   0.00000  Uiso   1.00
H938   H     0.76542   0.01346   0.90132   0.00000  Uiso   1.00
N939   N     0.73745   0.15214   0.67951   0.00000  Uiso   1.00
N940   N     0.76256   0.18119   0.98716   0.00000  Uiso   1.00
O941   O     0.75326   0.09538   0.87326   0.00000  Uiso   1.00
O942   O     0.74675   0.23796   0.79341   0.00000  Uiso   1.00
O943   O     0.74480   0.08559   0.76945   0.00000  Uiso   1.00
O944   O     0.75520   0.24774   0.89721   0.00000  Uiso   1.00
O945   O     0.68936   0.17155   0.88524   0.00000  Uiso   1.00
O946   O     0.81065   0.16179   0.78143   0.00000  Uiso   1.00
O947   O     0.68090   0.16176   0.78143   0.00000  Uiso   1.00
O948   O     0.81910   0.17157   0.88523   0.00000  Uiso   1.00
S949   S     0.89497   0.27941   0.86188   0.00000  Uiso   1.00
O950   O     0.89545   0.30705   0.92580   0.00000  Uiso   1.00
O951   O     0.92348   0.31361   0.83189   0.00000  Uiso   1.00
O952   O     0.84279   0.27115   0.82868   0.00000  Uiso   1.00
H953   H     0.83523   0.30689   0.83616   0.00000  Uiso   1.00
S954   S     0.60494   0.05398   0.80460   0.00000  Uiso   1.00
O955   O     0.57642   0.01973   0.83452   0.00000  Uiso   1.00
O956   O     0.60444   0.02644   0.74064   0.00000  Uiso   1.00
O957   O     0.65712   0.06217   0.83779   0.00000  Uiso   1.00
H958   H     0.66485   0.02650   0.82953   0.00000  Uiso   1.00
C959   C     0.86815   0.07335   0.80886   0.00000  Uiso   1.00
H960   H     0.86399   0.04341   0.76764   0.00000  Uiso   1.00
O961   O     0.84658   0.06599   0.84854   0.00000  Uiso   1.00
C962   C     0.63194   0.26005   0.85850   0.00000  Uiso   1.00
H963   H     0.63605   0.28979   0.89987   0.00000  Uiso   1.00
O964   O     0.65364   0.26764   0.81902   0.00000  Uiso   1.00
C965   C     0.51244   0.02644   0.73767   0.00000  Uiso   1.00
H966   H     0.53151   0.03108   0.70193   0.00000  Uiso   1.00
O967   O     0.99714   0.31592   0.74206   0.00000  Uiso   1.00
C968   C     0.98749   0.30711   0.92877   0.00000  Uiso   1.00
H969   H     0.96839   0.30257   0.96451   0.00000  Uiso   1.00
O970   O     0.50281   0.01760   0.92427   0.00000  Uiso   1.00
S971   S     0.69151   0.10495   0.97975   0.00000  Uiso   1.00
O972   O     0.65357   0.12777   0.95369   0.00000  Uiso   1.00
O973   O     0.70396   0.06100   0.93548   0.00000  Uiso   1.00
O974   O     0.67124   0.07724   0.69870   0.00000  Uiso   1.00
H975   H     0.67483   0.03972   0.68749   0.00000  Uiso   1.00
S976   S     0.80844   0.22846   0.68690   0.00000  Uiso   1.00
O977   O     0.79587   0.27244   0.73100   0.00000  Uiso   1.00
O978   O     0.84639   0.20577   0.71314   0.00000  Uiso   1.00
O979   O     0.82877   0.25609   0.96791   0.00000  Uiso   1.00
H980   H     0.82526   0.29363   0.97912   0.00000  Uiso   1.00
C981   C     0.24896   0.40035   0.81799   0.00000  Uiso   1.00
C982   C     0.25108   0.59965   0.84868   0.00000  Uiso   1.00
C983   C     0.00427   0.40676   0.77961   0.00000  Uiso   1.00
C984   C     0.49570   0.59339   0.88699   0.00000  Uiso   1.00
C985   C     0.24586   0.34403   0.81000   0.00000  Uiso   1.00
C986   C     0.25422   0.65599   0.85668   0.00000  Uiso   1.00
C987   C     0.16449   0.49698   0.83228   0.00000  Uiso   1.00
C988   C     0.33551   0.50306   0.83439   0.00000  Uiso   1.00
C989   C     0.41526   0.55156   0.85587   0.00000  Uiso   1.00
C990   C     0.08470   0.44854   0.81074   0.00000  Uiso   1.00
C991   C     0.38442   0.50415   0.83658   0.00000  Uiso   1.00
C992   C     0.11557   0.49592   0.83014   0.00000  Uiso   1.00
C993   C     0.39982   0.45615   0.81843   0.00000  Uiso   1.00
C994   C     0.10020   0.54392   0.84848   0.00000  Uiso   1.00
C995   C     0.44529   0.45535   0.81292   0.00000  Uiso   1.00
C996   C     0.05471   0.54475   0.85387   0.00000  Uiso   1.00
C997   C     0.47684   0.50127   0.83492   0.00000  Uiso   1.00
C998   C     0.02315   0.49885   0.83179   0.00000  Uiso   1.00
C999   C     0.46228   0.54937   0.86029   0.00000  Uiso   1.00
C1000  C     0.03769   0.45076   0.80635   0.00000  Uiso   1.00
C1001  C     0.45957   0.40930   0.78485   0.00000  Uiso   1.00
C1002  C     0.04040   0.59082   0.88186   0.00000  Uiso   1.00
Cu1003 Cu    0.25501   0.50579   0.89479   0.00000  Uiso   1.00
Cu1004 Cu    0.24500   0.49421   0.77187   0.00000  Uiso   1.00
H1005  H     0.43544   0.37528   0.76252   0.00000  Uiso   1.00
H1006  H     0.06451   0.62487   0.90416   0.00000  Uiso   1.00
H1007  H     0.23462   0.65323   0.76538   0.00000  Uiso   1.00
H1008  H     0.26542   0.34679   0.90132   0.00000  Uiso   1.00
N1009  N     0.23745   0.48547   0.67951   0.00000  Uiso   1.00
N1010  N     0.26256   0.51453   0.98716   0.00000  Uiso   1.00
O1011  O     0.25326   0.42871   0.87326   0.00000  Uiso   1.00
O1012  O     0.24675   0.57129   0.79341   0.00000  Uiso   1.00
O1013  O     0.24480   0.41892   0.76945   0.00000  Uiso   1.00
O1014  O     0.25520   0.58108   0.89721   0.00000  Uiso   1.00
O1015  O     0.18936   0.50488   0.88524   0.00000  Uiso   1.00
O1016  O     0.31065   0.49512   0.78143   0.00000  Uiso   1.00
O1017  O     0.18090   0.49510   0.78143   0.00000  Uiso   1.00
O1018  O     0.31910   0.50490   0.88523   0.00000  Uiso   1.00
S1019  S     0.39497   0.61275   0.86188   0.00000  Uiso   1.00
O1020  O     0.39545   0.64038   0.92580   0.00000  Uiso   1.00
O1021  O     0.42348   0.64694   0.83189   0.00000  Uiso   1.00
O1022  O     0.34279   0.60448   0.82868   0.00000  Uiso   1.00
H1023  H     0.33523   0.64022   0.83616   0.00000  Uiso   1.00
S1024  S     0.10494   0.38731   0.80460   0.00000  Uiso   1.00
O1025  O     0.07642   0.35306   0.83452   0.00000  Uiso   1.00
O1026  O     0.10444   0.35977   0.74064   0.00000  Uiso   1.00
O1027  O     0.15712   0.39550   0.83779   0.00000  Uiso   1.00
H1028  H     0.16485   0.35984   0.82953   0.00000  Uiso   1.00
C1029  C     0.36815   0.40668   0.80886   0.00000  Uiso   1.00
H1030  H     0.36399   0.37675   0.76764   0.00000  Uiso   1.00
O1031  O     0.34658   0.39933   0.84854   0.00000  Uiso   1.00
C1032  C     0.13194   0.59339   0.85850   0.00000  Uiso   1.00
H1033  H     0.13605   0.62312   0.89987   0.00000  Uiso   1.00
O1034  O     0.15364   0.60097   0.81902   0.00000  Uiso   1.00
C1035  C     0.01244   0.35978   0.73767   0.00000  Uiso   1.00
H1036  H     0.03151   0.36442   0.70193   0.00000  Uiso   1.00
O1037  O     0.49714   0.64925   0.74206   0.00000  Uiso   1.00
C1038  C     0.48749   0.64045   0.92877   0.00000  Uiso   1.00
H1039  H     0.46839   0.63590   0.96451   0.00000  Uiso   1.00
O1040  O     0.00281   0.35093   0.92427   0.00000  Uiso   1.00
S1041  S     0.19151   0.43829   0.97975   0.00000  Uiso   1.00
O1042  O     0.15357   0.46110   0.95369   0.00000  Uiso   1.00
O1043  O     0.20396   0.39433   0.93548   0.00000  Uiso   1.00
O1044  O     0.17124   0.41057   0.69870   0.00000  Uiso   1.00
H1045  H     0.17483   0.37306   0.68749   0.00000  Uiso   1.00
S1046  S     0.30844   0.56179   0.68690   0.00000  Uiso   1.00
O1047  O     0.29587   0.60577   0.73100   0.00000  Uiso   1.00
O1048  O     0.34639   0.53910   0.71314   0.00000  Uiso   1.00
O1049  O     0.32877   0.58942   0.96791   0.00000  Uiso   1.00
H1050  H     0.32526   0.62696   0.97912   0.00000  Uiso   1.00
C1051  C     0.74896   0.40035   0.81799   0.00000  Uiso   1.00
C1052  C     0.75108   0.59965   0.84868   0.00000  Uiso   1.00
C1053  C     0.50427   0.40676   0.77961   0.00000  Uiso   1.00
C1054  C     0.99570   0.59339   0.88699   0.00000  Uiso   1.00
C1055  C     0.74586   0.34403   0.81000   0.00000  Uiso   1.00
C1056  C     0.75422   0.65599   0.85668   0.00000  Uiso   1.00
C1057  C     0.66449   0.49698   0.83228   0.00000  Uiso   1.00
C1058  C     0.83551   0.50306   0.83439   0.00000  Uiso   1.00
C1059  C     0.91526   0.55156   0.85587   0.00000  Uiso   1.00
C1060  C     0.58470   0.44854   0.81074   0.00000  Uiso   1.00
C1061  C     0.88442   0.50415   0.83658   0.00000  Uiso   1.00
C1062  C     0.61557   0.49592   0.83014   0.00000  Uiso   1.00
C1063  C     0.89982   0.45615   0.81843   0.00000  Uiso   1.00
C1064  C     0.60020   0.54392   0.84848   0.00000  Uiso   1.00
C1065  C     0.94529   0.45535   0.81292   0.00000  Uiso   1.00
C1066  C     0.55471   0.54475   0.85387   0.00000  Uiso   1.00
C1067  C     0.97684   0.50127   0.83492   0.00000  Uiso   1.00
C1068  C     0.52315   0.49885   0.83179   0.00000  Uiso   1.00
C1069  C     0.96228   0.54937   0.86029   0.00000  Uiso   1.00
C1070  C     0.53769   0.45076   0.80635   0.00000  Uiso   1.00
C1071  C     0.95957   0.40930   0.78485   0.00000  Uiso   1.00
C1072  C     0.54040   0.59082   0.88186   0.00000  Uiso   1.00
Cu1073 Cu    0.75501   0.50579   0.89479   0.00000  Uiso   1.00
Cu1074 Cu    0.74500   0.49421   0.77187   0.00000  Uiso   1.00
H1075  H     0.93544   0.37528   0.76252   0.00000  Uiso   1.00
H1076  H     0.56451   0.62487   0.90416   0.00000  Uiso   1.00
H1077  H     0.73462   0.65323   0.76538   0.00000  Uiso   1.00
H1078  H     0.76542   0.34679   0.90132   0.00000  Uiso   1.00
N1079  N     0.73745   0.48547   0.67951   0.00000  Uiso   1.00
N1080  N     0.76256   0.51453   0.98716   0.00000  Uiso   1.00
O1081  O     0.75326   0.42871   0.87326   0.00000  Uiso   1.00
O1082  O     0.74675   0.57129   0.79341   0.00000  Uiso   1.00
O1083  O     0.74480   0.41892   0.76945   0.00000  Uiso   1.00
O1084  O     0.75520   0.58108   0.89721   0.00000  Uiso   1.00
O1085  O     0.68936   0.50488   0.88524   0.00000  Uiso   1.00
O1086  O     0.81065   0.49512   0.78143   0.00000  Uiso   1.00
O1087  O     0.68090   0.49510   0.78143   0.00000  Uiso   1.00
O1088  O     0.81910   0.50490   0.88523   0.00000  Uiso   1.00
S1089  S     0.89497   0.61275   0.86188   0.00000  Uiso   1.00
O1090  O     0.89545   0.64038   0.92580   0.00000  Uiso   1.00
O1091  O     0.92348   0.64694   0.83189   0.00000  Uiso   1.00
O1092  O     0.84279   0.60448   0.82868   0.00000  Uiso   1.00
H1093  H     0.83523   0.64022   0.83616   0.00000  Uiso   1.00
S1094  S     0.60494   0.38731   0.80460   0.00000  Uiso   1.00
O1095  O     0.57642   0.35306   0.83452   0.00000  Uiso   1.00
O1096  O     0.60444   0.35977   0.74064   0.00000  Uiso   1.00
O1097  O     0.65712   0.39550   0.83779   0.00000  Uiso   1.00
H1098  H     0.66485   0.35984   0.82953   0.00000  Uiso   1.00
C1099  C     0.86815   0.40668   0.80886   0.00000  Uiso   1.00
H1100  H     0.86399   0.37675   0.76764   0.00000  Uiso   1.00
O1101  O     0.84658   0.39933   0.84854   0.00000  Uiso   1.00
C1102  C     0.63194   0.59339   0.85850   0.00000  Uiso   1.00
H1103  H     0.63605   0.62312   0.89987   0.00000  Uiso   1.00
O1104  O     0.65364   0.60097   0.81902   0.00000  Uiso   1.00
C1105  C     0.51244   0.35978   0.73767   0.00000  Uiso   1.00
H1106  H     0.53151   0.36442   0.70193   0.00000  Uiso   1.00
O1107  O     0.99714   0.64925   0.74206   0.00000  Uiso   1.00
C1108  C     0.98749   0.64045   0.92877   0.00000  Uiso   1.00
H1109  H     0.96839   0.63590   0.96451   0.00000  Uiso   1.00
O1110  O     0.50281   0.35093   0.92427   0.00000  Uiso   1.00
S1111  S     0.69151   0.43829   0.97975   0.00000  Uiso   1.00
O1112  O     0.65357   0.46110   0.95369   0.00000  Uiso   1.00
O1113  O     0.70396   0.39433   0.93548   0.00000  Uiso   1.00
O1114  O     0.67124   0.41057   0.69870   0.00000  Uiso   1.00
H1115  H     0.67483   0.37306   0.68749   0.00000  Uiso   1.00
S1116  S     0.80844   0.56179   0.68690   0.00000  Uiso   1.00
O1117  O     0.79587   0.60577   0.73100   0.00000  Uiso   1.00
O1118  O     0.84639   0.53910   0.71314   0.00000  Uiso   1.00
O1119  O     0.82877   0.58942   0.96791   0.00000  Uiso   1.00
H1120  H     0.82526   0.62696   0.97912   0.00000  Uiso   1.00
C1121  C     0.24896   0.73369   0.81799   0.00000  Uiso   1.00
C1122  C     0.25108   0.93299   0.84868   0.00000  Uiso   1.00
C1123  C     0.00427   0.74009   0.77961   0.00000  Uiso   1.00
C1124  C     0.49570   0.92673   0.88699   0.00000  Uiso   1.00
C1125  C     0.24586   0.67736   0.81000   0.00000  Uiso   1.00
C1126  C     0.25422   0.98932   0.85668   0.00000  Uiso   1.00
C1127  C     0.16449   0.83031   0.83228   0.00000  Uiso   1.00
C1128  C     0.33551   0.83639   0.83439   0.00000  Uiso   1.00
C1129  C     0.41526   0.88489   0.85587   0.00000  Uiso   1.00
C1130  C     0.08470   0.78188   0.81074   0.00000  Uiso   1.00
C1131  C     0.38442   0.83749   0.83658   0.00000  Uiso   1.00
C1132  C     0.11557   0.82926   0.83014   0.00000  Uiso   1.00
C1133  C     0.39982   0.78948   0.81843   0.00000  Uiso   1.00
C1134  C     0.10020   0.87726   0.84848   0.00000  Uiso   1.00
C1135  C     0.44529   0.78868   0.81292   0.00000  Uiso   1.00
C1136  C     0.05471   0.87809   0.85387   0.00000  Uiso   1.00
C1137  C     0.47684   0.83461   0.83492   0.00000  Uiso   1.00
C1138  C     0.02315   0.83218   0.83179   0.00000  Uiso   1.00
C1139  C     0.46228   0.88270   0.86029   0.00000  Uiso   1.00
C1140  C     0.03769   0.78409   0.80635   0.00000  Uiso   1.00
C1141  C     0.45957   0.74264   0.78485   0.00000  Uiso   1.00
C1142  C     0.04040   0.92415   0.88186   0.00000  Uiso   1.00
Cu1143 Cu    0.25501   0.83913   0.89479   0.00000  Uiso   1.00
Cu1144 Cu    0.24500   0.82754   0.77187   0.00000  Uiso   1.00
H1145  H     0.43544   0.70861   0.76252   0.00000  Uiso   1.00
H1146  H     0.06451   0.95820   0.90416   0.00000  Uiso   1.00
H1147  H     0.23462   0.98656   0.76538   0.00000  Uiso   1.00
H1148  H     0.26542   0.68012   0.90132   0.00000  Uiso   1.00
N1149  N     0.23745   0.81881   0.67951   0.00000  Uiso   1.00
N1150  N     0.26256   0.84786   0.98716   0.00000  Uiso   1.00
O1151  O     0.25326   0.76204   0.87326   0.00000  Uiso   1.00
O1152  O     0.24675   0.90462   0.79341   0.00000  Uiso   1.00
O1153  O     0.24480   0.75226   0.76945   0.00000  Uiso   1.00
O1154  O     0.25520   0.91441   0.89721   0.00000  Uiso   1.00
O1155  O     0.18936   0.83821   0.88524   0.00000  Uiso   1.00
O1156  O     0.31065   0.82845   0.78143   0.00000  Uiso   1.00
O1157  O     0.18090   0.82843   0.78143   0.00000  Uiso   1.00
O1158  O     0.31910   0.83824   0.88523   0.00000  Uiso   1.00
S1159  S     0.39497   0.94608   0.86188   0.00000  Uiso   1.00
O1160  O     0.39545   0.97372   0.92580   0.00000  Uiso   1.00
O1161  O     0.42348   0.98027   0.83189   0.00000  Uiso   1.00
O1162  O     0.34279   0.93781   0.82868   0.00000  Uiso   1.00
H1163  H     0.33523   0.97356   0.83616   0.00000  Uiso   1.00
S1164  S     0.10494   0.72065   0.80460   0.00000  Uiso   1.00
O1165  O     0.07642   0.68640   0.83452   0.00000  Uiso   1.00
O1166  O     0.10444   0.69311   0.74064   0.00000  Uiso   1.00
O1167  O     0.15712   0.72884   0.83779   0.00000  Uiso   1.00
H1168  H     0.16485   0.69317   0.82953   0.00000  Uiso   1.00
C1169  C     0.36815   0.74002   0.80886   0.00000  Uiso   1.00
H1170  H     0.36399   0.71008   0.76764   0.00000  Uiso   1.00
O1171  O     0.34658   0.73266   0.84854   0.00000  Uiso   1.00
C1172  C     0.13194   0.92672   0.85850   0.00000  Uiso   1.00
H1173  H     0.13605   0.95646   0.89987   0.00000  Uiso   1.00
O1174  O     0.15364   0.93430   0.81902   0.00000  Uiso   1.00
C1175  C     0.01244   0.69311   0.73767   0.00000  Uiso   1.00
H1176  H     0.03151   0.69775   0.70193   0.00000  Uiso   1.00
O1177  O     0.49714   0.98258   0.74206   0.00000  Uiso   1.00
C1178  C     0.48749   0.97378   0.92877   0.00000  Uiso   1.00
H1179  H     0.46839   0.96923   0.96451   0.00000  Uiso   1.00
O1180  O     0.00281   0.68427   0.92427   0.00000  Uiso   1.00
S1181  S     0.19151   0.77162   0.97975   0.00000  Uiso   1.00
O1182  O     0.15357   0.79443   0.95369   0.00000  Uiso   1.00
O1183  O     0.20396   0.72767   0.93548   0.00000  Uiso   1.00
O1184  O     0.17124   0.74390   0.69870   0.00000  Uiso   1.00
H1185  H     0.17483   0.70639   0.68749   0.00000  Uiso   1.00
S1186  S     0.30844   0.89513   0.68690   0.00000  Uiso   1.00
O1187  O     0.29587   0.93910   0.73100   0.00000  Uiso   1.00
O1188  O     0.34639   0.87244   0.71314   0.00000  Uiso   1.00
O1189  O     0.32877   0.92276   0.96791   0.00000  Uiso   1.00
H1190  H     0.32526   0.96030   0.97912   0.00000  Uiso   1.00
C1191  C     0.74896   0.73369   0.81799   0.00000  Uiso   1.00
C1192  C     0.75108   0.93299   0.84868   0.00000  Uiso   1.00
C1193  C     0.50427   0.74009   0.77961   0.00000  Uiso   1.00
C1194  C     0.99570   0.92673   0.88699   0.00000  Uiso   1.00
C1195  C     0.74586   0.67736   0.81000   0.00000  Uiso   1.00
C1196  C     0.75422   0.98932   0.85668   0.00000  Uiso   1.00
C1197  C     0.66449   0.83031   0.83228   0.00000  Uiso   1.00
C1198  C     0.83551   0.83639   0.83439   0.00000  Uiso   1.00
C1199  C     0.91526   0.88489   0.85587   0.00000  Uiso   1.00
C1200  C     0.58470   0.78188   0.81074   0.00000  Uiso   1.00
C1201  C     0.88442   0.83749   0.83658   0.00000  Uiso   1.00
C1202  C     0.61557   0.82926   0.83014   0.00000  Uiso   1.00
C1203  C     0.89982   0.78948   0.81843   0.00000  Uiso   1.00
C1204  C     0.60020   0.87726   0.84848   0.00000  Uiso   1.00
C1205  C     0.94529   0.78868   0.81292   0.00000  Uiso   1.00
C1206  C     0.55471   0.87809   0.85387   0.00000  Uiso   1.00
C1207  C     0.97684   0.83461   0.83492   0.00000  Uiso   1.00
C1208  C     0.52315   0.83218   0.83179   0.00000  Uiso   1.00
C1209  C     0.96228   0.88270   0.86029   0.00000  Uiso   1.00
C1210  C     0.53769   0.78409   0.80635   0.00000  Uiso   1.00
C1211  C     0.95957   0.74264   0.78485   0.00000  Uiso   1.00
C1212  C     0.54040   0.92415   0.88186   0.00000  Uiso   1.00
Cu1213 Cu    0.75501   0.83913   0.89479   0.00000  Uiso   1.00
Cu1214 Cu    0.74500   0.82754   0.77187   0.00000  Uiso   1.00
H1215  H     0.93544   0.70861   0.76252   0.00000  Uiso   1.00
H1216  H     0.56451   0.95820   0.90416   0.00000  Uiso   1.00
H1217  H     0.73462   0.98656   0.76538   0.00000  Uiso   1.00
H1218  H     0.76542   0.68012   0.90132   0.00000  Uiso   1.00
N1219  N     0.73745   0.81881   0.67951   0.00000  Uiso   1.00
N1220  N     0.76256   0.84786   0.98716   0.00000  Uiso   1.00
O1221  O     0.75326   0.76204   0.87326   0.00000  Uiso   1.00
O1222  O     0.74675   0.90462   0.79341   0.00000  Uiso   1.00
O1223  O     0.74480   0.75226   0.76945   0.00000  Uiso   1.00
O1224  O     0.75520   0.91441   0.89721   0.00000  Uiso   1.00
O1225  O     0.68936   0.83821   0.88524   0.00000  Uiso   1.00
O1226  O     0.81065   0.82845   0.78143   0.00000  Uiso   1.00
O1227  O     0.68090   0.82843   0.78143   0.00000  Uiso   1.00
O1228  O     0.81910   0.83824   0.88523   0.00000  Uiso   1.00
S1229  S     0.89497   0.94608   0.86188   0.00000  Uiso   1.00
O1230  O     0.89545   0.97372   0.92580   0.00000  Uiso   1.00
O1231  O     0.92348   0.98027   0.83189   0.00000  Uiso   1.00
O1232  O     0.84279   0.93781   0.82868   0.00000  Uiso   1.00
H1233  H     0.83523   0.97356   0.83616   0.00000  Uiso   1.00
S1234  S     0.60494   0.72065   0.80460   0.00000  Uiso   1.00
O1235  O     0.57642   0.68640   0.83452   0.00000  Uiso   1.00
O1236  O     0.60444   0.69311   0.74064   0.00000  Uiso   1.00
O1237  O     0.65712   0.72884   0.83779   0.00000  Uiso   1.00
H1238  H     0.66485   0.69317   0.82953   0.00000  Uiso   1.00
C1239  C     0.86815   0.74002   0.80886   0.00000  Uiso   1.00
H1240  H     0.86399   0.71008   0.76764   0.00000  Uiso   1.00
O1241  O     0.84658   0.73266   0.84854   0.00000  Uiso   1.00
C1242  C     0.63194   0.92672   0.85850   0.00000  Uiso   1.00
H1243  H     0.63605   0.95646   0.89987   0.00000  Uiso   1.00
O1244  O     0.65364   0.93430   0.81902   0.00000  Uiso   1.00
C1245  C     0.51244   0.69311   0.73767   0.00000  Uiso   1.00
H1246  H     0.53151   0.69775   0.70193   0.00000  Uiso   1.00
O1247  O     0.99714   0.98258   0.74206   0.00000  Uiso   1.00
C1248  C     0.98749   0.97378   0.92877   0.00000  Uiso   1.00
H1249  H     0.96839   0.96923   0.96451   0.00000  Uiso   1.00
O1250  O     0.50281   0.68427   0.92427   0.00000  Uiso   1.00
S1251  S     0.69151   0.77162   0.97975   0.00000  Uiso   1.00
O1252  O     0.65357   0.79443   0.95369   0.00000  Uiso   1.00
O1253  O     0.70396   0.72767   0.93548   0.00000  Uiso   1.00
O1254  O     0.67124   0.74390   0.69870   0.00000  Uiso   1.00
H1255  H     0.67483   0.70639   0.68749   0.00000  Uiso   1.00
S1256  S     0.80844   0.89513   0.68690   0.00000  Uiso   1.00
O1257  O     0.79587   0.93910   0.73100   0.00000  Uiso   1.00
O1258  O     0.84639   0.87244   0.71314   0.00000  Uiso   1.00
O1259  O     0.82877   0.92276   0.96791   0.00000  Uiso   1.00
H1260  H     0.82526   0.96030   0.97912   0.00000  Uiso   1.00
loop_
_geom_bond_atom_site_label_1
_geom_bond_atom_site_label_2
_geom_bond_distance
_geom_bond_site_symmetry_2
_ccdc_geom_bond_type
C1     C5      1.448   .     S
C1     O33     1.320   .     A
C1     O31     1.320   .     A
C2     O34     1.320   .     A
C2     O32     1.320   .     A
C2     C6      1.448   .     S
C3     C20     1.424   .     A
C3     C55     1.467   .     S
C3     C91     1.387   1_455 S
C4     C58     1.467   .     S
C4     C19     1.424   .     A
C4     C92     1.387   .     S
C5     C286    1.339   1_545 S
C5     H307    1.085   1_545 S
C6     C145    1.339   .     S
C6     H168    1.085   .     S
C7     O37     1.321   .     A
C7     O35     1.332   .     A
C7     C12     1.481   .     S
C8     O38     1.320   .     A
C8     C11     1.481   .     S
C8     O36     1.332   .     A
C9     S39     1.784   .     S
C9     C11     1.422   .     A
C9     C19     1.433   .     A
C10    C12     1.422   .     A
C10    S44     1.784   .     S
C10    C20     1.433   .     A
C11    C13     1.401   .     A
C12    C14     1.401   .     A
C13    C15     1.405   .     A
C13    C49     1.483   .     S
C14    C52     1.483   .     S
C14    C16     1.406   .     A
C15    C21     1.393   .     A
C15    C17     1.411   .     A
C16    C18     1.411   .     A
C16    C22     1.393   .     A
C17    C19     1.424   .     A
C17    C88     1.428   .     S
C18    C20     1.424   .     A
C18    C87     1.428   1_455 S
C21    H25     1.081   .     S
C21    C73     1.387   .     S
C22    H26     1.081   .     S
C22    C74     1.387   1_455 S
Cu23   O38     1.989   .     S
Cu23   Cu24    2.777   .     S
Cu23   O34     1.975   .     S
Cu23   O35     1.983   .     S
Cu23   N30     2.086   .     S
Cu23   O31     1.980   .     S
Cu24   O32     1.980   .     S
Cu24   O33     1.975   .     S
Cu24   O36     1.983   .     S
Cu24   O37     1.989   .     S
Cu24   N29     2.086   .     S
H27    C145    1.085   .     S
H28    C286    1.085   1_545 S
N29    N870    1.293   1_554 S
N29    S901    1.738   1_554 S
N30    N449    1.293   .     S
N30    S486    1.738   .     S
S39    O41     1.501   .     D
S39    O42     1.657   .     S
S39    O40     1.501   .     D
O42    H43     0.983   .     S
S44    O47     1.657   .     S
S44    O45     1.501   .     D
S44    O46     1.501   .     D
O47    H48     0.983   .     S
C49    O51     1.219   .     D
C49    H50     1.084   .     S
C52    H53     1.084   .     S
C52    O54     1.219   .     D
C55    H56     1.079   .     S
C55    O407    1.222   1_445 S
O57    C265    1.222   .     S
C58    H59     1.079   .     S
C58    O270    1.222   .     S
O60    C408    1.222   1_445 S
S61    O62     1.498   .     D
S61    O63     1.490   .     D
S61    N449    1.738   .     S
S61    O484    1.676   .     S
O64    H65     0.991   .     S
O64    S901    1.676   1_554 S
S66    O68     1.498   .     D
S66    O67     1.490   .     D
S66    N870    1.738   1_554 S
S66    O909    1.676   1_554 S
O69    H70     0.991   .     S
O69    S486    1.676   .     S
C71    C75     1.448   .     S
C71    O103    1.320   .     A
C71    O101    1.320   .     A
C72    O104    1.320   .     A
C72    O102    1.320   .     A
C72    C76     1.448   .     S
C73    C90     1.424   .     A
C73    C125    1.467   .     S
C74    C128    1.467   .     S
C74    C89     1.424   .     A
C74    C22     1.387   1_655 S
C75    C356    1.339   1_545 S
C75    H377    1.085   1_545 S
C76    C215    1.339   .     S
C76    H238    1.085   .     S
C77    O107    1.321   .     A
C77    O105    1.332   .     A
C77    C82     1.481   .     S
C78    O108    1.320   .     A
C78    C81     1.481   .     S
C78    O106    1.332   .     A
C79    S109    1.784   .     S
C79    C81     1.422   .     A
C79    C89     1.433   .     A
C80    C82     1.422   .     A
C80    S114    1.784   .     S
C80    C90     1.433   .     A
C81    C83     1.401   .     A
C82    C84     1.401   .     A
C83    C85     1.405   .     A
C83    C119    1.483   .     S
C84    C122    1.483   .     S
C84    C86     1.406   .     A
C85    C91     1.393   .     A
C85    C87     1.411   .     A
C86    C88     1.411   .     A
C86    C92     1.393   .     A
C87    C89     1.424   .     A
C87    C18     1.428   1_655 S
C88    C90     1.424   .     A
C91    H95     1.081   .     S
C91    C3      1.387   1_655 S
C92    H96     1.081   .     S
Cu93   O108    1.989   .     S
Cu93   Cu94    2.777   .     S
Cu93   O104    1.975   .     S
Cu93   O105    1.983   .     S
Cu93   N100    2.086   .     S
Cu93   O101    1.980   .     S
Cu94   O102    1.980   .     S
Cu94   O103    1.975   .     S
Cu94   O106    1.983   .     S
Cu94   O107    1.989   .     S
Cu94   N99     2.086   .     S
H97    C215    1.085   .     S
H98    C356    1.085   1_545 S
N99    N940    1.293   1_554 S
N99    S971    1.738   1_554 S
N100   N519    1.293   .     S
N100   S556    1.738   .     S
S109   O111    1.501   .     D
S109   O112    1.657   .     S
S109   O110    1.501   .     D
O112   H113    0.983   .     S
S114   O117    1.657   .     S
S114   O115    1.501   .     D
S114   O116    1.501   .     D
O117   H118    0.983   .     S
C119   O121    1.219   .     D
C119   H120    1.084   .     S
C122   H123    1.084   .     S
C122   O124    1.219   .     D
C125   H126    1.079   .     S
C125   O337    1.222   1_545 S
O127   C195    1.222   1_655 S
C128   H129    1.079   .     S
C128   O200    1.222   1_655 S
O130   C338    1.222   1_545 S
S131   O132    1.498   .     D
S131   O133    1.490   .     D
S131   N519    1.738   .     S
S131   O554    1.676   .     S
O134   H135    0.991   .     S
O134   S971    1.676   1_554 S
S136   O138    1.498   .     D
S136   O137    1.490   .     D
S136   N940    1.738   1_554 S
S136   O979    1.676   1_554 S
O139   H140    0.991   .     S
O139   S556    1.676   .     S
C141   C145    1.448   .     S
C141   O173    1.320   .     A
C141   O171    1.320   .     A
C142   O174    1.320   .     A
C142   O172    1.320   .     A
C142   C146    1.448   .     S
C143   C160    1.424   .     A
C143   C195    1.467   .     S
C143   C231    1.387   1_455 S
C144   C198    1.467   .     S
C144   C159    1.424   .     A
C144   C232    1.387   .     S
C146   C285    1.339   .     S
C146   H308    1.085   .     S
C147   O177    1.321   .     A
C147   O175    1.332   .     A
C147   C152    1.481   .     S
C148   O178    1.320   .     A
C148   C151    1.481   .     S
C148   O176    1.332   .     A
C149   S179    1.784   .     S
C149   C151    1.422   .     A
C149   C159    1.433   .     A
C150   C152    1.422   .     A
C150   S184    1.784   .     S
C150   C160    1.433   .     A
C151   C153    1.401   .     A
C152   C154    1.401   .     A
C153   C155    1.405   .     A
C153   C189    1.483   .     S
C154   C192    1.483   .     S
C154   C156    1.406   .     A
C155   C161    1.393   .     A
C155   C157    1.411   .     A
C156   C158    1.411   .     A
C156   C162    1.393   .     A
C157   C159    1.424   .     A
C157   C228    1.428   .     S
C158   C160    1.424   .     A
C158   C227    1.428   1_455 S
C161   H165    1.081   .     S
C161   C213    1.387   .     S
C162   H166    1.081   .     S
C162   C214    1.387   1_455 S
Cu163  O178    1.989   .     S
Cu163  Cu164   2.777   .     S
Cu163  O174    1.975   .     S
Cu163  O175    1.983   .     S
Cu163  N170    2.086   .     S
Cu163  O171    1.980   .     S
Cu164  O172    1.980   .     S
Cu164  O173    1.975   .     S
Cu164  O176    1.983   .     S
Cu164  O177    1.989   .     S
Cu164  N169    2.086   .     S
H167   C285    1.085   .     S
N169   N1010   1.293   1_554 S
N169   S1041   1.738   1_554 S
N170   N589    1.293   .     S
N170   S626    1.738   .     S
S179   O181    1.501   .     D
S179   O182    1.657   .     S
S179   O180    1.501   .     D
O182   H183    0.983   .     S
S184   O187    1.657   .     S
S184   O185    1.501   .     D
S184   O186    1.501   .     D
O187   H188    0.983   .     S
C189   O191    1.219   .     D
C189   H190    1.084   .     S
C192   H193    1.084   .     S
C192   O194    1.219   .     D
C195   H196    1.079   .     S
C195   O127    1.222   1_455 S
O197   C405    1.222   .     S
C198   H199    1.079   .     S
C198   O410    1.222   .     S
O200   C128    1.222   1_455 S
S201   O202    1.498   .     D
S201   O203    1.490   .     D
S201   N589    1.738   .     S
S201   O624    1.676   .     S
O204   H205    0.991   .     S
O204   S1041   1.676   1_554 S
S206   O208    1.498   .     D
S206   O207    1.490   .     D
S206   N1010   1.738   1_554 S
S206   O1049   1.676   1_554 S
O209   H210    0.991   .     S
O209   S626    1.676   .     S
C211   C215    1.448   .     S
C211   O243    1.320   .     A
C211   O241    1.320   .     A
C212   O244    1.320   .     A
C212   O242    1.320   .     A
C212   C216    1.448   .     S
C213   C230    1.424   .     A
C213   C265    1.467   .     S
C214   C268    1.467   .     S
C214   C229    1.424   .     A
C214   C162    1.387   1_655 S
C216   C355    1.339   .     S
C216   H378    1.085   .     S
C217   O247    1.321   .     A
C217   O245    1.332   .     A
C217   C222    1.481   .     S
C218   O248    1.320   .     A
C218   C221    1.481   .     S
C218   O246    1.332   .     A
C219   S249    1.784   .     S
C219   C221    1.422   .     A
C219   C229    1.433   .     A
C220   C222    1.422   .     A
C220   S254    1.784   .     S
C220   C230    1.433   .     A
C221   C223    1.401   .     A
C222   C224    1.401   .     A
C223   C225    1.405   .     A
C223   C259    1.483   .     S
C224   C262    1.483   .     S
C224   C226    1.406   .     A
C225   C231    1.393   .     A
C225   C227    1.411   .     A
C226   C228    1.411   .     A
C226   C232    1.393   .     A
C227   C229    1.424   .     A
C227   C158    1.428   1_655 S
C228   C230    1.424   .     A
C231   H235    1.081   .     S
C231   C143    1.387   1_655 S
C232   H236    1.081   .     S
Cu233  O248    1.989   .     S
Cu233  Cu234   2.777   .     S
Cu233  O244    1.975   .     S
Cu233  O245    1.983   .     S
Cu233  N240    2.086   .     S
Cu233  O241    1.980   .     S
Cu234  O242    1.980   .     S
Cu234  O243    1.975   .     S
Cu234  O246    1.983   .     S
Cu234  O247    1.989   .     S
Cu234  N239    2.086   .     S
H237   C355    1.085   .     S
N239   N1080   1.293   1_554 S
N239   S1111   1.738   1_554 S
N240   N659    1.293   .     S
N240   S696    1.738   .     S
S249   O251    1.501   .     D
S249   O252    1.657   .     S
S249   O250    1.501   .     D
O252   H253    0.983   .     S
S254   O257    1.657   .     S
S254   O255    1.501   .     D
S254   O256    1.501   .     D
O257   H258    0.983   .     S
C259   O261    1.219   .     D
C259   H260    1.084   .     S
C262   H263    1.084   .     S
C262   O264    1.219   .     D
C265   H266    1.079   .     S
O267   C335    1.222   1_655 S
C268   H269    1.079   .     S
C268   O340    1.222   1_655 S
S271   O272    1.498   .     D
S271   O273    1.490   .     D
S271   N659    1.738   .     S
S271   O694    1.676   .     S
O274   H275    0.991   .     S
O274   S1111   1.676   1_554 S
S276   O278    1.498   .     D
S276   O277    1.490   .     D
S276   N1080   1.738   1_554 S
S276   O1119   1.676   1_554 S
O279   H280    0.991   .     S
O279   S696    1.676   .     S
C281   C285    1.448   .     S
C281   O313    1.320   .     A
C281   O311    1.320   .     A
C282   O314    1.320   .     A
C282   O312    1.320   .     A
C282   C286    1.448   .     S
C283   C300    1.424   .     A
C283   C335    1.467   .     S
C283   C371    1.387   1_455 S
C284   C338    1.467   .     S
C284   C299    1.424   .     A
C284   C372    1.387   .     S
C286   C5      1.339   1_565 S
C286   H28     1.085   1_565 S
C287   O317    1.321   .     A
C287   O315    1.332   .     A
C287   C292    1.481   .     S
C288   O318    1.320   .     A
C288   C291    1.481   .     S
C288   O316    1.332   .     A
C289   S319    1.784   .     S
C289   C291    1.422   .     A
C289   C299    1.433   .     A
C290   C292    1.422   .     A
C290   S324    1.784   .     S
C290   C300    1.433   .     A
C291   C293    1.401   .     A
C292   C294    1.401   .     A
C293   C295    1.405   .     A
C293   C329    1.483   .     S
C294   C332    1.483   .     S
C294   C296    1.406   .     A
C295   C301    1.393   .     A
C295   C297    1.411   .     A
C296   C298    1.411   .     A
C296   C302    1.393   .     A
C297   C299    1.424   .     A
C297   C368    1.428   .     S
C298   C300    1.424   .     A
C298   C367    1.428   1_455 S
C301   H305    1.081   .     S
C301   C353    1.387   .     S
C302   H306    1.081   .     S
C302   C354    1.387   1_455 S
Cu303  O318    1.989   .     S
Cu303  Cu304   2.777   .     S
Cu303  O314    1.975   .     S
Cu303  O315    1.983   .     S
Cu303  N310    2.086   .     S
Cu303  O311    1.980   .     S
Cu304  O312    1.980   .     S
Cu304  O313    1.975   .     S
Cu304  O316    1.983   .     S
Cu304  O317    1.989   .     S
Cu304  N309    2.086   .     S
H307   C5      1.085   1_565 S
N309   N1150   1.293   1_554 S
N309   S1181   1.738   1_554 S
N310   N729    1.293   .     S
N310   S766    1.738   .     S
S319   O321    1.501   .     D
S319   O322    1.657   .     S
S319   O320    1.501   .     D
O322   H323    0.983   .     S
S324   O327    1.657   .     S
S324   O325    1.501   .     D
S324   O326    1.501   .     D
O327   H328    0.983   .     S
C329   O331    1.219   .     D
C329   H330    1.084   .     S
C332   H333    1.084   .     S
C332   O334    1.219   .     D
C335   H336    1.079   .     S
C335   O267    1.222   1_455 S
O337   C125    1.222   1_565 S
C338   H339    1.079   .     S
C338   O130    1.222   1_565 S
O340   C268    1.222   1_455 S
S341   O342    1.498   .     D
S341   O343    1.490   .     D
S341   N729    1.738   .     S
S341   O764    1.676   .     S
O344   H345    0.991   .     S
O344   S1181   1.676   1_554 S
S346   O348    1.498   .     D
S346   O347    1.490   .     D
S346   N1150   1.738   1_554 S
S346   O1189   1.676   1_554 S
O349   H350    0.991   .     S
O349   S766    1.676   .     S
C351   C355    1.448   .     S
C351   O383    1.320   .     A
C351   O381    1.320   .     A
C352   O384    1.320   .     A
C352   O382    1.320   .     A
C352   C356    1.448   .     S
C353   C370    1.424   .     A
C353   C405    1.467   .     S
C354   C408    1.467   .     S
C354   C369    1.424   .     A
C354   C302    1.387   1_655 S
C356   C75     1.339   1_565 S
C356   H98     1.085   1_565 S
C357   O387    1.321   .     A
C357   O385    1.332   .     A
C357   C362    1.481   .     S
C358   O388    1.320   .     A
C358   C361    1.481   .     S
C358   O386    1.332   .     A
C359   S389    1.784   .     S
C359   C361    1.422   .     A
C359   C369    1.433   .     A
C360   C362    1.422   .     A
C360   S394    1.784   .     S
C360   C370    1.433   .     A
C361   C363    1.401   .     A
C362   C364    1.401   .     A
C363   C365    1.405   .     A
C363   C399    1.483   .     S
C364   C402    1.483   .     S
C364   C366    1.406   .     A
C365   C371    1.393   .     A
C365   C367    1.411   .     A
C366   C368    1.411   .     A
C366   C372    1.393   .     A
C367   C369    1.424   .     A
C367   C298    1.428   1_655 S
C368   C370    1.424   .     A
C371   H375    1.081   .     S
C371   C283    1.387   1_655 S
C372   H376    1.081   .     S
Cu373  O388    1.989   .     S
Cu373  Cu374   2.777   .     S
Cu373  O384    1.975   .     S
Cu373  O385    1.983   .     S
Cu373  N380    2.086   .     S
Cu373  O381    1.980   .     S
Cu374  O382    1.980   .     S
Cu374  O383    1.975   .     S
Cu374  O386    1.983   .     S
Cu374  O387    1.989   .     S
Cu374  N379    2.086   .     S
H377   C75     1.085   1_565 S
N379   N1220   1.293   1_554 S
N379   S1251   1.738   1_554 S
N380   N799    1.293   .     S
N380   S836    1.738   .     S
S389   O391    1.501   .     D
S389   O392    1.657   .     S
S389   O390    1.501   .     D
O392   H393    0.983   .     S
S394   O397    1.657   .     S
S394   O395    1.501   .     D
S394   O396    1.501   .     D
O397   H398    0.983   .     S
C399   O401    1.219   .     D
C399   H400    1.084   .     S
C402   H403    1.084   .     S
C402   O404    1.219   .     D
C405   H406    1.079   .     S
O407   C55     1.222   1_665 S
C408   H409    1.079   .     S
C408   O60     1.222   1_665 S
S411   O412    1.498   .     D
S411   O413    1.490   .     D
S411   N799    1.738   .     S
S411   O834    1.676   .     S
O414   H415    0.991   .     S
O414   S1251   1.676   1_554 S
S416   O418    1.498   .     D
S416   O417    1.490   .     D
S416   N1220   1.738   1_554 S
S416   O1259   1.676   1_554 S
O419   H420    0.991   .     S
O419   S836    1.676   .     S
C421   C425    1.448   .     S
C421   O453    1.320   .     A
C421   O451    1.320   .     A
C422   O454    1.320   .     A
C422   O452    1.320   .     A
C422   C426    1.448   .     S
C423   C440    1.424   .     A
C423   C475    1.467   .     S
C423   C511    1.387   1_455 S
C424   C478    1.467   .     S
C424   C439    1.424   .     A
C424   C512    1.387   .     S
C425   C706    1.339   1_545 S
C425   H727    1.085   1_545 S
C426   C565    1.339   .     S
C426   H588    1.085   .     S
C427   O457    1.321   .     A
C427   O455    1.332   .     A
C427   C432    1.481   .     S
C428   O458    1.320   .     A
C428   C431    1.481   .     S
C428   O456    1.332   .     A
C429   S459    1.784   .     S
C429   C431    1.422   .     A
C429   C439    1.433   .     A
C430   C432    1.422   .     A
C430   S464    1.784   .     S
C430   C440    1.433   .     A
C431   C433    1.401   .     A
C432   C434    1.401   .     A
C433   C435    1.405   .     A
C433   C469    1.483   .     S
C434   C472    1.483   .     S
C434   C436    1.406   .     A
C435   C441    1.393   .     A
C435   C437    1.411   .     A
C436   C438    1.411   .     A
C436   C442    1.393   .     A
C437   C439    1.424   .     A
C437   C508    1.428   .     S
C438   C440    1.424   .     A
C438   C507    1.428   1_455 S
C441   H445    1.081   .     S
C441   C493    1.387   .     S
C442   H446    1.081   .     S
C442   C494    1.387   1_455 S
Cu443  O458    1.989   .     S
Cu443  Cu444   2.777   .     S
Cu443  O454    1.975   .     S
Cu443  O455    1.983   .     S
Cu443  N450    2.086   .     S
Cu443  O451    1.980   .     S
Cu444  O452    1.980   .     S
Cu444  O453    1.975   .     S
Cu444  O456    1.983   .     S
Cu444  O457    1.989   .     S
Cu444  N449    2.086   .     S
H447   C565    1.085   .     S
H448   C706    1.085   1_545 S
N450   N869    1.293   .     S
N450   S906    1.738   .     S
S459   O461    1.501   .     D
S459   O462    1.657   .     S
S459   O460    1.501   .     D
O462   H463    0.983   .     S
S464   O467    1.657   .     S
S464   O465    1.501   .     D
S464   O466    1.501   .     D
O467   H468    0.983   .     S
C469   O471    1.219   .     D
C469   H470    1.084   .     S
C472   H473    1.084   .     S
C472   O474    1.219   .     D
C475   H476    1.079   .     S
C475   O827    1.222   1_445 S
O477   C685    1.222   .     S
C478   H479    1.079   .     S
C478   O690    1.222   .     S
O480   C828    1.222   1_445 S
S481   O482    1.498   .     D
S481   O483    1.490   .     D
S481   N869    1.738   .     S
S481   O904    1.676   .     S
O484   H485    0.991   .     S
S486   O488    1.498   .     D
S486   O487    1.490   .     D
O489   H490    0.991   .     S
O489   S906    1.676   .     S
C491   C495    1.448   .     S
C491   O523    1.320   .     A
C491   O521    1.320   .     A
C492   O524    1.320   .     A
C492   O522    1.320   .     A
C492   C496    1.448   .     S
C493   C510    1.424   .     A
C493   C545    1.467   .     S
C494   C548    1.467   .     S
C494   C509    1.424   .     A
C494   C442    1.387   1_655 S
C495   C776    1.339   1_545 S
C495   H797    1.085   1_545 S
C496   C635    1.339   .     S
C496   H658    1.085   .     S
C497   O527    1.321   .     A
C497   O525    1.332   .     A
C497   C502    1.481   .     S
C498   O528    1.320   .     A
C498   C501    1.481   .     S
C498   O526    1.332   .     A
C499   S529    1.784   .     S
C499   C501    1.422   .     A
C499   C509    1.433   .     A
C500   C502    1.422   .     A
C500   S534    1.784   .     S
C500   C510    1.433   .     A
C501   C503    1.401   .     A
C502   C504    1.401   .     A
C503   C505    1.405   .     A
C503   C539    1.483   .     S
C504   C542    1.483   .     S
C504   C506    1.406   .     A
C505   C511    1.393   .     A
C505   C507    1.411   .     A
C506   C508    1.411   .     A
C506   C512    1.393   .     A
C507   C509    1.424   .     A
C507   C438    1.428   1_655 S
C508   C510    1.424   .     A
C511   H515    1.081   .     S
C511   C423    1.387   1_655 S
C512   H516    1.081   .     S
Cu513  O528    1.989   .     S
Cu513  Cu514   2.777   .     S
Cu513  O524    1.975   .     S
Cu513  O525    1.983   .     S
Cu513  N520    2.086   .     S
Cu513  O521    1.980   .     S
Cu514  O522    1.980   .     S
Cu514  O523    1.975   .     S
Cu514  O526    1.983   .     S
Cu514  O527    1.989   .     S
Cu514  N519    2.086   .     S
H517   C635    1.085   .     S
H518   C776    1.085   1_545 S
N520   N939    1.293   .     S
N520   S976    1.738   .     S
S529   O531    1.501   .     D
S529   O532    1.657   .     S
S529   O530    1.501   .     D
O532   H533    0.983   .     S
S534   O537    1.657   .     S
S534   O535    1.501   .     D
S534   O536    1.501   .     D
O537   H538    0.983   .     S
C539   O541    1.219   .     D
C539   H540    1.084   .     S
C542   H543    1.084   .     S
C542   O544    1.219   .     D
C545   H546    1.079   .     S
C545   O757    1.222   1_545 S
O547   C615    1.222   1_655 S
C548   H549    1.079   .     S
C548   O620    1.222   1_655 S
O550   C758    1.222   1_545 S
S551   O552    1.498   .     D
S551   O553    1.490   .     D
S551   N939    1.738   .     S
S551   O974    1.676   .     S
O554   H555    0.991   .     S
S556   O558    1.498   .     D
S556   O557    1.490   .     D
O559   H560    0.991   .     S
O559   S976    1.676   .     S
C561   C565    1.448   .     S
C561   O593    1.320   .     A
C561   O591    1.320   .     A
C562   O594    1.320   .     A
C562   O592    1.320   .     A
C562   C566    1.448   .     S
C563   C580    1.424   .     A
C563   C615    1.467   .     S
C563   C651    1.387   1_455 S
C564   C618    1.467   .     S
C564   C579    1.424   .     A
C564   C652    1.387   .     S
C566   C705    1.339   .     S
C566   H728    1.085   .     S
C567   O597    1.321   .     A
C567   O595    1.332   .     A
C567   C572    1.481   .     S
C568   O598    1.320   .     A
C568   C571    1.481   .     S
C568   O596    1.332   .     A
C569   S599    1.784   .     S
C569   C571    1.422   .     A
C569   C579    1.433   .     A
C570   C572    1.422   .     A
C570   S604    1.784   .     S
C570   C580    1.433   .     A
C571   C573    1.401   .     A
C572   C574    1.401   .     A
C573   C575    1.405   .     A
C573   C609    1.483   .     S
C574   C612    1.483   .     S
C574   C576    1.406   .     A
C575   C581    1.393   .     A
C575   C577    1.411   .     A
C576   C578    1.411   .     A
C576   C582    1.393   .     A
C577   C579    1.424   .     A
C577   C648    1.428   .     S
C578   C580    1.424   .     A
C578   C647    1.428   1_455 S
C581   H585    1.081   .     S
C581   C633    1.387   .     S
C582   H586    1.081   .     S
C582   C634    1.387   1_455 S
Cu583  O598    1.989   .     S
Cu583  Cu584   2.777   .     S
Cu583  O594    1.975   .     S
Cu583  O595    1.983   .     S
Cu583  N590    2.086   .     S
Cu583  O591    1.980   .     S
Cu584  O592    1.980   .     S
Cu584  O593    1.975   .     S
Cu584  O596    1.983   .     S
Cu584  O597    1.989   .     S
Cu584  N589    2.086   .     S
H587   C705    1.085   .     S
N590   N1009   1.293   .     S
N590   S1046   1.738   .     S
S599   O601    1.501   .     D
S599   O602    1.657   .     S
S599   O600    1.501   .     D
O602   H603    0.983   .     S
S604   O607    1.657   .     S
S604   O605    1.501   .     D
S604   O606    1.501   .     D
O607   H608    0.983   .     S
C609   O611    1.219   .     D
C609   H610    1.084   .     S
C612   H613    1.084   .     S
C612   O614    1.219   .     D
C615   H616    1.079   .     S
C615   O547    1.222   1_455 S
O617   C825    1.222   .     S
C618   H619    1.079   .     S
C618   O830    1.222   .     S
O620   C548    1.222   1_455 S
S621   O622    1.498   .     D
S621   O623    1.490   .     D
S621   N1009   1.738   .     S
S621   O1044   1.676   .     S
O624   H625    0.991   .     S
S626   O628    1.498   .     D
S626   O627    1.490   .     D
O629   H630    0.991   .     S
O629   S1046   1.676   .     S
C631   C635    1.448   .     S
C631   O663    1.320   .     A
C631   O661    1.320   .     A
C632   O664    1.320   .     A
C632   O662    1.320   .     A
C632   C636    1.448   .     S
C633   C650    1.424   .     A
C633   C685    1.467   .     S
C634   C688    1.467   .     S
C634   C649    1.424   .     A
C634   C582    1.387   1_655 S
C636   C775    1.339   .     S
C636   H798    1.085   .     S
C637   O667    1.321   .     A
C637   O665    1.332   .     A
C637   C642    1.481   .     S
C638   O668    1.320   .     A
C638   C641    1.481   .     S
C638   O666    1.332   .     A
C639   S669    1.784   .     S
C639   C641    1.422   .     A
C639   C649    1.433   .     A
C640   C642    1.422   .     A
C640   S674    1.784   .     S
C640   C650    1.433   .     A
C641   C643    1.401   .     A
C642   C644    1.401   .     A
C643   C645    1.405   .     A
C643   C679    1.483   .     S
C644   C682    1.483   .     S
C644   C646    1.406   .     A
C645   C651    1.393   .     A
C645   C647    1.411   .     A
C646   C648    1.411   .     A
C646   C652    1.393   .     A
C647   C649    1.424   .     A
C647   C578    1.428   1_655 S
C648   C650    1.424   .     A
C651   H655    1.081   .     S
C651   C563    1.387   1_655 S
C652   H656    1.081   .     S
Cu653  O668    1.989   .     S
Cu653  Cu654   2.777   .     S
Cu653  O664    1.975   .     S
Cu653  O665    1.983   .     S
Cu653  N660    2.086   .     S
Cu653  O661    1.980   .     S
Cu654  O662    1.980   .     S
Cu654  O663    1.975   .     S
Cu654  O666    1.983   .     S
Cu654  O667    1.989   .     S
Cu654  N659    2.086   .     S
H657   C775    1.085   .     S
N660   N1079   1.293   .     S
N660   S1116   1.738   .     S
S669   O671    1.501   .     D
S669   O672    1.657   .     S
S669   O670    1.501   .     D
O672   H673    0.983   .     S
S674   O677    1.657   .     S
S674   O675    1.501   .     D
S674   O676    1.501   .     D
O677   H678    0.983   .     S
C679   O681    1.219   .     D
C679   H680    1.084   .     S
C682   H683    1.084   .     S
C682   O684    1.219   .     D
C685   H686    1.079   .     S
O687   C755    1.222   1_655 S
C688   H689    1.079   .     S
C688   O760    1.222   1_655 S
S691   O692    1.498   .     D
S691   O693    1.490   .     D
S691   N1079   1.738   .     S
S691   O1114   1.676   .     S
O694   H695    0.991   .     S
S696   O698    1.498   .     D
S696   O697    1.490   .     D
O699   H700    0.991   .     S
O699   S1116   1.676   .     S
C701   C705    1.448   .     S
C701   O733    1.320   .     A
C701   O731    1.320   .     A
C702   O734    1.320   .     A
C702   O732    1.320   .     A
C702   C706    1.448   .     S
C703   C720    1.424   .     A
C703   C755    1.467   .     S
C703   C791    1.387   1_455 S
C704   C758    1.467   .     S
C704   C719    1.424   .     A
C704   C792    1.387   .     S
C706   C425    1.339   1_565 S
C706   H448    1.085   1_565 S
C707   O737    1.321   .     A
C707   O735    1.332   .     A
C707   C712    1.481   .     S
C708   O738    1.320   .     A
C708   C711    1.481   .     S
C708   O736    1.332   .     A
C709   S739    1.784   .     S
C709   C711    1.422   .     A
C709   C719    1.433   .     A
C710   C712    1.422   .     A
C710   S744    1.784   .     S
C710   C720    1.433   .     A
C711   C713    1.401   .     A
C712   C714    1.401   .     A
C713   C715    1.405   .     A
C713   C749    1.483   .     S
C714   C752    1.483   .     S
C714   C716    1.406   .     A
C715   C721    1.393   .     A
C715   C717    1.411   .     A
C716   C718    1.411   .     A
C716   C722    1.393   .     A
C717   C719    1.424   .     A
C717   C788    1.428   .     S
C718   C720    1.424   .     A
C718   C787    1.428   1_455 S
C721   H725    1.081   .     S
C721   C773    1.387   .     S
C722   H726    1.081   .     S
C722   C774    1.387   1_455 S
Cu723  O738    1.989   .     S
Cu723  Cu724   2.777   .     S
Cu723  O734    1.975   .     S
Cu723  O735    1.983   .     S
Cu723  N730    2.086   .     S
Cu723  O731    1.980   .     S
Cu724  O732    1.980   .     S
Cu724  O733    1.975   .     S
Cu724  O736    1.983   .     S
Cu724  O737    1.989   .     S
Cu724  N729    2.086   .     S
H727   C425    1.085   1_565 S
N730   N1149   1.293   .     S
N730   S1186   1.738   .     S
S739   O741    1.501   .     D
S739   O742    1.657   .     S
S739   O740    1.501   .     D
O742   H743    0.983   .     S
S744   O747    1.657   .     S
S744   O745    1.501   .     D
S744   O746    1.501   .     D
O747   H748    0.983   .     S
C749   O751    1.219   .     D
C749   H750    1.084   .     S
C752   H753    1.084   .     S
C752   O754    1.219   .     D
C755   H756    1.079   .     S
C755   O687    1.222   1_455 S
O757   C545    1.222   1_565 S
C758   H759    1.079   .     S
C758   O550    1.222   1_565 S
O760   C688    1.222   1_455 S
S761   O762    1.498   .     D
S761   O763    1.490   .     D
S761   N1149   1.738   .     S
S761   O1184   1.676   .     S
O764   H765    0.991   .     S
S766   O768    1.498   .     D
S766   O767    1.490   .     D
O769   H770    0.991   .     S
O769   S1186   1.676   .     S
C771   C775    1.448   .     S
C771   O803    1.320   .     A
C771   O801    1.320   .     A
C772   O804    1.320   .     A
C772   O802    1.320   .     A
C772   C776    1.448   .     S
C773   C790    1.424   .     A
C773   C825    1.467   .     S
C774   C828    1.467   .     S
C774   C789    1.424   .     A
C774   C722    1.387   1_655 S
C776   C495    1.339   1_565 S
C776   H518    1.085   1_565 S
C777   O807    1.321   .     A
C777   O805    1.332   .     A
C777   C782    1.481   .     S
C778   O808    1.320   .     A
C778   C781    1.481   .     S
C778   O806    1.332   .     A
C779   S809    1.784   .     S
C779   C781    1.422   .     A
C779   C789    1.433   .     A
C780   C782    1.422   .     A
C780   S814    1.784   .     S
C780   C790    1.433   .     A
C781   C783    1.401   .     A
C782   C784    1.401   .     A
C783   C785    1.405   .     A
C783   C819    1.483   .     S
C784   C822    1.483   .     S
C784   C786    1.406   .     A
C785   C791    1.393   .     A
C785   C787    1.411   .     A
C786   C788    1.411   .     A
C786   C792    1.393   .     A
C787   C789    1.424   .     A
C787   C718    1.428   1_655 S
C788   C790    1.424   .     A
C791   H795    1.081   .     S
C791   C703    1.387   1_655 S
C792   H796    1.081   .     S
Cu793  O808    1.989   .     S
Cu793  Cu794   2.777   .     S
Cu793  O804    1.975   .     S
Cu793  O805    1.983   .     S
Cu793  N800    2.086   .     S
Cu793  O801    1.980   .     S
Cu794  O802    1.980   .     S
Cu794  O803    1.975   .     S
Cu794  O806    1.983   .     S
Cu794  O807    1.989   .     S
Cu794  N799    2.086   .     S
H797   C495    1.085   1_565 S
N800   N1219   1.293   .     S
N800   S1256   1.738   .     S
S809   O811    1.501   .     D
S809   O812    1.657   .     S
S809   O810    1.501   .     D
O812   H813    0.983   .     S
S814   O817    1.657   .     S
S814   O815    1.501   .     D
S814   O816    1.501   .     D
O817   H818    0.983   .     S
C819   O821    1.219   .     D
C819   H820    1.084   .     S
C822   H823    1.084   .     S
C822   O824    1.219   .     D
C825   H826    1.079   .     S
O827   C475    1.222   1_665 S
C828   H829    1.079   .     S
C828   O480    1.222   1_665 S
S831   O832    1.498   .     D
S831   O833    1.490   .     D
S831   N1219   1.738   .     S
S831   O1254   1.676   .     S
O834   H835    0.991   .     S
S836   O838    1.498   .     D
S836   O837    1.490   .     D
O839   H840    0.991   .     S
O839   S1256   1.676   .     S
C841   C845    1.448   .     S
C841   O873    1.320   .     A
C841   O871    1.320   .     A
C842   O874    1.320   .     A
C842   O872    1.320   .     A
C842   C846    1.448   .     S
C843   C860    1.424   .     A
C843   C895    1.467   .     S
C843   C931    1.387   1_455 S
C844   C898    1.467   .     S
C844   C859    1.424   .     A
C844   C932    1.387   .     S
C845   C1126   1.339   1_545 S
C845   H1147   1.085   1_545 S
C846   C985    1.339   .     S
C846   H1008   1.085   .     S
C847   O877    1.321   .     A
C847   O875    1.332   .     A
C847   C852    1.481   .     S
C848   O878    1.320   .     A
C848   C851    1.481   .     S
C848   O876    1.332   .     A
C849   S879    1.784   .     S
C849   C851    1.422   .     A
C849   C859    1.433   .     A
C850   C852    1.422   .     A
C850   S884    1.784   .     S
C850   C860    1.433   .     A
C851   C853    1.401   .     A
C852   C854    1.401   .     A
C853   C855    1.405   .     A
C853   C889    1.483   .     S
C854   C892    1.483   .     S
C854   C856    1.406   .     A
C855   C861    1.393   .     A
C855   C857    1.411   .     A
C856   C858    1.411   .     A
C856   C862    1.393   .     A
C857   C859    1.424   .     A
C857   C928    1.428   .     S
C858   C860    1.424   .     A
C858   C927    1.428   1_455 S
C861   H865    1.081   .     S
C861   C913    1.387   .     S
C862   H866    1.081   .     S
C862   C914    1.387   1_455 S
Cu863  O878    1.989   .     S
Cu863  Cu864   2.777   .     S
Cu863  O874    1.975   .     S
Cu863  O875    1.983   .     S
Cu863  N870    2.086   .     S
Cu863  O871    1.980   .     S
Cu864  O872    1.980   .     S
Cu864  O873    1.975   .     S
Cu864  O876    1.983   .     S
Cu864  O877    1.989   .     S
Cu864  N869    2.086   .     S
H867   C985    1.085   .     S
H868   C1126   1.085   1_545 S
N870   N29     1.293   1_556 S
N870   S66     1.738   1_556 S
S879   O881    1.501   .     D
S879   O882    1.657   .     S
S879   O880    1.501   .     D
O882   H883    0.983   .     S
S884   O887    1.657   .     S
S884   O885    1.501   .     D
S884   O886    1.501   .     D
O887   H888    0.983   .     S
C889   O891    1.219   .     D
C889   H890    1.084   .     S
C892   H893    1.084   .     S
C892   O894    1.219   .     D
C895   H896    1.079   .     S
C895   O1247   1.222   1_445 S
O897   C1105   1.222   .     S
C898   H899    1.079   .     S
C898   O1110   1.222   .     S
O900   C1248   1.222   1_445 S
S901   O902    1.498   .     D
S901   O903    1.490   .     D
S901   N29     1.738   1_556 S
S901   O64     1.676   1_556 S
O904   H905    0.991   .     S
S906   O908    1.498   .     D
S906   O907    1.490   .     D
O909   H910    0.991   .     S
O909   S66     1.676   1_556 S
C911   C915    1.448   .     S
C911   O943    1.320   .     A
C911   O941    1.320   .     A
C912   O944    1.320   .     A
C912   O942    1.320   .     A
C912   C916    1.448   .     S
C913   C930    1.424   .     A
C913   C965    1.467   .     S
C914   C968    1.467   .     S
C914   C929    1.424   .     A
C914   C862    1.387   1_655 S
C915   C1196   1.339   1_545 S
C915   H1217   1.085   1_545 S
C916   C1055   1.339   .     S
C916   H1078   1.085   .     S
C917   O947    1.321   .     A
C917   O945    1.332   .     A
C917   C922    1.481   .     S
C918   O948    1.320   .     A
C918   C921    1.481   .     S
C918   O946    1.332   .     A
C919   S949    1.784   .     S
C919   C921    1.422   .     A
C919   C929    1.433   .     A
C920   C922    1.422   .     A
C920   S954    1.784   .     S
C920   C930    1.433   .     A
C921   C923    1.401   .     A
C922   C924    1.401   .     A
C923   C925    1.405   .     A
C923   C959    1.483   .     S
C924   C962    1.483   .     S
C924   C926    1.406   .     A
C925   C931    1.393   .     A
C925   C927    1.411   .     A
C926   C928    1.411   .     A
C926   C932    1.393   .     A
C927   C929    1.424   .     A
C927   C858    1.428   1_655 S
C928   C930    1.424   .     A
C931   H935    1.081   .     S
C931   C843    1.387   1_655 S
C932   H936    1.081   .     S
Cu933  O948    1.989   .     S
Cu933  Cu934   2.777   .     S
Cu933  O944    1.975   .     S
Cu933  O945    1.983   .     S
Cu933  N940    2.086   .     S
Cu933  O941    1.980   .     S
Cu934  O942    1.980   .     S
Cu934  O943    1.975   .     S
Cu934  O946    1.983   .     S
Cu934  O947    1.989   .     S
Cu934  N939    2.086   .     S
H937   C1055   1.085   .     S
H938   C1196   1.085   1_545 S
N940   N99     1.293   1_556 S
N940   S136    1.738   1_556 S
S949   O951    1.501   .     D
S949   O952    1.657   .     S
S949   O950    1.501   .     D
O952   H953    0.983   .     S
S954   O957    1.657   .     S
S954   O955    1.501   .     D
S954   O956    1.501   .     D
O957   H958    0.983   .     S
C959   O961    1.219   .     D
C959   H960    1.084   .     S
C962   H963    1.084   .     S
C962   O964    1.219   .     D
C965   H966    1.079   .     S
C965   O1177   1.222   1_545 S
O967   C1035   1.222   1_655 S
C968   H969    1.079   .     S
C968   O1040   1.222   1_655 S
O970   C1178   1.222   1_545 S
S971   O972    1.498   .     D
S971   O973    1.490   .     D
S971   N99     1.738   1_556 S
S971   O134    1.676   1_556 S
O974   H975    0.991   .     S
S976   O978    1.498   .     D
S976   O977    1.490   .     D
O979   H980    0.991   .     S
O979   S136    1.676   1_556 S
C981   C985    1.448   .     S
C981   O1013   1.320   .     A
C981   O1011   1.320   .     A
C982   O1014   1.320   .     A
C982   O1012   1.320   .     A
C982   C986    1.448   .     S
C983   C1000   1.424   .     A
C983   C1035   1.467   .     S
C983   C1071   1.387   1_455 S
C984   C1038   1.467   .     S
C984   C999    1.424   .     A
C984   C1072   1.387   .     S
C986   C1125   1.339   .     S
C986   H1148   1.085   .     S
C987   O1017   1.321   .     A
C987   O1015   1.332   .     A
C987   C992    1.481   .     S
C988   O1018   1.320   .     A
C988   C991    1.481   .     S
C988   O1016   1.332   .     A
C989   S1019   1.784   .     S
C989   C991    1.422   .     A
C989   C999    1.433   .     A
C990   C992    1.422   .     A
C990   S1024   1.784   .     S
C990   C1000   1.433   .     A
C991   C993    1.401   .     A
C992   C994    1.401   .     A
C993   C995    1.405   .     A
C993   C1029   1.483   .     S
C994   C1032   1.483   .     S
C994   C996    1.406   .     A
C995   C1001   1.393   .     A
C995   C997    1.411   .     A
C996   C998    1.411   .     A
C996   C1002   1.393   .     A
C997   C999    1.424   .     A
C997   C1068   1.428   .     S
C998   C1000   1.424   .     A
C998   C1067   1.428   1_455 S
C1001  H1005   1.081   .     S
C1001  C1053   1.387   .     S
C1002  H1006   1.081   .     S
C1002  C1054   1.387   1_455 S
Cu1003 O1018   1.989   .     S
Cu1003 Cu1004  2.777   .     S
Cu1003 O1014   1.975   .     S
Cu1003 O1015   1.983   .     S
Cu1003 N1010   2.086   .     S
Cu1003 O1011   1.980   .     S
Cu1004 O1012   1.980   .     S
Cu1004 O1013   1.975   .     S
Cu1004 O1016   1.983   .     S
Cu1004 O1017   1.989   .     S
Cu1004 N1009   2.086   .     S
H1007  C1125   1.085   .     S
N1010  N169    1.293   1_556 S
N1010  S206    1.738   1_556 S
S1019  O1021   1.501   .     D
S1019  O1022   1.657   .     S
S1019  O1020   1.501   .     D
O1022  H1023   0.983   .     S
S1024  O1027   1.657   .     S
S1024  O1025   1.501   .     D
S1024  O1026   1.501   .     D
O1027  H1028   0.983   .     S
C1029  O1031   1.219   .     D
C1029  H1030   1.084   .     S
C1032  H1033   1.084   .     S
C1032  O1034   1.219   .     D
C1035  H1036   1.079   .     S
C1035  O967    1.222   1_455 S
O1037  C1245   1.222   .     S
C1038  H1039   1.079   .     S
C1038  O1250   1.222   .     S
O1040  C968    1.222   1_455 S
S1041  O1042   1.498   .     D
S1041  O1043   1.490   .     D
S1041  N169    1.738   1_556 S
S1041  O204    1.676   1_556 S
O1044  H1045   0.991   .     S
S1046  O1048   1.498   .     D
S1046  O1047   1.490   .     D
O1049  H1050   0.991   .     S
O1049  S206    1.676   1_556 S
C1051  C1055   1.448   .     S
C1051  O1083   1.320   .     A
C1051  O1081   1.320   .     A
C1052  O1084   1.320   .     A
C1052  O1082   1.320   .     A
C1052  C1056   1.448   .     S
C1053  C1070   1.424   .     A
C1053  C1105   1.467   .     S
C1054  C1108   1.467   .     S
C1054  C1069   1.424   .     A
C1054  C1002   1.387   1_655 S
C1056  C1195   1.339   .     S
C1056  H1218   1.085   .     S
C1057  O1087   1.321   .     A
C1057  O1085   1.332   .     A
C1057  C1062   1.481   .     S
C1058  O1088   1.320   .     A
C1058  C1061   1.481   .     S
C1058  O1086   1.332   .     A
C1059  S1089   1.784   .     S
C1059  C1061   1.422   .     A
C1059  C1069   1.433   .     A
C1060  C1062   1.422   .     A
C1060  S1094   1.784   .     S
C1060  C1070   1.433   .     A
C1061  C1063   1.401   .     A
C1062  C1064   1.401   .     A
C1063  C1065   1.405   .     A
C1063  C1099   1.483   .     S
C1064  C1102   1.483   .     S
C1064  C1066   1.406   .     A
C1065  C1071   1.393   .     A
C1065  C1067   1.411   .     A
C1066  C1068   1.411   .     A
C1066  C1072   1.393   .     A
C1067  C1069   1.424   .     A
C1067  C998    1.428   1_655 S
C1068  C1070   1.424   .     A
C1071  H1075   1.081   .     S
C1071  C983    1.387   1_655 S
C1072  H1076   1.081   .     S
Cu1073 O1088   1.989   .     S
Cu1073 Cu1074  2.777   .     S
Cu1073 O1084   1.975   .     S
Cu1073 O1085   1.983   .     S
Cu1073 N1080   2.086   .     S
Cu1073 O1081   1.980   .     S
Cu1074 O1082   1.980   .     S
Cu1074 O1083   1.975   .     S
Cu1074 O1086   1.983   .     S
Cu1074 O1087   1.989   .     S
Cu1074 N1079   2.086   .     S
H1077  C1195   1.085   .     S
N1080  N239    1.293   1_556 S
N1080  S276    1.738   1_556 S
S1089  O1091   1.501   .     D
S1089  O1092   1.657   .     S
S1089  O1090   1.501   .     D
O1092  H1093   0.983   .     S
S1094  O1097   1.657   .     S
S1094  O1095   1.501   .     D
S1094  O1096   1.501   .     D
O1097  H1098   0.983   .     S
C1099  O1101   1.219   .     D
C1099  H1100   1.084   .     S
C1102  H1103   1.084   .     S
C1102  O1104   1.219   .     D
C1105  H1106   1.079   .     S
O1107  C1175   1.222   1_655 S
C1108  H1109   1.079   .     S
C1108  O1180   1.222   1_655 S
S1111  O1112   1.498   .     D
S1111  O1113   1.490   .     D
S1111  N239    1.738   1_556 S
S1111  O274    1.676   1_556 S
O1114  H1115   0.991   .     S
S1116  O1118   1.498   .     D
S1116  O1117   1.490   .     D
O1119  H1120   0.991   .     S
O1119  S276    1.676   1_556 S
C1121  C1125   1.448   .     S
C1121  O1153   1.320   .     A
C1121  O1151   1.320   .     A
C1122  O1154   1.320   .     A
C1122  O1152   1.320   .     A
C1122  C1126   1.448   .     S
C1123  C1140   1.424   .     A
C1123  C1175   1.467   .     S
C1123  C1211   1.387   1_455 S
C1124  C1178   1.467   .     S
C1124  C1139   1.424   .     A
C1124  C1212   1.387   .     S
C1126  C845    1.339   1_565 S
C1126  H868    1.085   1_565 S
C1127  O1157   1.321   .     A
C1127  O1155   1.332   .     A
C1127  C1132   1.481   .     S
C1128  O1158   1.320   .     A
C1128  C1131   1.481   .     S
C1128  O1156   1.332   .     A
C1129  S1159   1.784   .     S
C1129  C1131   1.422   .     A
C1129  C1139   1.433   .     A
C1130  C1132   1.422   .     A
C1130  S1164   1.784   .     S
C1130  C1140   1.433   .     A
C1131  C1133   1.401   .     A
C1132  C1134   1.401   .     A
C1133  C1135   1.405   .     A
C1133  C1169   1.483   .     S
C1134  C1172   1.483   .     S
C1134  C1136   1.406   .     A
C1135  C1141   1.393   .     A
C1135  C1137   1.411   .     A
C1136  C1138   1.411   .     A
C1136  C1142   1.393   .     A
C1137  C1139   1.424   .     A
C1137  C1208   1.428   .     S
C1138  C1140   1.424   .     A
C1138  C1207   1.428   1_455 S
C1141  H1145   1.081   .     S
C1141  C1193   1.387   .     S
C1142  H1146   1.081   .     S
C1142  C1194   1.387   1_455 S
Cu1143 O1158   1.989   .     S
Cu1143 Cu1144  2.777   .     S
Cu1143 O1154   1.975   .     S
Cu1143 O1155   1.983   .     S
Cu1143 N1150   2.086   .     S
Cu1143 O1151   1.980   .     S
Cu1144 O1152   1.980   .     S
Cu1144 O1153   1.975   .     S
Cu1144 O1156   1.983   .     S
Cu1144 O1157   1.989   .     S
Cu1144 N1149   2.086   .     S
H1147  C845    1.085   1_565 S
N1150  N309    1.293   1_556 S
N1150  S346    1.738   1_556 S
S1159  O1161   1.501   .     D
S1159  O1162   1.657   .     S
S1159  O1160   1.501   .     D
O1162  H1163   0.983   .     S
S1164  O1167   1.657   .     S
S1164  O1165   1.501   .     D
S1164  O1166   1.501   .     D
O1167  H1168   0.983   .     S
C1169  O1171   1.219   .     D
C1169  H1170   1.084   .     S
C1172  H1173   1.084   .     S
C1172  O1174   1.219   .     D
C1175  H1176   1.079   .     S
C1175  O1107   1.222   1_455 S
O1177  C965    1.222   1_565 S
C1178  H1179   1.079   .     S
C1178  O970    1.222   1_565 S
O1180  C1108   1.222   1_455 S
S1181  O1182   1.498   .     D
S1181  O1183   1.490   .     D
S1181  N309    1.738   1_556 S
S1181  O344    1.676   1_556 S
O1184  H1185   0.991   .     S
S1186  O1188   1.498   .     D
S1186  O1187   1.490   .     D
O1189  H1190   0.991   .     S
O1189  S346    1.676   1_556 S
C1191  C1195   1.448   .     S
C1191  O1223   1.320   .     A
C1191  O1221   1.320   .     A
C1192  O1224   1.320   .     A
C1192  O1222   1.320   .     A
C1192  C1196   1.448   .     S
C1193  C1210   1.424   .     A
C1193  C1245   1.467   .     S
C1194  C1248   1.467   .     S
C1194  C1209   1.424   .     A
C1194  C1142   1.387   1_655 S
C1196  C915    1.339   1_565 S
C1196  H938    1.085   1_565 S
C1197  O1227   1.321   .     A
C1197  O1225   1.332   .     A
C1197  C1202   1.481   .     S
C1198  O1228   1.320   .     A
C1198  C1201   1.481   .     S
C1198  O1226   1.332   .     A
C1199  S1229   1.784   .     S
C1199  C1201   1.422   .     A
C1199  C1209   1.433   .     A
C1200  C1202   1.422   .     A
C1200  S1234   1.784   .     S
C1200  C1210   1.433   .     A
C1201  C1203   1.401   .     A
C1202  C1204   1.401   .     A
C1203  C1205   1.405   .     A
C1203  C1239   1.483   .     S
C1204  C1242   1.483   .     S
C1204  C1206   1.406   .     A
C1205  C1211   1.393   .     A
C1205  C1207   1.411   .     A
C1206  C1208   1.411   .     A
C1206  C1212   1.393   .     A
C1207  C1209   1.424   .     A
C1207  C1138   1.428   1_655 S
C1208  C1210   1.424   .     A
C1211  H1215   1.081   .     S
C1211  C1123   1.387   1_655 S
C1212  H1216   1.081   .     S
Cu1213 O1228   1.989   .     S
Cu1213 Cu1214  2.777   .     S
Cu1213 O1224   1.975   .     S
Cu1213 O1225   1.983   .     S
Cu1213 N1220   2.086   .     S
Cu1213 O1221   1.980   .     S
Cu1214 O1222   1.980   .     S
Cu1214 O1223   1.975   .     S
Cu1214 O1226   1.983   .     S
Cu1214 O1227   1.989   .     S
Cu1214 N1219   2.086   .     S
H1217  C915    1.085   1_565 S
N1220  N379    1.293   1_556 S
N1220  S416    1.738   1_556 S
S1229  O1231   1.501   .     D
S1229  O1232   1.657   .     S
S1229  O1230   1.501   .     D
O1232  H1233   0.983   .     S
S1234  O1237   1.657   .     S
S1234  O1235   1.501   .     D
S1234  O1236   1.501   .     D
O1237  H1238   0.983   .     S
C1239  O1241   1.219   .     D
C1239  H1240   1.084   .     S
C1242  H1243   1.084   .     S
C1242  O1244   1.219   .     D
C1245  H1246   1.079   .     S
O1247  C895    1.222   1_665 S
C1248  H1249   1.079   .     S
C1248  O900    1.222   1_665 S
S1251  O1252   1.498   .     D
S1251  O1253   1.490   .     D
S1251  N379    1.738   1_556 S
S1251  O414    1.676   1_556 S
O1254  H1255   0.991   .     S
S1256  O1258   1.498   .     D
S1256  O1257   1.490   .     D
O1259  H1260   0.991   .     S
O1259  S416    1.676   1_556 S
