data_str_m2_o10_o16_pcu_sym.120
_audit_creation_date              2020-01-03
_audit_creation_method            'Materials Studio'
_symmetry_space_group_name_H-M    'P1'
_symmetry_Int_Tables_number       1
_symmetry_cell_setting            triclinic
loop_
_symmetry_equiv_pos_as_xyz
  x,y,z
_cell_length_a                    22.2712
_cell_length_b                    26.0842
_cell_length_c                    26.8050
_cell_angle_alpha                 94.0074
_cell_angle_beta                  77.0971
_cell_angle_gamma                 103.1731
loop_
_atom_site_label
_atom_site_type_symbol
_atom_site_fract_x
_atom_site_fract_y
_atom_site_fract_z
_atom_site_U_iso_or_equiv
_atom_site_adp_type
_atom_site_occupancy
C1     C     0.18176   0.26674   0.25158   0.00000  Uiso   1.00
C2     C     0.13900   0.16714   0.48826   0.00000  Uiso   1.00
C3     C     0.15411   0.18274   0.43645   0.00000  Uiso   1.00
C4     C     0.18655   0.17997   0.01770   0.00000  Uiso   1.00
C5     C     0.24610   0.21248   0.49688   0.00000  Uiso   1.00
C6     C     0.25746   0.23247   0.44803   0.00000  Uiso   1.00
C7     C     0.21191   0.21866   0.41867   0.00000  Uiso   1.00
C8     C     0.17664   0.16160   0.06746   0.00000  Uiso   1.00
C9     C     0.28046   0.20959   0.07631   0.00000  Uiso   1.00
C10    C     0.11067   0.16271   0.40411   0.00000  Uiso   1.00
C11    C     0.19025   0.32270   0.25240   0.00000  Uiso   1.00
C12    C     0.13258   0.16491   0.34749   0.00000  Uiso   1.00
C13    C     0.14297   0.01063   0.24789   0.00000  Uiso   1.00
C14    C     0.15152   0.06659   0.24856   0.00000  Uiso   1.00
C15    C     0.20074   0.17033   0.15288   0.00000  Uiso   1.00
C16    C     0.29296   0.22607   0.02591   0.00000  Uiso   1.00
C17    C     0.22140   0.17856   0.09762   0.00000  Uiso   1.00
C18    C     0.04845   0.13551   0.42666   0.00000  Uiso   1.00
C19    C     0.03215   0.12614   0.47883   0.00000  Uiso   1.00
C20    C     0.07653   0.14045   0.00905   0.00000  Uiso   1.00
Cu21   Cu    0.10710   0.16105   0.24435   0.00000  Uiso   1.00
Cu22   Cu    0.22623   0.17228   0.25564   0.00000  Uiso   1.00
H23    H     0.31567   0.22303   0.09917   0.00000  Uiso   1.00
H24    H     0.09740   0.32016   0.24364   0.00000  Uiso   1.00
H25    H     0.00355   0.20576   0.28974   0.00000  Uiso   1.00
H26    H     0.32974   0.12753   0.21032   0.00000  Uiso   1.00
H27    H     0.30171   0.25920   0.43247   0.00000  Uiso   1.00
H28    H     0.00521   0.25087   0.01015   0.00000  Uiso   1.00
H29    H     0.13362   0.13478   0.08449   0.00000  Uiso   1.00
H30    H     0.05958   0.13139   0.04901   0.00000  Uiso   1.00
H31    H     0.31786   0.10612   0.49612   0.00000  Uiso   1.00
H32    H     0.22221   0.23792   0.38239   0.00000  Uiso   1.00
H33    H     0.23581   0.01317   0.25667   0.00000  Uiso   1.00
N34    N     0.31574   0.18074   0.26416   0.00000  Uiso   1.00
N35    N     0.01759   0.15259   0.23584   0.00000  Uiso   1.00
O36    O     0.12797   0.23807   0.24633   0.00000  Uiso   1.00
O37    O     0.22858   0.24755   0.25586   0.00000  Uiso   1.00
O38    O     0.09181   0.15960   0.31839   0.00000  Uiso   1.00
O39    O     0.19242   0.16908   0.32793   0.00000  Uiso   1.00
O40    O     0.10476   0.08578   0.24413   0.00000  Uiso   1.00
O41    O     0.20536   0.09526   0.25367   0.00000  Uiso   1.00
O42    O     0.14092   0.16425   0.17207   0.00000  Uiso   1.00
O43    O     0.24152   0.17373   0.18160   0.00000  Uiso   1.00
N44    N     0.00063   0.11578   0.39790   0.00000  Uiso   1.00
H45    H     0.01608   0.08888   0.36997   0.00000  Uiso   1.00
H46    H     0.32475   0.14724   0.38095   0.00000  Uiso   1.00
C47    C     0.51509   0.26674   0.25158   0.00000  Uiso   1.00
C48    C     0.47233   0.16714   0.48826   0.00000  Uiso   1.00
C49    C     0.48744   0.18274   0.43645   0.00000  Uiso   1.00
C50    C     0.51989   0.17997   0.01770   0.00000  Uiso   1.00
C51    C     0.57943   0.21248   0.49688   0.00000  Uiso   1.00
C52    C     0.59079   0.23247   0.44803   0.00000  Uiso   1.00
C53    C     0.54525   0.21866   0.41867   0.00000  Uiso   1.00
C54    C     0.50997   0.16160   0.06746   0.00000  Uiso   1.00
C55    C     0.61379   0.20959   0.07631   0.00000  Uiso   1.00
C56    C     0.44401   0.16271   0.40411   0.00000  Uiso   1.00
C57    C     0.52358   0.32270   0.25240   0.00000  Uiso   1.00
C58    C     0.46592   0.16491   0.34749   0.00000  Uiso   1.00
C59    C     0.47631   0.01063   0.24789   0.00000  Uiso   1.00
C60    C     0.48486   0.06659   0.24856   0.00000  Uiso   1.00
C61    C     0.53407   0.17033   0.15288   0.00000  Uiso   1.00
C62    C     0.62629   0.22607   0.02591   0.00000  Uiso   1.00
C63    C     0.55473   0.17856   0.09762   0.00000  Uiso   1.00
C64    C     0.38178   0.13551   0.42666   0.00000  Uiso   1.00
C65    C     0.36548   0.12614   0.47883   0.00000  Uiso   1.00
C66    C     0.40987   0.14045   0.00905   0.00000  Uiso   1.00
Cu67   Cu    0.44043   0.16105   0.24435   0.00000  Uiso   1.00
Cu68   Cu    0.55957   0.17228   0.25564   0.00000  Uiso   1.00
H69    H     0.64900   0.22303   0.09917   0.00000  Uiso   1.00
H70    H     0.43074   0.32016   0.24364   0.00000  Uiso   1.00
H71    H     0.33689   0.20576   0.28974   0.00000  Uiso   1.00
H72    H     0.66308   0.12753   0.21032   0.00000  Uiso   1.00
H73    H     0.63504   0.25920   0.43247   0.00000  Uiso   1.00
H74    H     0.33854   0.25087   0.01015   0.00000  Uiso   1.00
H75    H     0.46695   0.13478   0.08449   0.00000  Uiso   1.00
H76    H     0.39292   0.13139   0.04901   0.00000  Uiso   1.00
H77    H     0.65119   0.10612   0.49612   0.00000  Uiso   1.00
H78    H     0.55554   0.23792   0.38239   0.00000  Uiso   1.00
H79    H     0.56915   0.01317   0.25667   0.00000  Uiso   1.00
N80    N     0.64908   0.18074   0.26416   0.00000  Uiso   1.00
N81    N     0.35092   0.15259   0.23584   0.00000  Uiso   1.00
O82    O     0.46131   0.23807   0.24633   0.00000  Uiso   1.00
O83    O     0.56191   0.24755   0.25586   0.00000  Uiso   1.00
O84    O     0.42515   0.15960   0.31839   0.00000  Uiso   1.00
O85    O     0.52575   0.16908   0.32793   0.00000  Uiso   1.00
O86    O     0.43809   0.08578   0.24413   0.00000  Uiso   1.00
O87    O     0.53869   0.09526   0.25367   0.00000  Uiso   1.00
O88    O     0.47425   0.16425   0.17207   0.00000  Uiso   1.00
O89    O     0.57485   0.17373   0.18160   0.00000  Uiso   1.00
N90    N     0.33396   0.11578   0.39790   0.00000  Uiso   1.00
H91    H     0.34941   0.08888   0.36997   0.00000  Uiso   1.00
H92    H     0.65808   0.14724   0.38095   0.00000  Uiso   1.00
C93    C     0.84842   0.26674   0.25158   0.00000  Uiso   1.00
C94    C     0.80566   0.16714   0.48826   0.00000  Uiso   1.00
C95    C     0.82077   0.18274   0.43645   0.00000  Uiso   1.00
C96    C     0.85322   0.17997   0.01770   0.00000  Uiso   1.00
C97    C     0.91276   0.21248   0.49688   0.00000  Uiso   1.00
C98    C     0.92412   0.23247   0.44803   0.00000  Uiso   1.00
C99    C     0.87858   0.21866   0.41867   0.00000  Uiso   1.00
C100   C     0.84330   0.16160   0.06746   0.00000  Uiso   1.00
C101   C     0.94713   0.20959   0.07631   0.00000  Uiso   1.00
C102   C     0.77734   0.16271   0.40411   0.00000  Uiso   1.00
C103   C     0.85692   0.32270   0.25240   0.00000  Uiso   1.00
C104   C     0.79925   0.16491   0.34749   0.00000  Uiso   1.00
C105   C     0.80964   0.01063   0.24789   0.00000  Uiso   1.00
C106   C     0.81819   0.06659   0.24856   0.00000  Uiso   1.00
C107   C     0.86741   0.17033   0.15288   0.00000  Uiso   1.00
C108   C     0.95963   0.22607   0.02591   0.00000  Uiso   1.00
C109   C     0.88806   0.17856   0.09762   0.00000  Uiso   1.00
C110   C     0.71512   0.13551   0.42666   0.00000  Uiso   1.00
C111   C     0.69882   0.12614   0.47883   0.00000  Uiso   1.00
C112   C     0.74320   0.14045   0.00905   0.00000  Uiso   1.00
Cu113  Cu    0.77377   0.16105   0.24435   0.00000  Uiso   1.00
Cu114  Cu    0.89290   0.17228   0.25564   0.00000  Uiso   1.00
H115   H     0.98234   0.22303   0.09917   0.00000  Uiso   1.00
H116   H     0.76407   0.32016   0.24364   0.00000  Uiso   1.00
H117   H     0.67022   0.20576   0.28974   0.00000  Uiso   1.00
H118   H     0.99641   0.12753   0.21032   0.00000  Uiso   1.00
H119   H     0.96837   0.25920   0.43247   0.00000  Uiso   1.00
H120   H     0.67187   0.25087   0.01015   0.00000  Uiso   1.00
H121   H     0.80028   0.13478   0.08449   0.00000  Uiso   1.00
H122   H     0.72625   0.13139   0.04901   0.00000  Uiso   1.00
H123   H     0.98452   0.10612   0.49612   0.00000  Uiso   1.00
H124   H     0.88888   0.23792   0.38239   0.00000  Uiso   1.00
H125   H     0.90248   0.01317   0.25667   0.00000  Uiso   1.00
N126   N     0.98241   0.18074   0.26416   0.00000  Uiso   1.00
N127   N     0.68426   0.15259   0.23584   0.00000  Uiso   1.00
O128   O     0.79464   0.23807   0.24633   0.00000  Uiso   1.00
O129   O     0.89524   0.24755   0.25586   0.00000  Uiso   1.00
O130   O     0.75848   0.15960   0.31839   0.00000  Uiso   1.00
O131   O     0.85908   0.16908   0.32793   0.00000  Uiso   1.00
O132   O     0.77142   0.08578   0.24413   0.00000  Uiso   1.00
O133   O     0.87203   0.09526   0.25367   0.00000  Uiso   1.00
O134   O     0.80758   0.16425   0.17207   0.00000  Uiso   1.00
O135   O     0.90819   0.17373   0.18160   0.00000  Uiso   1.00
N136   N     0.66729   0.11578   0.39790   0.00000  Uiso   1.00
H137   H     0.68275   0.08888   0.36997   0.00000  Uiso   1.00
H138   H     0.99141   0.14724   0.38095   0.00000  Uiso   1.00
C139   C     0.18176   0.60007   0.25158   0.00000  Uiso   1.00
C140   C     0.13900   0.50048   0.48826   0.00000  Uiso   1.00
C141   C     0.15411   0.51607   0.43645   0.00000  Uiso   1.00
C142   C     0.18655   0.51331   0.01770   0.00000  Uiso   1.00
C143   C     0.24610   0.54581   0.49688   0.00000  Uiso   1.00
C144   C     0.25746   0.56580   0.44803   0.00000  Uiso   1.00
C145   C     0.21191   0.55200   0.41867   0.00000  Uiso   1.00
C146   C     0.17664   0.49493   0.06746   0.00000  Uiso   1.00
C147   C     0.28046   0.54292   0.07631   0.00000  Uiso   1.00
C148   C     0.11067   0.49604   0.40411   0.00000  Uiso   1.00
C149   C     0.19025   0.65603   0.25240   0.00000  Uiso   1.00
C150   C     0.13258   0.49824   0.34749   0.00000  Uiso   1.00
C151   C     0.14297   0.34397   0.24789   0.00000  Uiso   1.00
C152   C     0.15152   0.39993   0.24856   0.00000  Uiso   1.00
C153   C     0.20074   0.50366   0.15288   0.00000  Uiso   1.00
C154   C     0.29296   0.55940   0.02591   0.00000  Uiso   1.00
C155   C     0.22140   0.51189   0.09762   0.00000  Uiso   1.00
C156   C     0.04845   0.46885   0.42666   0.00000  Uiso   1.00
C157   C     0.03215   0.45948   0.47883   0.00000  Uiso   1.00
C158   C     0.07653   0.47379   0.00905   0.00000  Uiso   1.00
Cu159  Cu    0.10710   0.49439   0.24435   0.00000  Uiso   1.00
Cu160  Cu    0.22623   0.50561   0.25564   0.00000  Uiso   1.00
H161   H     0.31567   0.55637   0.09917   0.00000  Uiso   1.00
H162   H     0.09740   0.65349   0.24364   0.00000  Uiso   1.00
H163   H     0.00355   0.53909   0.28974   0.00000  Uiso   1.00
H164   H     0.32974   0.46087   0.21032   0.00000  Uiso   1.00
H165   H     0.30171   0.59253   0.43247   0.00000  Uiso   1.00
H166   H     0.00521   0.58420   0.01015   0.00000  Uiso   1.00
H167   H     0.13362   0.46811   0.08449   0.00000  Uiso   1.00
H168   H     0.05958   0.46473   0.04901   0.00000  Uiso   1.00
H169   H     0.31786   0.43945   0.49612   0.00000  Uiso   1.00
H170   H     0.22221   0.57126   0.38239   0.00000  Uiso   1.00
H171   H     0.23581   0.34651   0.25667   0.00000  Uiso   1.00
N172   N     0.31574   0.51407   0.26416   0.00000  Uiso   1.00
N173   N     0.01759   0.48593   0.23584   0.00000  Uiso   1.00
O174   O     0.12797   0.57141   0.24633   0.00000  Uiso   1.00
O175   O     0.22858   0.58089   0.25586   0.00000  Uiso   1.00
O176   O     0.09181   0.49293   0.31839   0.00000  Uiso   1.00
O177   O     0.19242   0.50241   0.32793   0.00000  Uiso   1.00
O178   O     0.10476   0.41911   0.24413   0.00000  Uiso   1.00
O179   O     0.20536   0.42859   0.25367   0.00000  Uiso   1.00
O180   O     0.14092   0.49759   0.17207   0.00000  Uiso   1.00
O181   O     0.24152   0.50707   0.18160   0.00000  Uiso   1.00
N182   N     0.00063   0.44911   0.39790   0.00000  Uiso   1.00
H183   H     0.01608   0.42222   0.36997   0.00000  Uiso   1.00
H184   H     0.32475   0.48057   0.38095   0.00000  Uiso   1.00
C185   C     0.51509   0.60007   0.25158   0.00000  Uiso   1.00
C186   C     0.47233   0.50048   0.48826   0.00000  Uiso   1.00
C187   C     0.48744   0.51607   0.43645   0.00000  Uiso   1.00
C188   C     0.51989   0.51331   0.01770   0.00000  Uiso   1.00
C189   C     0.57943   0.54581   0.49688   0.00000  Uiso   1.00
C190   C     0.59079   0.56580   0.44803   0.00000  Uiso   1.00
C191   C     0.54525   0.55200   0.41867   0.00000  Uiso   1.00
C192   C     0.50997   0.49493   0.06746   0.00000  Uiso   1.00
C193   C     0.61379   0.54292   0.07631   0.00000  Uiso   1.00
C194   C     0.44401   0.49604   0.40411   0.00000  Uiso   1.00
C195   C     0.52358   0.65603   0.25240   0.00000  Uiso   1.00
C196   C     0.46592   0.49824   0.34749   0.00000  Uiso   1.00
C197   C     0.47631   0.34397   0.24789   0.00000  Uiso   1.00
C198   C     0.48486   0.39993   0.24856   0.00000  Uiso   1.00
C199   C     0.53407   0.50366   0.15288   0.00000  Uiso   1.00
C200   C     0.62629   0.55940   0.02591   0.00000  Uiso   1.00
C201   C     0.55473   0.51189   0.09762   0.00000  Uiso   1.00
C202   C     0.38178   0.46885   0.42666   0.00000  Uiso   1.00
C203   C     0.36548   0.45948   0.47883   0.00000  Uiso   1.00
C204   C     0.40987   0.47379   0.00905   0.00000  Uiso   1.00
Cu205  Cu    0.44043   0.49439   0.24435   0.00000  Uiso   1.00
Cu206  Cu    0.55957   0.50561   0.25564   0.00000  Uiso   1.00
H207   H     0.64900   0.55637   0.09917   0.00000  Uiso   1.00
H208   H     0.43074   0.65349   0.24364   0.00000  Uiso   1.00
H209   H     0.33689   0.53909   0.28974   0.00000  Uiso   1.00
H210   H     0.66308   0.46087   0.21032   0.00000  Uiso   1.00
H211   H     0.63504   0.59253   0.43247   0.00000  Uiso   1.00
H212   H     0.33854   0.58420   0.01015   0.00000  Uiso   1.00
H213   H     0.46695   0.46811   0.08449   0.00000  Uiso   1.00
H214   H     0.39292   0.46473   0.04901   0.00000  Uiso   1.00
H215   H     0.65119   0.43945   0.49612   0.00000  Uiso   1.00
H216   H     0.55554   0.57126   0.38239   0.00000  Uiso   1.00
H217   H     0.56915   0.34651   0.25667   0.00000  Uiso   1.00
N218   N     0.64908   0.51407   0.26416   0.00000  Uiso   1.00
N219   N     0.35092   0.48593   0.23584   0.00000  Uiso   1.00
O220   O     0.46131   0.57141   0.24633   0.00000  Uiso   1.00
O221   O     0.56191   0.58089   0.25586   0.00000  Uiso   1.00
O222   O     0.42515   0.49293   0.31839   0.00000  Uiso   1.00
O223   O     0.52575   0.50241   0.32793   0.00000  Uiso   1.00
O224   O     0.43809   0.41911   0.24413   0.00000  Uiso   1.00
O225   O     0.53869   0.42859   0.25367   0.00000  Uiso   1.00
O226   O     0.47425   0.49759   0.17207   0.00000  Uiso   1.00
O227   O     0.57485   0.50707   0.18160   0.00000  Uiso   1.00
N228   N     0.33396   0.44911   0.39790   0.00000  Uiso   1.00
H229   H     0.34941   0.42222   0.36997   0.00000  Uiso   1.00
H230   H     0.65808   0.48057   0.38095   0.00000  Uiso   1.00
C231   C     0.84842   0.60007   0.25158   0.00000  Uiso   1.00
C232   C     0.80566   0.50048   0.48826   0.00000  Uiso   1.00
C233   C     0.82077   0.51607   0.43645   0.00000  Uiso   1.00
C234   C     0.85322   0.51331   0.01770   0.00000  Uiso   1.00
C235   C     0.91276   0.54581   0.49688   0.00000  Uiso   1.00
C236   C     0.92412   0.56580   0.44803   0.00000  Uiso   1.00
C237   C     0.87858   0.55200   0.41867   0.00000  Uiso   1.00
C238   C     0.84330   0.49493   0.06746   0.00000  Uiso   1.00
C239   C     0.94713   0.54292   0.07631   0.00000  Uiso   1.00
C240   C     0.77734   0.49604   0.40411   0.00000  Uiso   1.00
C241   C     0.85692   0.65603   0.25240   0.00000  Uiso   1.00
C242   C     0.79925   0.49824   0.34749   0.00000  Uiso   1.00
C243   C     0.80964   0.34397   0.24789   0.00000  Uiso   1.00
C244   C     0.81819   0.39993   0.24856   0.00000  Uiso   1.00
C245   C     0.86741   0.50366   0.15288   0.00000  Uiso   1.00
C246   C     0.95963   0.55940   0.02591   0.00000  Uiso   1.00
C247   C     0.88806   0.51189   0.09762   0.00000  Uiso   1.00
C248   C     0.71512   0.46885   0.42666   0.00000  Uiso   1.00
C249   C     0.69882   0.45948   0.47883   0.00000  Uiso   1.00
C250   C     0.74320   0.47379   0.00905   0.00000  Uiso   1.00
Cu251  Cu    0.77377   0.49439   0.24435   0.00000  Uiso   1.00
Cu252  Cu    0.89290   0.50561   0.25564   0.00000  Uiso   1.00
H253   H     0.98234   0.55637   0.09917   0.00000  Uiso   1.00
H254   H     0.76407   0.65349   0.24364   0.00000  Uiso   1.00
H255   H     0.67022   0.53909   0.28974   0.00000  Uiso   1.00
H256   H     0.99641   0.46087   0.21032   0.00000  Uiso   1.00
H257   H     0.96837   0.59253   0.43247   0.00000  Uiso   1.00
H258   H     0.67187   0.58420   0.01015   0.00000  Uiso   1.00
H259   H     0.80028   0.46811   0.08449   0.00000  Uiso   1.00
H260   H     0.72625   0.46473   0.04901   0.00000  Uiso   1.00
H261   H     0.98452   0.43945   0.49612   0.00000  Uiso   1.00
H262   H     0.88888   0.57126   0.38239   0.00000  Uiso   1.00
H263   H     0.90248   0.34651   0.25667   0.00000  Uiso   1.00
N264   N     0.98241   0.51407   0.26416   0.00000  Uiso   1.00
N265   N     0.68426   0.48593   0.23584   0.00000  Uiso   1.00
O266   O     0.79464   0.57141   0.24633   0.00000  Uiso   1.00
O267   O     0.89524   0.58089   0.25586   0.00000  Uiso   1.00
O268   O     0.75848   0.49293   0.31839   0.00000  Uiso   1.00
O269   O     0.85908   0.50241   0.32793   0.00000  Uiso   1.00
O270   O     0.77142   0.41911   0.24413   0.00000  Uiso   1.00
O271   O     0.87203   0.42859   0.25367   0.00000  Uiso   1.00
O272   O     0.80758   0.49759   0.17207   0.00000  Uiso   1.00
O273   O     0.90819   0.50707   0.18160   0.00000  Uiso   1.00
N274   N     0.66729   0.44911   0.39790   0.00000  Uiso   1.00
H275   H     0.68275   0.42222   0.36997   0.00000  Uiso   1.00
H276   H     0.99141   0.48057   0.38095   0.00000  Uiso   1.00
C277   C     0.18176   0.93341   0.25158   0.00000  Uiso   1.00
C278   C     0.13900   0.83381   0.48826   0.00000  Uiso   1.00
C279   C     0.15411   0.84940   0.43645   0.00000  Uiso   1.00
C280   C     0.18655   0.84664   0.01770   0.00000  Uiso   1.00
C281   C     0.24610   0.87914   0.49688   0.00000  Uiso   1.00
C282   C     0.25746   0.89913   0.44803   0.00000  Uiso   1.00
C283   C     0.21191   0.88533   0.41867   0.00000  Uiso   1.00
C284   C     0.17664   0.82826   0.06746   0.00000  Uiso   1.00
C285   C     0.28046   0.87626   0.07631   0.00000  Uiso   1.00
C286   C     0.11067   0.82938   0.40411   0.00000  Uiso   1.00
C287   C     0.19025   0.98936   0.25240   0.00000  Uiso   1.00
C288   C     0.13258   0.83158   0.34749   0.00000  Uiso   1.00
C289   C     0.14297   0.67730   0.24789   0.00000  Uiso   1.00
C290   C     0.15152   0.73326   0.24856   0.00000  Uiso   1.00
C291   C     0.20074   0.83699   0.15288   0.00000  Uiso   1.00
C292   C     0.29296   0.89274   0.02591   0.00000  Uiso   1.00
C293   C     0.22140   0.84523   0.09762   0.00000  Uiso   1.00
C294   C     0.04845   0.80218   0.42666   0.00000  Uiso   1.00
C295   C     0.03215   0.79281   0.47883   0.00000  Uiso   1.00
C296   C     0.07653   0.80712   0.00905   0.00000  Uiso   1.00
Cu297  Cu    0.10710   0.82772   0.24435   0.00000  Uiso   1.00
Cu298  Cu    0.22623   0.83895   0.25564   0.00000  Uiso   1.00
H299   H     0.31567   0.88970   0.09917   0.00000  Uiso   1.00
H300   H     0.09740   0.98682   0.24364   0.00000  Uiso   1.00
H301   H     0.00355   0.87242   0.28974   0.00000  Uiso   1.00
H302   H     0.32974   0.79420   0.21032   0.00000  Uiso   1.00
H303   H     0.30171   0.92587   0.43247   0.00000  Uiso   1.00
H304   H     0.00521   0.91754   0.01015   0.00000  Uiso   1.00
H305   H     0.13362   0.80145   0.08449   0.00000  Uiso   1.00
H306   H     0.05958   0.79806   0.04901   0.00000  Uiso   1.00
H307   H     0.31786   0.77278   0.49612   0.00000  Uiso   1.00
H308   H     0.22221   0.90459   0.38239   0.00000  Uiso   1.00
H309   H     0.23581   0.67984   0.25667   0.00000  Uiso   1.00
N310   N     0.31574   0.84741   0.26416   0.00000  Uiso   1.00
N311   N     0.01759   0.81926   0.23584   0.00000  Uiso   1.00
O312   O     0.12797   0.90474   0.24633   0.00000  Uiso   1.00
O313   O     0.22858   0.91422   0.25586   0.00000  Uiso   1.00
O314   O     0.09181   0.82627   0.31839   0.00000  Uiso   1.00
O315   O     0.19242   0.83575   0.32793   0.00000  Uiso   1.00
O316   O     0.10476   0.75245   0.24413   0.00000  Uiso   1.00
O317   O     0.20536   0.76193   0.25367   0.00000  Uiso   1.00
O318   O     0.14092   0.83092   0.17207   0.00000  Uiso   1.00
O319   O     0.24152   0.84040   0.18160   0.00000  Uiso   1.00
N320   N     0.00063   0.78244   0.39790   0.00000  Uiso   1.00
H321   H     0.01608   0.75555   0.36997   0.00000  Uiso   1.00
H322   H     0.32475   0.81391   0.38095   0.00000  Uiso   1.00
C323   C     0.51509   0.93341   0.25158   0.00000  Uiso   1.00
C324   C     0.47233   0.83381   0.48826   0.00000  Uiso   1.00
C325   C     0.48744   0.84940   0.43645   0.00000  Uiso   1.00
C326   C     0.51989   0.84664   0.01770   0.00000  Uiso   1.00
C327   C     0.57943   0.87914   0.49688   0.00000  Uiso   1.00
C328   C     0.59079   0.89913   0.44803   0.00000  Uiso   1.00
C329   C     0.54525   0.88533   0.41867   0.00000  Uiso   1.00
C330   C     0.50997   0.82826   0.06746   0.00000  Uiso   1.00
C331   C     0.61379   0.87626   0.07631   0.00000  Uiso   1.00
C332   C     0.44401   0.82938   0.40411   0.00000  Uiso   1.00
C333   C     0.52358   0.98936   0.25240   0.00000  Uiso   1.00
C334   C     0.46592   0.83158   0.34749   0.00000  Uiso   1.00
C335   C     0.47631   0.67730   0.24789   0.00000  Uiso   1.00
C336   C     0.48486   0.73326   0.24856   0.00000  Uiso   1.00
C337   C     0.53407   0.83699   0.15288   0.00000  Uiso   1.00
C338   C     0.62629   0.89274   0.02591   0.00000  Uiso   1.00
C339   C     0.55473   0.84523   0.09762   0.00000  Uiso   1.00
C340   C     0.38178   0.80218   0.42666   0.00000  Uiso   1.00
C341   C     0.36548   0.79281   0.47883   0.00000  Uiso   1.00
C342   C     0.40987   0.80712   0.00905   0.00000  Uiso   1.00
Cu343  Cu    0.44043   0.82772   0.24435   0.00000  Uiso   1.00
Cu344  Cu    0.55957   0.83895   0.25564   0.00000  Uiso   1.00
H345   H     0.64900   0.88970   0.09917   0.00000  Uiso   1.00
H346   H     0.43074   0.98682   0.24364   0.00000  Uiso   1.00
H347   H     0.33689   0.87242   0.28974   0.00000  Uiso   1.00
H348   H     0.66308   0.79420   0.21032   0.00000  Uiso   1.00
H349   H     0.63504   0.92587   0.43247   0.00000  Uiso   1.00
H350   H     0.33854   0.91754   0.01015   0.00000  Uiso   1.00
H351   H     0.46695   0.80145   0.08449   0.00000  Uiso   1.00
H352   H     0.39292   0.79806   0.04901   0.00000  Uiso   1.00
H353   H     0.65119   0.77278   0.49612   0.00000  Uiso   1.00
H354   H     0.55554   0.90459   0.38239   0.00000  Uiso   1.00
H355   H     0.56915   0.67984   0.25667   0.00000  Uiso   1.00
N356   N     0.64908   0.84741   0.26416   0.00000  Uiso   1.00
N357   N     0.35092   0.81926   0.23584   0.00000  Uiso   1.00
O358   O     0.46131   0.90474   0.24633   0.00000  Uiso   1.00
O359   O     0.56191   0.91422   0.25586   0.00000  Uiso   1.00
O360   O     0.42515   0.82627   0.31839   0.00000  Uiso   1.00
O361   O     0.52575   0.83575   0.32793   0.00000  Uiso   1.00
O362   O     0.43809   0.75245   0.24413   0.00000  Uiso   1.00
O363   O     0.53869   0.76193   0.25367   0.00000  Uiso   1.00
O364   O     0.47425   0.83092   0.17207   0.00000  Uiso   1.00
O365   O     0.57485   0.84040   0.18160   0.00000  Uiso   1.00
N366   N     0.33396   0.78244   0.39790   0.00000  Uiso   1.00
H367   H     0.34941   0.75555   0.36997   0.00000  Uiso   1.00
H368   H     0.65808   0.81391   0.38095   0.00000  Uiso   1.00
C369   C     0.84842   0.93341   0.25158   0.00000  Uiso   1.00
C370   C     0.80566   0.83381   0.48826   0.00000  Uiso   1.00
C371   C     0.82077   0.84940   0.43645   0.00000  Uiso   1.00
C372   C     0.85322   0.84664   0.01770   0.00000  Uiso   1.00
C373   C     0.91276   0.87914   0.49688   0.00000  Uiso   1.00
C374   C     0.92412   0.89913   0.44803   0.00000  Uiso   1.00
C375   C     0.87858   0.88533   0.41867   0.00000  Uiso   1.00
C376   C     0.84330   0.82826   0.06746   0.00000  Uiso   1.00
C377   C     0.94713   0.87626   0.07631   0.00000  Uiso   1.00
C378   C     0.77734   0.82938   0.40411   0.00000  Uiso   1.00
C379   C     0.85692   0.98936   0.25240   0.00000  Uiso   1.00
C380   C     0.79925   0.83158   0.34749   0.00000  Uiso   1.00
C381   C     0.80964   0.67730   0.24789   0.00000  Uiso   1.00
C382   C     0.81819   0.73326   0.24856   0.00000  Uiso   1.00
C383   C     0.86741   0.83699   0.15288   0.00000  Uiso   1.00
C384   C     0.95963   0.89274   0.02591   0.00000  Uiso   1.00
C385   C     0.88806   0.84523   0.09762   0.00000  Uiso   1.00
C386   C     0.71512   0.80218   0.42666   0.00000  Uiso   1.00
C387   C     0.69882   0.79281   0.47883   0.00000  Uiso   1.00
C388   C     0.74320   0.80712   0.00905   0.00000  Uiso   1.00
Cu389  Cu    0.77377   0.82772   0.24435   0.00000  Uiso   1.00
Cu390  Cu    0.89290   0.83895   0.25564   0.00000  Uiso   1.00
H391   H     0.98234   0.88970   0.09917   0.00000  Uiso   1.00
H392   H     0.76407   0.98682   0.24364   0.00000  Uiso   1.00
H393   H     0.67022   0.87242   0.28974   0.00000  Uiso   1.00
H394   H     0.99641   0.79420   0.21032   0.00000  Uiso   1.00
H395   H     0.96837   0.92587   0.43247   0.00000  Uiso   1.00
H396   H     0.67187   0.91754   0.01015   0.00000  Uiso   1.00
H397   H     0.80028   0.80145   0.08449   0.00000  Uiso   1.00
H398   H     0.72625   0.79806   0.04901   0.00000  Uiso   1.00
H399   H     0.98452   0.77278   0.49612   0.00000  Uiso   1.00
H400   H     0.88888   0.90459   0.38239   0.00000  Uiso   1.00
H401   H     0.90248   0.67984   0.25667   0.00000  Uiso   1.00
N402   N     0.98241   0.84741   0.26416   0.00000  Uiso   1.00
N403   N     0.68426   0.81926   0.23584   0.00000  Uiso   1.00
O404   O     0.79464   0.90474   0.24633   0.00000  Uiso   1.00
O405   O     0.89524   0.91422   0.25586   0.00000  Uiso   1.00
O406   O     0.75848   0.82627   0.31839   0.00000  Uiso   1.00
O407   O     0.85908   0.83575   0.32793   0.00000  Uiso   1.00
O408   O     0.77142   0.75245   0.24413   0.00000  Uiso   1.00
O409   O     0.87203   0.76193   0.25367   0.00000  Uiso   1.00
O410   O     0.80758   0.83092   0.17207   0.00000  Uiso   1.00
O411   O     0.90819   0.84040   0.18160   0.00000  Uiso   1.00
N412   N     0.66729   0.78244   0.39790   0.00000  Uiso   1.00
H413   H     0.68275   0.75555   0.36997   0.00000  Uiso   1.00
H414   H     0.99141   0.81391   0.38095   0.00000  Uiso   1.00
C415   C     0.18176   0.26674   0.75158   0.00000  Uiso   1.00
C416   C     0.13900   0.16714   0.98826   0.00000  Uiso   1.00
C417   C     0.15411   0.18274   0.93645   0.00000  Uiso   1.00
C418   C     0.18655   0.17997   0.51770   0.00000  Uiso   1.00
C419   C     0.24610   0.21248   0.99688   0.00000  Uiso   1.00
C420   C     0.25746   0.23247   0.94803   0.00000  Uiso   1.00
C421   C     0.21191   0.21866   0.91867   0.00000  Uiso   1.00
C422   C     0.17664   0.16160   0.56746   0.00000  Uiso   1.00
C423   C     0.28046   0.20959   0.57631   0.00000  Uiso   1.00
C424   C     0.11067   0.16271   0.90411   0.00000  Uiso   1.00
C425   C     0.19025   0.32270   0.75240   0.00000  Uiso   1.00
C426   C     0.13258   0.16491   0.84749   0.00000  Uiso   1.00
C427   C     0.14297   0.01063   0.74789   0.00000  Uiso   1.00
C428   C     0.15152   0.06659   0.74856   0.00000  Uiso   1.00
C429   C     0.20074   0.17033   0.65288   0.00000  Uiso   1.00
C430   C     0.29296   0.22607   0.52591   0.00000  Uiso   1.00
C431   C     0.22140   0.17856   0.59762   0.00000  Uiso   1.00
C432   C     0.04845   0.13551   0.92666   0.00000  Uiso   1.00
C433   C     0.03215   0.12614   0.97883   0.00000  Uiso   1.00
C434   C     0.07653   0.14045   0.50905   0.00000  Uiso   1.00
Cu435  Cu    0.10710   0.16105   0.74435   0.00000  Uiso   1.00
Cu436  Cu    0.22623   0.17228   0.75564   0.00000  Uiso   1.00
H437   H     0.31567   0.22303   0.59917   0.00000  Uiso   1.00
H438   H     0.09740   0.32016   0.74364   0.00000  Uiso   1.00
H439   H     0.00355   0.20576   0.78974   0.00000  Uiso   1.00
H440   H     0.32974   0.12753   0.71032   0.00000  Uiso   1.00
H441   H     0.30171   0.25920   0.93247   0.00000  Uiso   1.00
H442   H     0.00521   0.25087   0.51015   0.00000  Uiso   1.00
H443   H     0.13362   0.13478   0.58449   0.00000  Uiso   1.00
H444   H     0.05958   0.13139   0.54901   0.00000  Uiso   1.00
H445   H     0.31786   0.10612   0.99612   0.00000  Uiso   1.00
H446   H     0.22221   0.23792   0.88239   0.00000  Uiso   1.00
H447   H     0.23581   0.01317   0.75667   0.00000  Uiso   1.00
N448   N     0.31574   0.18074   0.76416   0.00000  Uiso   1.00
N449   N     0.01759   0.15259   0.73584   0.00000  Uiso   1.00
O450   O     0.12797   0.23807   0.74633   0.00000  Uiso   1.00
O451   O     0.22858   0.24755   0.75586   0.00000  Uiso   1.00
O452   O     0.09181   0.15960   0.81839   0.00000  Uiso   1.00
O453   O     0.19242   0.16908   0.82793   0.00000  Uiso   1.00
O454   O     0.10476   0.08578   0.74413   0.00000  Uiso   1.00
O455   O     0.20536   0.09526   0.75367   0.00000  Uiso   1.00
O456   O     0.14092   0.16425   0.67207   0.00000  Uiso   1.00
O457   O     0.24152   0.17373   0.68160   0.00000  Uiso   1.00
N458   N     0.00063   0.11578   0.89790   0.00000  Uiso   1.00
H459   H     0.01608   0.08888   0.86997   0.00000  Uiso   1.00
H460   H     0.32475   0.14724   0.88095   0.00000  Uiso   1.00
C461   C     0.51509   0.26674   0.75158   0.00000  Uiso   1.00
C462   C     0.47233   0.16714   0.98826   0.00000  Uiso   1.00
C463   C     0.48744   0.18274   0.93645   0.00000  Uiso   1.00
C464   C     0.51989   0.17997   0.51770   0.00000  Uiso   1.00
C465   C     0.57943   0.21248   0.99688   0.00000  Uiso   1.00
C466   C     0.59079   0.23247   0.94803   0.00000  Uiso   1.00
C467   C     0.54525   0.21866   0.91867   0.00000  Uiso   1.00
C468   C     0.50997   0.16160   0.56746   0.00000  Uiso   1.00
C469   C     0.61379   0.20959   0.57631   0.00000  Uiso   1.00
C470   C     0.44401   0.16271   0.90411   0.00000  Uiso   1.00
C471   C     0.52358   0.32270   0.75240   0.00000  Uiso   1.00
C472   C     0.46592   0.16491   0.84749   0.00000  Uiso   1.00
C473   C     0.47631   0.01063   0.74789   0.00000  Uiso   1.00
C474   C     0.48486   0.06659   0.74856   0.00000  Uiso   1.00
C475   C     0.53407   0.17033   0.65288   0.00000  Uiso   1.00
C476   C     0.62629   0.22607   0.52591   0.00000  Uiso   1.00
C477   C     0.55473   0.17856   0.59762   0.00000  Uiso   1.00
C478   C     0.38178   0.13551   0.92666   0.00000  Uiso   1.00
C479   C     0.36548   0.12614   0.97883   0.00000  Uiso   1.00
C480   C     0.40987   0.14045   0.50905   0.00000  Uiso   1.00
Cu481  Cu    0.44043   0.16105   0.74435   0.00000  Uiso   1.00
Cu482  Cu    0.55957   0.17228   0.75564   0.00000  Uiso   1.00
H483   H     0.64900   0.22303   0.59917   0.00000  Uiso   1.00
H484   H     0.43074   0.32016   0.74364   0.00000  Uiso   1.00
H485   H     0.33689   0.20576   0.78974   0.00000  Uiso   1.00
H486   H     0.66308   0.12753   0.71032   0.00000  Uiso   1.00
H487   H     0.63504   0.25920   0.93247   0.00000  Uiso   1.00
H488   H     0.33854   0.25087   0.51015   0.00000  Uiso   1.00
H489   H     0.46695   0.13478   0.58449   0.00000  Uiso   1.00
H490   H     0.39292   0.13139   0.54901   0.00000  Uiso   1.00
H491   H     0.65119   0.10612   0.99612   0.00000  Uiso   1.00
H492   H     0.55554   0.23792   0.88239   0.00000  Uiso   1.00
H493   H     0.56915   0.01317   0.75667   0.00000  Uiso   1.00
N494   N     0.64908   0.18074   0.76416   0.00000  Uiso   1.00
N495   N     0.35092   0.15259   0.73584   0.00000  Uiso   1.00
O496   O     0.46131   0.23807   0.74633   0.00000  Uiso   1.00
O497   O     0.56191   0.24755   0.75586   0.00000  Uiso   1.00
O498   O     0.42515   0.15960   0.81839   0.00000  Uiso   1.00
O499   O     0.52575   0.16908   0.82793   0.00000  Uiso   1.00
O500   O     0.43809   0.08578   0.74413   0.00000  Uiso   1.00
O501   O     0.53869   0.09526   0.75367   0.00000  Uiso   1.00
O502   O     0.47425   0.16425   0.67207   0.00000  Uiso   1.00
O503   O     0.57485   0.17373   0.68160   0.00000  Uiso   1.00
N504   N     0.33396   0.11578   0.89790   0.00000  Uiso   1.00
H505   H     0.34941   0.08888   0.86997   0.00000  Uiso   1.00
H506   H     0.65808   0.14724   0.88095   0.00000  Uiso   1.00
C507   C     0.84842   0.26674   0.75158   0.00000  Uiso   1.00
C508   C     0.80566   0.16714   0.98826   0.00000  Uiso   1.00
C509   C     0.82077   0.18274   0.93645   0.00000  Uiso   1.00
C510   C     0.85322   0.17997   0.51770   0.00000  Uiso   1.00
C511   C     0.91276   0.21248   0.99688   0.00000  Uiso   1.00
C512   C     0.92412   0.23247   0.94803   0.00000  Uiso   1.00
C513   C     0.87858   0.21866   0.91867   0.00000  Uiso   1.00
C514   C     0.84330   0.16160   0.56746   0.00000  Uiso   1.00
C515   C     0.94713   0.20959   0.57631   0.00000  Uiso   1.00
C516   C     0.77734   0.16271   0.90411   0.00000  Uiso   1.00
C517   C     0.85692   0.32270   0.75240   0.00000  Uiso   1.00
C518   C     0.79925   0.16491   0.84749   0.00000  Uiso   1.00
C519   C     0.80964   0.01063   0.74789   0.00000  Uiso   1.00
C520   C     0.81819   0.06659   0.74856   0.00000  Uiso   1.00
C521   C     0.86741   0.17033   0.65288   0.00000  Uiso   1.00
C522   C     0.95963   0.22607   0.52591   0.00000  Uiso   1.00
C523   C     0.88806   0.17856   0.59762   0.00000  Uiso   1.00
C524   C     0.71512   0.13551   0.92666   0.00000  Uiso   1.00
C525   C     0.69882   0.12614   0.97883   0.00000  Uiso   1.00
C526   C     0.74320   0.14045   0.50905   0.00000  Uiso   1.00
Cu527  Cu    0.77377   0.16105   0.74435   0.00000  Uiso   1.00
Cu528  Cu    0.89290   0.17228   0.75564   0.00000  Uiso   1.00
H529   H     0.98234   0.22303   0.59917   0.00000  Uiso   1.00
H530   H     0.76407   0.32016   0.74364   0.00000  Uiso   1.00
H531   H     0.67022   0.20576   0.78974   0.00000  Uiso   1.00
H532   H     0.99641   0.12753   0.71032   0.00000  Uiso   1.00
H533   H     0.96837   0.25920   0.93247   0.00000  Uiso   1.00
H534   H     0.67187   0.25087   0.51015   0.00000  Uiso   1.00
H535   H     0.80028   0.13478   0.58449   0.00000  Uiso   1.00
H536   H     0.72625   0.13139   0.54901   0.00000  Uiso   1.00
H537   H     0.98452   0.10612   0.99612   0.00000  Uiso   1.00
H538   H     0.88888   0.23792   0.88239   0.00000  Uiso   1.00
H539   H     0.90248   0.01317   0.75667   0.00000  Uiso   1.00
N540   N     0.98241   0.18074   0.76416   0.00000  Uiso   1.00
N541   N     0.68426   0.15259   0.73584   0.00000  Uiso   1.00
O542   O     0.79464   0.23807   0.74633   0.00000  Uiso   1.00
O543   O     0.89524   0.24755   0.75586   0.00000  Uiso   1.00
O544   O     0.75848   0.15960   0.81839   0.00000  Uiso   1.00
O545   O     0.85908   0.16908   0.82793   0.00000  Uiso   1.00
O546   O     0.77142   0.08578   0.74413   0.00000  Uiso   1.00
O547   O     0.87203   0.09526   0.75367   0.00000  Uiso   1.00
O548   O     0.80758   0.16425   0.67207   0.00000  Uiso   1.00
O549   O     0.90819   0.17373   0.68160   0.00000  Uiso   1.00
N550   N     0.66729   0.11578   0.89790   0.00000  Uiso   1.00
H551   H     0.68275   0.08888   0.86997   0.00000  Uiso   1.00
H552   H     0.99141   0.14724   0.88095   0.00000  Uiso   1.00
C553   C     0.18176   0.60007   0.75158   0.00000  Uiso   1.00
C554   C     0.13900   0.50048   0.98826   0.00000  Uiso   1.00
C555   C     0.15411   0.51607   0.93645   0.00000  Uiso   1.00
C556   C     0.18655   0.51331   0.51770   0.00000  Uiso   1.00
C557   C     0.24610   0.54581   0.99688   0.00000  Uiso   1.00
C558   C     0.25746   0.56580   0.94803   0.00000  Uiso   1.00
C559   C     0.21191   0.55200   0.91867   0.00000  Uiso   1.00
C560   C     0.17664   0.49493   0.56746   0.00000  Uiso   1.00
C561   C     0.28046   0.54292   0.57631   0.00000  Uiso   1.00
C562   C     0.11067   0.49604   0.90411   0.00000  Uiso   1.00
C563   C     0.19025   0.65603   0.75240   0.00000  Uiso   1.00
C564   C     0.13258   0.49824   0.84749   0.00000  Uiso   1.00
C565   C     0.14297   0.34397   0.74789   0.00000  Uiso   1.00
C566   C     0.15152   0.39993   0.74856   0.00000  Uiso   1.00
C567   C     0.20074   0.50366   0.65288   0.00000  Uiso   1.00
C568   C     0.29296   0.55940   0.52591   0.00000  Uiso   1.00
C569   C     0.22140   0.51189   0.59762   0.00000  Uiso   1.00
C570   C     0.04845   0.46885   0.92666   0.00000  Uiso   1.00
C571   C     0.03215   0.45948   0.97883   0.00000  Uiso   1.00
C572   C     0.07653   0.47379   0.50905   0.00000  Uiso   1.00
Cu573  Cu    0.10710   0.49439   0.74435   0.00000  Uiso   1.00
Cu574  Cu    0.22623   0.50561   0.75564   0.00000  Uiso   1.00
H575   H     0.31567   0.55637   0.59917   0.00000  Uiso   1.00
H576   H     0.09740   0.65349   0.74364   0.00000  Uiso   1.00
H577   H     0.00355   0.53909   0.78974   0.00000  Uiso   1.00
H578   H     0.32974   0.46087   0.71032   0.00000  Uiso   1.00
H579   H     0.30171   0.59253   0.93247   0.00000  Uiso   1.00
H580   H     0.00521   0.58420   0.51015   0.00000  Uiso   1.00
H581   H     0.13362   0.46811   0.58449   0.00000  Uiso   1.00
H582   H     0.05958   0.46473   0.54901   0.00000  Uiso   1.00
H583   H     0.31786   0.43945   0.99612   0.00000  Uiso   1.00
H584   H     0.22221   0.57126   0.88239   0.00000  Uiso   1.00
H585   H     0.23581   0.34651   0.75667   0.00000  Uiso   1.00
N586   N     0.31574   0.51407   0.76416   0.00000  Uiso   1.00
N587   N     0.01759   0.48593   0.73584   0.00000  Uiso   1.00
O588   O     0.12797   0.57141   0.74633   0.00000  Uiso   1.00
O589   O     0.22858   0.58089   0.75586   0.00000  Uiso   1.00
O590   O     0.09181   0.49293   0.81839   0.00000  Uiso   1.00
O591   O     0.19242   0.50241   0.82793   0.00000  Uiso   1.00
O592   O     0.10476   0.41911   0.74413   0.00000  Uiso   1.00
O593   O     0.20536   0.42859   0.75367   0.00000  Uiso   1.00
O594   O     0.14092   0.49759   0.67207   0.00000  Uiso   1.00
O595   O     0.24152   0.50707   0.68160   0.00000  Uiso   1.00
N596   N     0.00063   0.44911   0.89790   0.00000  Uiso   1.00
H597   H     0.01608   0.42222   0.86997   0.00000  Uiso   1.00
H598   H     0.32475   0.48057   0.88095   0.00000  Uiso   1.00
C599   C     0.51509   0.60007   0.75158   0.00000  Uiso   1.00
C600   C     0.47233   0.50048   0.98826   0.00000  Uiso   1.00
C601   C     0.48744   0.51607   0.93645   0.00000  Uiso   1.00
C602   C     0.51989   0.51331   0.51770   0.00000  Uiso   1.00
C603   C     0.57943   0.54581   0.99688   0.00000  Uiso   1.00
C604   C     0.59079   0.56580   0.94803   0.00000  Uiso   1.00
C605   C     0.54525   0.55200   0.91867   0.00000  Uiso   1.00
C606   C     0.50997   0.49493   0.56746   0.00000  Uiso   1.00
C607   C     0.61379   0.54292   0.57631   0.00000  Uiso   1.00
C608   C     0.44401   0.49604   0.90411   0.00000  Uiso   1.00
C609   C     0.52358   0.65603   0.75240   0.00000  Uiso   1.00
C610   C     0.46592   0.49824   0.84749   0.00000  Uiso   1.00
C611   C     0.47631   0.34397   0.74789   0.00000  Uiso   1.00
C612   C     0.48486   0.39993   0.74856   0.00000  Uiso   1.00
C613   C     0.53407   0.50366   0.65288   0.00000  Uiso   1.00
C614   C     0.62629   0.55940   0.52591   0.00000  Uiso   1.00
C615   C     0.55473   0.51189   0.59762   0.00000  Uiso   1.00
C616   C     0.38178   0.46885   0.92666   0.00000  Uiso   1.00
C617   C     0.36548   0.45948   0.97883   0.00000  Uiso   1.00
C618   C     0.40987   0.47379   0.50905   0.00000  Uiso   1.00
Cu619  Cu    0.44043   0.49439   0.74435   0.00000  Uiso   1.00
Cu620  Cu    0.55957   0.50561   0.75564   0.00000  Uiso   1.00
H621   H     0.64900   0.55637   0.59917   0.00000  Uiso   1.00
H622   H     0.43074   0.65349   0.74364   0.00000  Uiso   1.00
H623   H     0.33689   0.53909   0.78974   0.00000  Uiso   1.00
H624   H     0.66308   0.46087   0.71032   0.00000  Uiso   1.00
H625   H     0.63504   0.59253   0.93247   0.00000  Uiso   1.00
H626   H     0.33854   0.58420   0.51015   0.00000  Uiso   1.00
H627   H     0.46695   0.46811   0.58449   0.00000  Uiso   1.00
H628   H     0.39292   0.46473   0.54901   0.00000  Uiso   1.00
H629   H     0.65119   0.43945   0.99612   0.00000  Uiso   1.00
H630   H     0.55554   0.57126   0.88239   0.00000  Uiso   1.00
H631   H     0.56915   0.34651   0.75667   0.00000  Uiso   1.00
N632   N     0.64908   0.51407   0.76416   0.00000  Uiso   1.00
N633   N     0.35092   0.48593   0.73584   0.00000  Uiso   1.00
O634   O     0.46131   0.57141   0.74633   0.00000  Uiso   1.00
O635   O     0.56191   0.58089   0.75586   0.00000  Uiso   1.00
O636   O     0.42515   0.49293   0.81839   0.00000  Uiso   1.00
O637   O     0.52575   0.50241   0.82793   0.00000  Uiso   1.00
O638   O     0.43809   0.41911   0.74413   0.00000  Uiso   1.00
O639   O     0.53869   0.42859   0.75367   0.00000  Uiso   1.00
O640   O     0.47425   0.49759   0.67207   0.00000  Uiso   1.00
O641   O     0.57485   0.50707   0.68160   0.00000  Uiso   1.00
N642   N     0.33396   0.44911   0.89790   0.00000  Uiso   1.00
H643   H     0.34941   0.42222   0.86997   0.00000  Uiso   1.00
H644   H     0.65808   0.48057   0.88095   0.00000  Uiso   1.00
C645   C     0.84842   0.60007   0.75158   0.00000  Uiso   1.00
C646   C     0.80566   0.50048   0.98826   0.00000  Uiso   1.00
C647   C     0.82077   0.51607   0.93645   0.00000  Uiso   1.00
C648   C     0.85322   0.51331   0.51770   0.00000  Uiso   1.00
C649   C     0.91276   0.54581   0.99688   0.00000  Uiso   1.00
C650   C     0.92412   0.56580   0.94803   0.00000  Uiso   1.00
C651   C     0.87858   0.55200   0.91867   0.00000  Uiso   1.00
C652   C     0.84330   0.49493   0.56746   0.00000  Uiso   1.00
C653   C     0.94713   0.54292   0.57631   0.00000  Uiso   1.00
C654   C     0.77734   0.49604   0.90411   0.00000  Uiso   1.00
C655   C     0.85692   0.65603   0.75240   0.00000  Uiso   1.00
C656   C     0.79925   0.49824   0.84749   0.00000  Uiso   1.00
C657   C     0.80964   0.34397   0.74789   0.00000  Uiso   1.00
C658   C     0.81819   0.39993   0.74856   0.00000  Uiso   1.00
C659   C     0.86741   0.50366   0.65288   0.00000  Uiso   1.00
C660   C     0.95963   0.55940   0.52591   0.00000  Uiso   1.00
C661   C     0.88806   0.51189   0.59762   0.00000  Uiso   1.00
C662   C     0.71512   0.46885   0.92666   0.00000  Uiso   1.00
C663   C     0.69882   0.45948   0.97883   0.00000  Uiso   1.00
C664   C     0.74320   0.47379   0.50905   0.00000  Uiso   1.00
Cu665  Cu    0.77377   0.49439   0.74435   0.00000  Uiso   1.00
Cu666  Cu    0.89290   0.50561   0.75564   0.00000  Uiso   1.00
H667   H     0.98234   0.55637   0.59917   0.00000  Uiso   1.00
H668   H     0.76407   0.65349   0.74364   0.00000  Uiso   1.00
H669   H     0.67022   0.53909   0.78974   0.00000  Uiso   1.00
H670   H     0.99641   0.46087   0.71032   0.00000  Uiso   1.00
H671   H     0.96837   0.59253   0.93247   0.00000  Uiso   1.00
H672   H     0.67187   0.58420   0.51015   0.00000  Uiso   1.00
H673   H     0.80028   0.46811   0.58449   0.00000  Uiso   1.00
H674   H     0.72625   0.46473   0.54901   0.00000  Uiso   1.00
H675   H     0.98452   0.43945   0.99612   0.00000  Uiso   1.00
H676   H     0.88888   0.57126   0.88239   0.00000  Uiso   1.00
H677   H     0.90248   0.34651   0.75667   0.00000  Uiso   1.00
N678   N     0.98241   0.51407   0.76416   0.00000  Uiso   1.00
N679   N     0.68426   0.48593   0.73584   0.00000  Uiso   1.00
O680   O     0.79464   0.57141   0.74633   0.00000  Uiso   1.00
O681   O     0.89524   0.58089   0.75586   0.00000  Uiso   1.00
O682   O     0.75848   0.49293   0.81839   0.00000  Uiso   1.00
O683   O     0.85908   0.50241   0.82793   0.00000  Uiso   1.00
O684   O     0.77142   0.41911   0.74413   0.00000  Uiso   1.00
O685   O     0.87203   0.42859   0.75367   0.00000  Uiso   1.00
O686   O     0.80758   0.49759   0.67207   0.00000  Uiso   1.00
O687   O     0.90819   0.50707   0.68160   0.00000  Uiso   1.00
N688   N     0.66729   0.44911   0.89790   0.00000  Uiso   1.00
H689   H     0.68275   0.42222   0.86997   0.00000  Uiso   1.00
H690   H     0.99141   0.48057   0.88095   0.00000  Uiso   1.00
C691   C     0.18176   0.93341   0.75158   0.00000  Uiso   1.00
C692   C     0.13900   0.83381   0.98826   0.00000  Uiso   1.00
C693   C     0.15411   0.84940   0.93645   0.00000  Uiso   1.00
C694   C     0.18655   0.84664   0.51770   0.00000  Uiso   1.00
C695   C     0.24610   0.87914   0.99688   0.00000  Uiso   1.00
C696   C     0.25746   0.89913   0.94803   0.00000  Uiso   1.00
C697   C     0.21191   0.88533   0.91867   0.00000  Uiso   1.00
C698   C     0.17664   0.82826   0.56746   0.00000  Uiso   1.00
C699   C     0.28046   0.87626   0.57631   0.00000  Uiso   1.00
C700   C     0.11067   0.82938   0.90411   0.00000  Uiso   1.00
C701   C     0.19025   0.98936   0.75240   0.00000  Uiso   1.00
C702   C     0.13258   0.83158   0.84749   0.00000  Uiso   1.00
C703   C     0.14297   0.67730   0.74789   0.00000  Uiso   1.00
C704   C     0.15152   0.73326   0.74856   0.00000  Uiso   1.00
C705   C     0.20074   0.83699   0.65288   0.00000  Uiso   1.00
C706   C     0.29296   0.89274   0.52591   0.00000  Uiso   1.00
C707   C     0.22140   0.84523   0.59762   0.00000  Uiso   1.00
C708   C     0.04845   0.80218   0.92666   0.00000  Uiso   1.00
C709   C     0.03215   0.79281   0.97883   0.00000  Uiso   1.00
C710   C     0.07653   0.80712   0.50905   0.00000  Uiso   1.00
Cu711  Cu    0.10710   0.82772   0.74435   0.00000  Uiso   1.00
Cu712  Cu    0.22623   0.83895   0.75564   0.00000  Uiso   1.00
H713   H     0.31567   0.88970   0.59917   0.00000  Uiso   1.00
H714   H     0.09740   0.98682   0.74364   0.00000  Uiso   1.00
H715   H     0.00355   0.87242   0.78974   0.00000  Uiso   1.00
H716   H     0.32974   0.79420   0.71032   0.00000  Uiso   1.00
H717   H     0.30171   0.92587   0.93247   0.00000  Uiso   1.00
H718   H     0.00521   0.91754   0.51015   0.00000  Uiso   1.00
H719   H     0.13362   0.80145   0.58449   0.00000  Uiso   1.00
H720   H     0.05958   0.79806   0.54901   0.00000  Uiso   1.00
H721   H     0.31786   0.77278   0.99612   0.00000  Uiso   1.00
H722   H     0.22221   0.90459   0.88239   0.00000  Uiso   1.00
H723   H     0.23581   0.67984   0.75667   0.00000  Uiso   1.00
N724   N     0.31574   0.84741   0.76416   0.00000  Uiso   1.00
N725   N     0.01759   0.81926   0.73584   0.00000  Uiso   1.00
O726   O     0.12797   0.90474   0.74633   0.00000  Uiso   1.00
O727   O     0.22858   0.91422   0.75586   0.00000  Uiso   1.00
O728   O     0.09181   0.82627   0.81839   0.00000  Uiso   1.00
O729   O     0.19242   0.83575   0.82793   0.00000  Uiso   1.00
O730   O     0.10476   0.75245   0.74413   0.00000  Uiso   1.00
O731   O     0.20536   0.76193   0.75367   0.00000  Uiso   1.00
O732   O     0.14092   0.83092   0.67207   0.00000  Uiso   1.00
O733   O     0.24152   0.84040   0.68160   0.00000  Uiso   1.00
N734   N     0.00063   0.78244   0.89790   0.00000  Uiso   1.00
H735   H     0.01608   0.75555   0.86997   0.00000  Uiso   1.00
H736   H     0.32475   0.81391   0.88095   0.00000  Uiso   1.00
C737   C     0.51509   0.93341   0.75158   0.00000  Uiso   1.00
C738   C     0.47233   0.83381   0.98826   0.00000  Uiso   1.00
C739   C     0.48744   0.84940   0.93645   0.00000  Uiso   1.00
C740   C     0.51989   0.84664   0.51770   0.00000  Uiso   1.00
C741   C     0.57943   0.87914   0.99688   0.00000  Uiso   1.00
C742   C     0.59079   0.89913   0.94803   0.00000  Uiso   1.00
C743   C     0.54525   0.88533   0.91867   0.00000  Uiso   1.00
C744   C     0.50997   0.82826   0.56746   0.00000  Uiso   1.00
C745   C     0.61379   0.87626   0.57631   0.00000  Uiso   1.00
C746   C     0.44401   0.82938   0.90411   0.00000  Uiso   1.00
C747   C     0.52358   0.98936   0.75240   0.00000  Uiso   1.00
C748   C     0.46592   0.83158   0.84749   0.00000  Uiso   1.00
C749   C     0.47631   0.67730   0.74789   0.00000  Uiso   1.00
C750   C     0.48486   0.73326   0.74856   0.00000  Uiso   1.00
C751   C     0.53407   0.83699   0.65288   0.00000  Uiso   1.00
C752   C     0.62629   0.89274   0.52591   0.00000  Uiso   1.00
C753   C     0.55473   0.84523   0.59762   0.00000  Uiso   1.00
C754   C     0.38178   0.80218   0.92666   0.00000  Uiso   1.00
C755   C     0.36548   0.79281   0.97883   0.00000  Uiso   1.00
C756   C     0.40987   0.80712   0.50905   0.00000  Uiso   1.00
Cu757  Cu    0.44043   0.82772   0.74435   0.00000  Uiso   1.00
Cu758  Cu    0.55957   0.83895   0.75564   0.00000  Uiso   1.00
H759   H     0.64900   0.88970   0.59917   0.00000  Uiso   1.00
H760   H     0.43074   0.98682   0.74364   0.00000  Uiso   1.00
H761   H     0.33689   0.87242   0.78974   0.00000  Uiso   1.00
H762   H     0.66308   0.79420   0.71032   0.00000  Uiso   1.00
H763   H     0.63504   0.92587   0.93247   0.00000  Uiso   1.00
H764   H     0.33854   0.91754   0.51015   0.00000  Uiso   1.00
H765   H     0.46695   0.80145   0.58449   0.00000  Uiso   1.00
H766   H     0.39292   0.79806   0.54901   0.00000  Uiso   1.00
H767   H     0.65119   0.77278   0.99612   0.00000  Uiso   1.00
H768   H     0.55554   0.90459   0.88239   0.00000  Uiso   1.00
H769   H     0.56915   0.67984   0.75667   0.00000  Uiso   1.00
N770   N     0.64908   0.84741   0.76416   0.00000  Uiso   1.00
N771   N     0.35092   0.81926   0.73584   0.00000  Uiso   1.00
O772   O     0.46131   0.90474   0.74633   0.00000  Uiso   1.00
O773   O     0.56191   0.91422   0.75586   0.00000  Uiso   1.00
O774   O     0.42515   0.82627   0.81839   0.00000  Uiso   1.00
O775   O     0.52575   0.83575   0.82793   0.00000  Uiso   1.00
O776   O     0.43809   0.75245   0.74413   0.00000  Uiso   1.00
O777   O     0.53869   0.76193   0.75367   0.00000  Uiso   1.00
O778   O     0.47425   0.83092   0.67207   0.00000  Uiso   1.00
O779   O     0.57485   0.84040   0.68160   0.00000  Uiso   1.00
N780   N     0.33396   0.78244   0.89790   0.00000  Uiso   1.00
H781   H     0.34941   0.75555   0.86997   0.00000  Uiso   1.00
H782   H     0.65808   0.81391   0.88095   0.00000  Uiso   1.00
C783   C     0.84842   0.93341   0.75158   0.00000  Uiso   1.00
C784   C     0.80566   0.83381   0.98826   0.00000  Uiso   1.00
C785   C     0.82077   0.84940   0.93645   0.00000  Uiso   1.00
C786   C     0.85322   0.84664   0.51770   0.00000  Uiso   1.00
C787   C     0.91276   0.87914   0.99688   0.00000  Uiso   1.00
C788   C     0.92412   0.89913   0.94803   0.00000  Uiso   1.00
C789   C     0.87858   0.88533   0.91867   0.00000  Uiso   1.00
C790   C     0.84330   0.82826   0.56746   0.00000  Uiso   1.00
C791   C     0.94713   0.87626   0.57631   0.00000  Uiso   1.00
C792   C     0.77734   0.82938   0.90411   0.00000  Uiso   1.00
C793   C     0.85692   0.98936   0.75240   0.00000  Uiso   1.00
C794   C     0.79925   0.83158   0.84749   0.00000  Uiso   1.00
C795   C     0.80964   0.67730   0.74789   0.00000  Uiso   1.00
C796   C     0.81819   0.73326   0.74856   0.00000  Uiso   1.00
C797   C     0.86741   0.83699   0.65288   0.00000  Uiso   1.00
C798   C     0.95963   0.89274   0.52591   0.00000  Uiso   1.00
C799   C     0.88806   0.84523   0.59762   0.00000  Uiso   1.00
C800   C     0.71512   0.80218   0.92666   0.00000  Uiso   1.00
C801   C     0.69882   0.79281   0.97883   0.00000  Uiso   1.00
C802   C     0.74320   0.80712   0.50905   0.00000  Uiso   1.00
Cu803  Cu    0.77377   0.82772   0.74435   0.00000  Uiso   1.00
Cu804  Cu    0.89290   0.83895   0.75564   0.00000  Uiso   1.00
H805   H     0.98234   0.88970   0.59917   0.00000  Uiso   1.00
H806   H     0.76407   0.98682   0.74364   0.00000  Uiso   1.00
H807   H     0.67022   0.87242   0.78974   0.00000  Uiso   1.00
H808   H     0.99641   0.79420   0.71032   0.00000  Uiso   1.00
H809   H     0.96837   0.92587   0.93247   0.00000  Uiso   1.00
H810   H     0.67187   0.91754   0.51015   0.00000  Uiso   1.00
H811   H     0.80028   0.80145   0.58449   0.00000  Uiso   1.00
H812   H     0.72625   0.79806   0.54901   0.00000  Uiso   1.00
H813   H     0.98452   0.77278   0.99612   0.00000  Uiso   1.00
H814   H     0.88888   0.90459   0.88239   0.00000  Uiso   1.00
H815   H     0.90248   0.67984   0.75667   0.00000  Uiso   1.00
N816   N     0.98241   0.84741   0.76416   0.00000  Uiso   1.00
N817   N     0.68426   0.81926   0.73584   0.00000  Uiso   1.00
O818   O     0.79464   0.90474   0.74633   0.00000  Uiso   1.00
O819   O     0.89524   0.91422   0.75586   0.00000  Uiso   1.00
O820   O     0.75848   0.82627   0.81839   0.00000  Uiso   1.00
O821   O     0.85908   0.83575   0.82793   0.00000  Uiso   1.00
O822   O     0.77142   0.75245   0.74413   0.00000  Uiso   1.00
O823   O     0.87203   0.76193   0.75367   0.00000  Uiso   1.00
O824   O     0.80758   0.83092   0.67207   0.00000  Uiso   1.00
O825   O     0.90819   0.84040   0.68160   0.00000  Uiso   1.00
N826   N     0.66729   0.78244   0.89790   0.00000  Uiso   1.00
H827   H     0.68275   0.75555   0.86997   0.00000  Uiso   1.00
H828   H     0.99141   0.81391   0.88095   0.00000  Uiso   1.00
loop_
_geom_bond_atom_site_label_1
_geom_bond_atom_site_label_2
_geom_bond_distance
_geom_bond_site_symmetry_2
_ccdc_geom_bond_type
C1     C11     1.428   .     S
C1     O37     1.285   .     A
C1     O36     1.291   .     A
C2     C3      1.420   .     A
C2     C418    1.425   .     S
C2     C434    1.413   .     S
C3     C7      1.415   .     A
C3     C10     1.429   .     A
C4     C8      1.403   .     A
C4     C416    1.425   1_554 S
C4     C419    1.418   1_554 S
C5     C6      1.392   .     A
C5     C418    1.418   .     S
C5     C430    1.406   .     S
C6     C7      1.389   .     A
C6     H27     1.084   .     S
C7     H32     1.080   .     S
C8     C17     1.397   .     A
C8     H29     1.077   .     S
C9     C17     1.398   .     A
C9     C16     1.395   .     A
C9     H23     1.083   .     S
C10    C12     1.488   .     S
C10    C18     1.424   .     A
C11    C151    1.328   .     S
C11    H171    1.088   .     S
C12    O39     1.301   .     A
C12    O38     1.302   .     A
C13    C14     1.428   .     S
C13    C287    1.328   1_545 S
C13    H300    1.088   1_545 S
C14    O41     1.291   .     A
C14    O40     1.285   .     A
C15    O42     1.294   .     A
C15    O43     1.301   .     A
C15    C17     1.465   .     S
C16    C419    1.406   1_554 S
C16    H74     1.084   .     S
C18    N44     1.434   .     S
C18    C19     1.388   .     A
C19    C434    1.386   .     S
C19    H123    1.084   1_455 S
C20    H30     1.077   .     S
C20    C416    1.413   1_554 S
C20    C433    1.386   1_554 S
Cu21   N35     2.018   .     S
Cu21   O36     1.956   .     S
Cu21   Cu22    2.685   .     S
Cu21   O40     1.952   .     S
Cu21   O42     1.916   .     S
Cu21   O38     1.939   .     S
Cu22   N34     2.018   .     S
Cu22   O41     1.956   .     S
Cu22   O39     1.916   .     S
Cu22   O37     1.952   .     S
Cu22   O43     1.939   .     S
H24    C151    1.088   .     S
H25    N126    1.029   1_455 S
H26    N81     1.029   .     S
H28    C108    1.084   1_455 S
H31    C65     1.084   .     S
H33    C287    1.088   1_545 S
N34    H71     1.029   .     S
N34    N81     1.284   .     S
N35    N126    1.284   1_455 S
N35    H118    1.029   1_455 S
N44    H45     1.045   .     S
N44    H138    1.045   1_455 S
H46    N90     1.045   .     S
C47    C57     1.428   .     S
C47    O83     1.285   .     A
C47    O82     1.291   .     A
C48    C49     1.420   .     A
C48    C464    1.425   .     S
C48    C480    1.413   .     S
C49    C53     1.415   .     A
C49    C56     1.429   .     A
C50    C54     1.403   .     A
C50    C462    1.425   1_554 S
C50    C465    1.418   1_554 S
C51    C52     1.392   .     A
C51    C464    1.418   .     S
C51    C476    1.406   .     S
C52    C53     1.389   .     A
C52    H73     1.084   .     S
C53    H78     1.080   .     S
C54    C63     1.397   .     A
C54    H75     1.077   .     S
C55    C63     1.398   .     A
C55    C62     1.395   .     A
C55    H69     1.083   .     S
C56    C58     1.488   .     S
C56    C64     1.424   .     A
C57    C197    1.328   .     S
C57    H217    1.088   .     S
C58    O85     1.301   .     A
C58    O84     1.302   .     A
C59    C60     1.428   .     S
C59    C333    1.328   1_545 S
C59    H346    1.088   1_545 S
C60    O87     1.291   .     A
C60    O86     1.285   .     A
C61    O88     1.294   .     A
C61    O89     1.301   .     A
C61    C63     1.465   .     S
C62    C465    1.406   1_554 S
C62    H120    1.084   .     S
C64    N90     1.434   .     S
C64    C65     1.388   .     A
C65    C480    1.386   .     S
C66    H76     1.077   .     S
C66    C462    1.413   1_554 S
C66    C479    1.386   1_554 S
Cu67   N81     2.018   .     S
Cu67   O82     1.956   .     S
Cu67   Cu68    2.685   .     S
Cu67   O86     1.952   .     S
Cu67   O88     1.916   .     S
Cu67   O84     1.939   .     S
Cu68   N80     2.018   .     S
Cu68   O87     1.956   .     S
Cu68   O85     1.916   .     S
Cu68   O83     1.952   .     S
Cu68   O89     1.939   .     S
H70    C197    1.088   .     S
H72    N127    1.029   .     S
H77    C111    1.084   .     S
H79    C333    1.088   1_545 S
N80    H117    1.029   .     S
N80    N127    1.284   .     S
N90    H91     1.045   .     S
H92    N136    1.045   .     S
C93    C103    1.428   .     S
C93    O129    1.285   .     A
C93    O128    1.291   .     A
C94    C95     1.420   .     A
C94    C510    1.425   .     S
C94    C526    1.413   .     S
C95    C99     1.415   .     A
C95    C102    1.429   .     A
C96    C100    1.403   .     A
C96    C508    1.425   1_554 S
C96    C511    1.418   1_554 S
C97    C98     1.392   .     A
C97    C510    1.418   .     S
C97    C522    1.406   .     S
C98    C99     1.389   .     A
C98    H119    1.084   .     S
C99    H124    1.080   .     S
C100   C109    1.397   .     A
C100   H121    1.077   .     S
C101   C109    1.398   .     A
C101   C108    1.395   .     A
C101   H115    1.083   .     S
C102   C104    1.488   .     S
C102   C110    1.424   .     A
C103   C243    1.328   .     S
C103   H263    1.088   .     S
C104   O131    1.301   .     A
C104   O130    1.302   .     A
C105   C106    1.428   .     S
C105   C379    1.328   1_545 S
C105   H392    1.088   1_545 S
C106   O133    1.291   .     A
C106   O132    1.285   .     A
C107   O134    1.294   .     A
C107   O135    1.301   .     A
C107   C109    1.465   .     S
C108   C511    1.406   1_554 S
C108   H28     1.084   1_655 S
C110   N136    1.434   .     S
C110   C111    1.388   .     A
C111   C526    1.386   .     S
C112   H122    1.077   .     S
C112   C508    1.413   1_554 S
C112   C525    1.386   1_554 S
Cu113  N127    2.018   .     S
Cu113  O128    1.956   .     S
Cu113  Cu114   2.685   .     S
Cu113  O132    1.952   .     S
Cu113  O134    1.916   .     S
Cu113  O130    1.939   .     S
Cu114  N126    2.018   .     S
Cu114  O133    1.956   .     S
Cu114  O131    1.916   .     S
Cu114  O129    1.952   .     S
Cu114  O135    1.939   .     S
H116   C243    1.088   .     S
H118   N35     1.029   1_655 S
H123   C19     1.084   1_655 S
H125   C379    1.088   1_545 S
N126   H25     1.029   1_655 S
N126   N35     1.284   1_655 S
N136   H137    1.045   .     S
H138   N44     1.045   1_655 S
C139   C149    1.428   .     S
C139   O175    1.285   .     A
C139   O174    1.291   .     A
C140   C141    1.420   .     A
C140   C556    1.425   .     S
C140   C572    1.413   .     S
C141   C145    1.415   .     A
C141   C148    1.429   .     A
C142   C146    1.403   .     A
C142   C554    1.425   1_554 S
C142   C557    1.418   1_554 S
C143   C144    1.392   .     A
C143   C556    1.418   .     S
C143   C568    1.406   .     S
C144   C145    1.389   .     A
C144   H165    1.084   .     S
C145   H170    1.080   .     S
C146   C155    1.397   .     A
C146   H167    1.077   .     S
C147   C155    1.398   .     A
C147   C154    1.395   .     A
C147   H161    1.083   .     S
C148   C150    1.488   .     S
C148   C156    1.424   .     A
C149   C289    1.328   .     S
C149   H309    1.088   .     S
C150   O177    1.301   .     A
C150   O176    1.302   .     A
C151   C152    1.428   .     S
C152   O179    1.291   .     A
C152   O178    1.285   .     A
C153   O180    1.294   .     A
C153   O181    1.301   .     A
C153   C155    1.465   .     S
C154   C557    1.406   1_554 S
C154   H212    1.084   .     S
C156   N182    1.434   .     S
C156   C157    1.388   .     A
C157   C572    1.386   .     S
C157   H261    1.084   1_455 S
C158   H168    1.077   .     S
C158   C554    1.413   1_554 S
C158   C571    1.386   1_554 S
Cu159  N173    2.018   .     S
Cu159  O174    1.956   .     S
Cu159  Cu160   2.685   .     S
Cu159  O178    1.952   .     S
Cu159  O180    1.916   .     S
Cu159  O176    1.939   .     S
Cu160  N172    2.018   .     S
Cu160  O179    1.956   .     S
Cu160  O177    1.916   .     S
Cu160  O175    1.952   .     S
Cu160  O181    1.939   .     S
H162   C289    1.088   .     S
H163   N264    1.029   1_455 S
H164   N219    1.029   .     S
H166   C246    1.084   1_455 S
H169   C203    1.084   .     S
N172   H209    1.029   .     S
N172   N219    1.284   .     S
N173   N264    1.284   1_455 S
N173   H256    1.029   1_455 S
N182   H183    1.045   .     S
N182   H276    1.045   1_455 S
H184   N228    1.045   .     S
C185   C195    1.428   .     S
C185   O221    1.285   .     A
C185   O220    1.291   .     A
C186   C187    1.420   .     A
C186   C602    1.425   .     S
C186   C618    1.413   .     S
C187   C191    1.415   .     A
C187   C194    1.429   .     A
C188   C192    1.403   .     A
C188   C600    1.425   1_554 S
C188   C603    1.418   1_554 S
C189   C190    1.392   .     A
C189   C602    1.418   .     S
C189   C614    1.406   .     S
C190   C191    1.389   .     A
C190   H211    1.084   .     S
C191   H216    1.080   .     S
C192   C201    1.397   .     A
C192   H213    1.077   .     S
C193   C201    1.398   .     A
C193   C200    1.395   .     A
C193   H207    1.083   .     S
C194   C196    1.488   .     S
C194   C202    1.424   .     A
C195   C335    1.328   .     S
C195   H355    1.088   .     S
C196   O223    1.301   .     A
C196   O222    1.302   .     A
C197   C198    1.428   .     S
C198   O225    1.291   .     A
C198   O224    1.285   .     A
C199   O226    1.294   .     A
C199   O227    1.301   .     A
C199   C201    1.465   .     S
C200   C603    1.406   1_554 S
C200   H258    1.084   .     S
C202   N228    1.434   .     S
C202   C203    1.388   .     A
C203   C618    1.386   .     S
C204   H214    1.077   .     S
C204   C600    1.413   1_554 S
C204   C617    1.386   1_554 S
Cu205  N219    2.018   .     S
Cu205  O220    1.956   .     S
Cu205  Cu206   2.685   .     S
Cu205  O224    1.952   .     S
Cu205  O226    1.916   .     S
Cu205  O222    1.939   .     S
Cu206  N218    2.018   .     S
Cu206  O225    1.956   .     S
Cu206  O223    1.916   .     S
Cu206  O221    1.952   .     S
Cu206  O227    1.939   .     S
H208   C335    1.088   .     S
H210   N265    1.029   .     S
H215   C249    1.084   .     S
N218   H255    1.029   .     S
N218   N265    1.284   .     S
N228   H229    1.045   .     S
H230   N274    1.045   .     S
C231   C241    1.428   .     S
C231   O267    1.285   .     A
C231   O266    1.291   .     A
C232   C233    1.420   .     A
C232   C648    1.425   .     S
C232   C664    1.413   .     S
C233   C237    1.415   .     A
C233   C240    1.429   .     A
C234   C238    1.403   .     A
C234   C646    1.425   1_554 S
C234   C649    1.418   1_554 S
C235   C236    1.392   .     A
C235   C648    1.418   .     S
C235   C660    1.406   .     S
C236   C237    1.389   .     A
C236   H257    1.084   .     S
C237   H262    1.080   .     S
C238   C247    1.397   .     A
C238   H259    1.077   .     S
C239   C247    1.398   .     A
C239   C246    1.395   .     A
C239   H253    1.083   .     S
C240   C242    1.488   .     S
C240   C248    1.424   .     A
C241   C381    1.328   .     S
C241   H401    1.088   .     S
C242   O269    1.301   .     A
C242   O268    1.302   .     A
C243   C244    1.428   .     S
C244   O271    1.291   .     A
C244   O270    1.285   .     A
C245   O272    1.294   .     A
C245   O273    1.301   .     A
C245   C247    1.465   .     S
C246   C649    1.406   1_554 S
C246   H166    1.084   1_655 S
C248   N274    1.434   .     S
C248   C249    1.388   .     A
C249   C664    1.386   .     S
C250   H260    1.077   .     S
C250   C646    1.413   1_554 S
C250   C663    1.386   1_554 S
Cu251  N265    2.018   .     S
Cu251  O266    1.956   .     S
Cu251  Cu252   2.685   .     S
Cu251  O270    1.952   .     S
Cu251  O272    1.916   .     S
Cu251  O268    1.939   .     S
Cu252  N264    2.018   .     S
Cu252  O271    1.956   .     S
Cu252  O269    1.916   .     S
Cu252  O267    1.952   .     S
Cu252  O273    1.939   .     S
H254   C381    1.088   .     S
H256   N173    1.029   1_655 S
H261   C157    1.084   1_655 S
N264   H163    1.029   1_655 S
N264   N173    1.284   1_655 S
N274   H275    1.045   .     S
H276   N182    1.045   1_655 S
C277   C287    1.428   .     S
C277   O313    1.285   .     A
C277   O312    1.291   .     A
C278   C279    1.420   .     A
C278   C694    1.425   .     S
C278   C710    1.413   .     S
C279   C283    1.415   .     A
C279   C286    1.429   .     A
C280   C284    1.403   .     A
C280   C692    1.425   1_554 S
C280   C695    1.418   1_554 S
C281   C282    1.392   .     A
C281   C694    1.418   .     S
C281   C706    1.406   .     S
C282   C283    1.389   .     A
C282   H303    1.084   .     S
C283   H308    1.080   .     S
C284   C293    1.397   .     A
C284   H305    1.077   .     S
C285   C293    1.398   .     A
C285   C292    1.395   .     A
C285   H299    1.083   .     S
C286   C288    1.488   .     S
C286   C294    1.424   .     A
C287   C13     1.328   1_565 S
C287   H33     1.088   1_565 S
C288   O315    1.301   .     A
C288   O314    1.302   .     A
C289   C290    1.428   .     S
C290   O317    1.291   .     A
C290   O316    1.285   .     A
C291   O318    1.294   .     A
C291   O319    1.301   .     A
C291   C293    1.465   .     S
C292   C695    1.406   1_554 S
C292   H350    1.084   .     S
C294   N320    1.434   .     S
C294   C295    1.388   .     A
C295   C710    1.386   .     S
C295   H399    1.084   1_455 S
C296   H306    1.077   .     S
C296   C692    1.413   1_554 S
C296   C709    1.386   1_554 S
Cu297  N311    2.018   .     S
Cu297  O312    1.956   .     S
Cu297  Cu298   2.685   .     S
Cu297  O316    1.952   .     S
Cu297  O318    1.916   .     S
Cu297  O314    1.939   .     S
Cu298  N310    2.018   .     S
Cu298  O317    1.956   .     S
Cu298  O315    1.916   .     S
Cu298  O313    1.952   .     S
Cu298  O319    1.939   .     S
H300   C13     1.088   1_565 S
H301   N402    1.029   1_455 S
H302   N357    1.029   .     S
H304   C384    1.084   1_455 S
H307   C341    1.084   .     S
N310   H347    1.029   .     S
N310   N357    1.284   .     S
N311   N402    1.284   1_455 S
N311   H394    1.029   1_455 S
N320   H321    1.045   .     S
N320   H414    1.045   1_455 S
H322   N366    1.045   .     S
C323   C333    1.428   .     S
C323   O359    1.285   .     A
C323   O358    1.291   .     A
C324   C325    1.420   .     A
C324   C740    1.425   .     S
C324   C756    1.413   .     S
C325   C329    1.415   .     A
C325   C332    1.429   .     A
C326   C330    1.403   .     A
C326   C738    1.425   1_554 S
C326   C741    1.418   1_554 S
C327   C328    1.392   .     A
C327   C740    1.418   .     S
C327   C752    1.406   .     S
C328   C329    1.389   .     A
C328   H349    1.084   .     S
C329   H354    1.080   .     S
C330   C339    1.397   .     A
C330   H351    1.077   .     S
C331   C339    1.398   .     A
C331   C338    1.395   .     A
C331   H345    1.083   .     S
C332   C334    1.488   .     S
C332   C340    1.424   .     A
C333   C59     1.328   1_565 S
C333   H79     1.088   1_565 S
C334   O361    1.301   .     A
C334   O360    1.302   .     A
C335   C336    1.428   .     S
C336   O363    1.291   .     A
C336   O362    1.285   .     A
C337   O364    1.294   .     A
C337   O365    1.301   .     A
C337   C339    1.465   .     S
C338   C741    1.406   1_554 S
C338   H396    1.084   .     S
C340   N366    1.434   .     S
C340   C341    1.388   .     A
C341   C756    1.386   .     S
C342   H352    1.077   .     S
C342   C738    1.413   1_554 S
C342   C755    1.386   1_554 S
Cu343  N357    2.018   .     S
Cu343  O358    1.956   .     S
Cu343  Cu344   2.685   .     S
Cu343  O362    1.952   .     S
Cu343  O364    1.916   .     S
Cu343  O360    1.939   .     S
Cu344  N356    2.018   .     S
Cu344  O363    1.956   .     S
Cu344  O361    1.916   .     S
Cu344  O359    1.952   .     S
Cu344  O365    1.939   .     S
H346   C59     1.088   1_565 S
H348   N403    1.029   .     S
H353   C387    1.084   .     S
N356   H393    1.029   .     S
N356   N403    1.284   .     S
N366   H367    1.045   .     S
H368   N412    1.045   .     S
C369   C379    1.428   .     S
C369   O405    1.285   .     A
C369   O404    1.291   .     A
C370   C371    1.420   .     A
C370   C786    1.425   .     S
C370   C802    1.413   .     S
C371   C375    1.415   .     A
C371   C378    1.429   .     A
C372   C376    1.403   .     A
C372   C784    1.425   1_554 S
C372   C787    1.418   1_554 S
C373   C374    1.392   .     A
C373   C786    1.418   .     S
C373   C798    1.406   .     S
C374   C375    1.389   .     A
C374   H395    1.084   .     S
C375   H400    1.080   .     S
C376   C385    1.397   .     A
C376   H397    1.077   .     S
C377   C385    1.398   .     A
C377   C384    1.395   .     A
C377   H391    1.083   .     S
C378   C380    1.488   .     S
C378   C386    1.424   .     A
C379   C105    1.328   1_565 S
C379   H125    1.088   1_565 S
C380   O407    1.301   .     A
C380   O406    1.302   .     A
C381   C382    1.428   .     S
C382   O409    1.291   .     A
C382   O408    1.285   .     A
C383   O410    1.294   .     A
C383   O411    1.301   .     A
C383   C385    1.465   .     S
C384   C787    1.406   1_554 S
C384   H304    1.084   1_655 S
C386   N412    1.434   .     S
C386   C387    1.388   .     A
C387   C802    1.386   .     S
C388   H398    1.077   .     S
C388   C784    1.413   1_554 S
C388   C801    1.386   1_554 S
Cu389  N403    2.018   .     S
Cu389  O404    1.956   .     S
Cu389  Cu390   2.685   .     S
Cu389  O408    1.952   .     S
Cu389  O410    1.916   .     S
Cu389  O406    1.939   .     S
Cu390  N402    2.018   .     S
Cu390  O409    1.956   .     S
Cu390  O407    1.916   .     S
Cu390  O405    1.952   .     S
Cu390  O411    1.939   .     S
H392   C105    1.088   1_565 S
H394   N311    1.029   1_655 S
H399   C295    1.084   1_655 S
N402   H301    1.029   1_655 S
N402   N311    1.284   1_655 S
N412   H413    1.045   .     S
H414   N320    1.045   1_655 S
C415   C425    1.428   .     S
C415   O451    1.285   .     A
C415   O450    1.291   .     A
C416   C417    1.420   .     A
C416   C4      1.425   1_556 S
C416   C20     1.413   1_556 S
C417   C421    1.415   .     A
C417   C424    1.429   .     A
C418   C422    1.403   .     A
C419   C420    1.392   .     A
C419   C4      1.418   1_556 S
C419   C16     1.406   1_556 S
C420   C421    1.389   .     A
C420   H441    1.084   .     S
C421   H446    1.080   .     S
C422   C431    1.397   .     A
C422   H443    1.077   .     S
C423   C431    1.398   .     A
C423   C430    1.395   .     A
C423   H437    1.083   .     S
C424   C426    1.488   .     S
C424   C432    1.424   .     A
C425   C565    1.328   .     S
C425   H585    1.088   .     S
C426   O453    1.301   .     A
C426   O452    1.302   .     A
C427   C428    1.428   .     S
C427   C701    1.328   1_545 S
C427   H714    1.088   1_545 S
C428   O455    1.291   .     A
C428   O454    1.285   .     A
C429   O456    1.294   .     A
C429   O457    1.301   .     A
C429   C431    1.465   .     S
C430   H488    1.084   .     S
C432   N458    1.434   .     S
C432   C433    1.388   .     A
C433   C20     1.386   1_556 S
C433   H537    1.084   1_455 S
C434   H444    1.077   .     S
Cu435  N449    2.018   .     S
Cu435  O450    1.956   .     S
Cu435  Cu436   2.685   .     S
Cu435  O454    1.952   .     S
Cu435  O456    1.916   .     S
Cu435  O452    1.939   .     S
Cu436  N448    2.018   .     S
Cu436  O455    1.956   .     S
Cu436  O453    1.916   .     S
Cu436  O451    1.952   .     S
Cu436  O457    1.939   .     S
H438   C565    1.088   .     S
H439   N540    1.029   1_455 S
H440   N495    1.029   .     S
H442   C522    1.084   1_455 S
H445   C479    1.084   .     S
H447   C701    1.088   1_545 S
N448   H485    1.029   .     S
N448   N495    1.284   .     S
N449   N540    1.284   1_455 S
N449   H532    1.029   1_455 S
N458   H459    1.045   .     S
N458   H552    1.045   1_455 S
H460   N504    1.045   .     S
C461   C471    1.428   .     S
C461   O497    1.285   .     A
C461   O496    1.291   .     A
C462   C463    1.420   .     A
C462   C50     1.425   1_556 S
C462   C66     1.413   1_556 S
C463   C467    1.415   .     A
C463   C470    1.429   .     A
C464   C468    1.403   .     A
C465   C466    1.392   .     A
C465   C50     1.418   1_556 S
C465   C62     1.406   1_556 S
C466   C467    1.389   .     A
C466   H487    1.084   .     S
C467   H492    1.080   .     S
C468   C477    1.397   .     A
C468   H489    1.077   .     S
C469   C477    1.398   .     A
C469   C476    1.395   .     A
C469   H483    1.083   .     S
C470   C472    1.488   .     S
C470   C478    1.424   .     A
C471   C611    1.328   .     S
C471   H631    1.088   .     S
C472   O499    1.301   .     A
C472   O498    1.302   .     A
C473   C474    1.428   .     S
C473   C747    1.328   1_545 S
C473   H760    1.088   1_545 S
C474   O501    1.291   .     A
C474   O500    1.285   .     A
C475   O502    1.294   .     A
C475   O503    1.301   .     A
C475   C477    1.465   .     S
C476   H534    1.084   .     S
C478   N504    1.434   .     S
C478   C479    1.388   .     A
C479   C66     1.386   1_556 S
C480   H490    1.077   .     S
Cu481  N495    2.018   .     S
Cu481  O496    1.956   .     S
Cu481  Cu482   2.685   .     S
Cu481  O500    1.952   .     S
Cu481  O502    1.916   .     S
Cu481  O498    1.939   .     S
Cu482  N494    2.018   .     S
Cu482  O501    1.956   .     S
Cu482  O499    1.916   .     S
Cu482  O497    1.952   .     S
Cu482  O503    1.939   .     S
H484   C611    1.088   .     S
H486   N541    1.029   .     S
H491   C525    1.084   .     S
H493   C747    1.088   1_545 S
N494   H531    1.029   .     S
N494   N541    1.284   .     S
N504   H505    1.045   .     S
H506   N550    1.045   .     S
C507   C517    1.428   .     S
C507   O543    1.285   .     A
C507   O542    1.291   .     A
C508   C509    1.420   .     A
C508   C96     1.425   1_556 S
C508   C112    1.413   1_556 S
C509   C513    1.415   .     A
C509   C516    1.429   .     A
C510   C514    1.403   .     A
C511   C512    1.392   .     A
C511   C96     1.418   1_556 S
C511   C108    1.406   1_556 S
C512   C513    1.389   .     A
C512   H533    1.084   .     S
C513   H538    1.080   .     S
C514   C523    1.397   .     A
C514   H535    1.077   .     S
C515   C523    1.398   .     A
C515   C522    1.395   .     A
C515   H529    1.083   .     S
C516   C518    1.488   .     S
C516   C524    1.424   .     A
C517   C657    1.328   .     S
C517   H677    1.088   .     S
C518   O545    1.301   .     A
C518   O544    1.302   .     A
C519   C520    1.428   .     S
C519   C793    1.328   1_545 S
C519   H806    1.088   1_545 S
C520   O547    1.291   .     A
C520   O546    1.285   .     A
C521   O548    1.294   .     A
C521   O549    1.301   .     A
C521   C523    1.465   .     S
C522   H442    1.084   1_655 S
C524   N550    1.434   .     S
C524   C525    1.388   .     A
C525   C112    1.386   1_556 S
C526   H536    1.077   .     S
Cu527  N541    2.018   .     S
Cu527  O542    1.956   .     S
Cu527  Cu528   2.685   .     S
Cu527  O546    1.952   .     S
Cu527  O548    1.916   .     S
Cu527  O544    1.939   .     S
Cu528  N540    2.018   .     S
Cu528  O547    1.956   .     S
Cu528  O545    1.916   .     S
Cu528  O543    1.952   .     S
Cu528  O549    1.939   .     S
H530   C657    1.088   .     S
H532   N449    1.029   1_655 S
H537   C433    1.084   1_655 S
H539   C793    1.088   1_545 S
N540   H439    1.029   1_655 S
N540   N449    1.284   1_655 S
N550   H551    1.045   .     S
H552   N458    1.045   1_655 S
C553   C563    1.428   .     S
C553   O589    1.285   .     A
C553   O588    1.291   .     A
C554   C555    1.420   .     A
C554   C142    1.425   1_556 S
C554   C158    1.413   1_556 S
C555   C559    1.415   .     A
C555   C562    1.429   .     A
C556   C560    1.403   .     A
C557   C558    1.392   .     A
C557   C142    1.418   1_556 S
C557   C154    1.406   1_556 S
C558   C559    1.389   .     A
C558   H579    1.084   .     S
C559   H584    1.080   .     S
C560   C569    1.397   .     A
C560   H581    1.077   .     S
C561   C569    1.398   .     A
C561   C568    1.395   .     A
C561   H575    1.083   .     S
C562   C564    1.488   .     S
C562   C570    1.424   .     A
C563   C703    1.328   .     S
C563   H723    1.088   .     S
C564   O591    1.301   .     A
C564   O590    1.302   .     A
C565   C566    1.428   .     S
C566   O593    1.291   .     A
C566   O592    1.285   .     A
C567   O594    1.294   .     A
C567   O595    1.301   .     A
C567   C569    1.465   .     S
C568   H626    1.084   .     S
C570   N596    1.434   .     S
C570   C571    1.388   .     A
C571   C158    1.386   1_556 S
C571   H675    1.084   1_455 S
C572   H582    1.077   .     S
Cu573  N587    2.018   .     S
Cu573  O588    1.956   .     S
Cu573  Cu574   2.685   .     S
Cu573  O592    1.952   .     S
Cu573  O594    1.916   .     S
Cu573  O590    1.939   .     S
Cu574  N586    2.018   .     S
Cu574  O593    1.956   .     S
Cu574  O591    1.916   .     S
Cu574  O589    1.952   .     S
Cu574  O595    1.939   .     S
H576   C703    1.088   .     S
H577   N678    1.029   1_455 S
H578   N633    1.029   .     S
H580   C660    1.084   1_455 S
H583   C617    1.084   .     S
N586   H623    1.029   .     S
N586   N633    1.284   .     S
N587   N678    1.284   1_455 S
N587   H670    1.029   1_455 S
N596   H597    1.045   .     S
N596   H690    1.045   1_455 S
H598   N642    1.045   .     S
C599   C609    1.428   .     S
C599   O635    1.285   .     A
C599   O634    1.291   .     A
C600   C601    1.420   .     A
C600   C188    1.425   1_556 S
C600   C204    1.413   1_556 S
C601   C605    1.415   .     A
C601   C608    1.429   .     A
C602   C606    1.403   .     A
C603   C604    1.392   .     A
C603   C188    1.418   1_556 S
C603   C200    1.406   1_556 S
C604   C605    1.389   .     A
C604   H625    1.084   .     S
C605   H630    1.080   .     S
C606   C615    1.397   .     A
C606   H627    1.077   .     S
C607   C615    1.398   .     A
C607   C614    1.395   .     A
C607   H621    1.083   .     S
C608   C610    1.488   .     S
C608   C616    1.424   .     A
C609   C749    1.328   .     S
C609   H769    1.088   .     S
C610   O637    1.301   .     A
C610   O636    1.302   .     A
C611   C612    1.428   .     S
C612   O639    1.291   .     A
C612   O638    1.285   .     A
C613   O640    1.294   .     A
C613   O641    1.301   .     A
C613   C615    1.465   .     S
C614   H672    1.084   .     S
C616   N642    1.434   .     S
C616   C617    1.388   .     A
C617   C204    1.386   1_556 S
C618   H628    1.077   .     S
Cu619  N633    2.018   .     S
Cu619  O634    1.956   .     S
Cu619  Cu620   2.685   .     S
Cu619  O638    1.952   .     S
Cu619  O640    1.916   .     S
Cu619  O636    1.939   .     S
Cu620  N632    2.018   .     S
Cu620  O639    1.956   .     S
Cu620  O637    1.916   .     S
Cu620  O635    1.952   .     S
Cu620  O641    1.939   .     S
H622   C749    1.088   .     S
H624   N679    1.029   .     S
H629   C663    1.084   .     S
N632   H669    1.029   .     S
N632   N679    1.284   .     S
N642   H643    1.045   .     S
H644   N688    1.045   .     S
C645   C655    1.428   .     S
C645   O681    1.285   .     A
C645   O680    1.291   .     A
C646   C647    1.420   .     A
C646   C234    1.425   1_556 S
C646   C250    1.413   1_556 S
C647   C651    1.415   .     A
C647   C654    1.429   .     A
C648   C652    1.403   .     A
C649   C650    1.392   .     A
C649   C234    1.418   1_556 S
C649   C246    1.406   1_556 S
C650   C651    1.389   .     A
C650   H671    1.084   .     S
C651   H676    1.080   .     S
C652   C661    1.397   .     A
C652   H673    1.077   .     S
C653   C661    1.398   .     A
C653   C660    1.395   .     A
C653   H667    1.083   .     S
C654   C656    1.488   .     S
C654   C662    1.424   .     A
C655   C795    1.328   .     S
C655   H815    1.088   .     S
C656   O683    1.301   .     A
C656   O682    1.302   .     A
C657   C658    1.428   .     S
C658   O685    1.291   .     A
C658   O684    1.285   .     A
C659   O686    1.294   .     A
C659   O687    1.301   .     A
C659   C661    1.465   .     S
C660   H580    1.084   1_655 S
C662   N688    1.434   .     S
C662   C663    1.388   .     A
C663   C250    1.386   1_556 S
C664   H674    1.077   .     S
Cu665  N679    2.018   .     S
Cu665  O680    1.956   .     S
Cu665  Cu666   2.685   .     S
Cu665  O684    1.952   .     S
Cu665  O686    1.916   .     S
Cu665  O682    1.939   .     S
Cu666  N678    2.018   .     S
Cu666  O685    1.956   .     S
Cu666  O683    1.916   .     S
Cu666  O681    1.952   .     S
Cu666  O687    1.939   .     S
H668   C795    1.088   .     S
H670   N587    1.029   1_655 S
H675   C571    1.084   1_655 S
N678   H577    1.029   1_655 S
N678   N587    1.284   1_655 S
N688   H689    1.045   .     S
H690   N596    1.045   1_655 S
C691   C701    1.428   .     S
C691   O727    1.285   .     A
C691   O726    1.291   .     A
C692   C693    1.420   .     A
C692   C280    1.425   1_556 S
C692   C296    1.413   1_556 S
C693   C697    1.415   .     A
C693   C700    1.429   .     A
C694   C698    1.403   .     A
C695   C696    1.392   .     A
C695   C280    1.418   1_556 S
C695   C292    1.406   1_556 S
C696   C697    1.389   .     A
C696   H717    1.084   .     S
C697   H722    1.080   .     S
C698   C707    1.397   .     A
C698   H719    1.077   .     S
C699   C707    1.398   .     A
C699   C706    1.395   .     A
C699   H713    1.083   .     S
C700   C702    1.488   .     S
C700   C708    1.424   .     A
C701   C427    1.328   1_565 S
C701   H447    1.088   1_565 S
C702   O729    1.301   .     A
C702   O728    1.302   .     A
C703   C704    1.428   .     S
C704   O731    1.291   .     A
C704   O730    1.285   .     A
C705   O732    1.294   .     A
C705   O733    1.301   .     A
C705   C707    1.465   .     S
C706   H764    1.084   .     S
C708   N734    1.434   .     S
C708   C709    1.388   .     A
C709   C296    1.386   1_556 S
C709   H813    1.084   1_455 S
C710   H720    1.077   .     S
Cu711  N725    2.018   .     S
Cu711  O726    1.956   .     S
Cu711  Cu712   2.685   .     S
Cu711  O730    1.952   .     S
Cu711  O732    1.916   .     S
Cu711  O728    1.939   .     S
Cu712  N724    2.018   .     S
Cu712  O731    1.956   .     S
Cu712  O729    1.916   .     S
Cu712  O727    1.952   .     S
Cu712  O733    1.939   .     S
H714   C427    1.088   1_565 S
H715   N816    1.029   1_455 S
H716   N771    1.029   .     S
H718   C798    1.084   1_455 S
H721   C755    1.084   .     S
N724   H761    1.029   .     S
N724   N771    1.284   .     S
N725   N816    1.284   1_455 S
N725   H808    1.029   1_455 S
N734   H735    1.045   .     S
N734   H828    1.045   1_455 S
H736   N780    1.045   .     S
C737   C747    1.428   .     S
C737   O773    1.285   .     A
C737   O772    1.291   .     A
C738   C739    1.420   .     A
C738   C326    1.425   1_556 S
C738   C342    1.413   1_556 S
C739   C743    1.415   .     A
C739   C746    1.429   .     A
C740   C744    1.403   .     A
C741   C742    1.392   .     A
C741   C326    1.418   1_556 S
C741   C338    1.406   1_556 S
C742   C743    1.389   .     A
C742   H763    1.084   .     S
C743   H768    1.080   .     S
C744   C753    1.397   .     A
C744   H765    1.077   .     S
C745   C753    1.398   .     A
C745   C752    1.395   .     A
C745   H759    1.083   .     S
C746   C748    1.488   .     S
C746   C754    1.424   .     A
C747   C473    1.328   1_565 S
C747   H493    1.088   1_565 S
C748   O775    1.301   .     A
C748   O774    1.302   .     A
C749   C750    1.428   .     S
C750   O777    1.291   .     A
C750   O776    1.285   .     A
C751   O778    1.294   .     A
C751   O779    1.301   .     A
C751   C753    1.465   .     S
C752   H810    1.084   .     S
C754   N780    1.434   .     S
C754   C755    1.388   .     A
C755   C342    1.386   1_556 S
C756   H766    1.077   .     S
Cu757  N771    2.018   .     S
Cu757  O772    1.956   .     S
Cu757  Cu758   2.685   .     S
Cu757  O776    1.952   .     S
Cu757  O778    1.916   .     S
Cu757  O774    1.939   .     S
Cu758  N770    2.018   .     S
Cu758  O777    1.956   .     S
Cu758  O775    1.916   .     S
Cu758  O773    1.952   .     S
Cu758  O779    1.939   .     S
H760   C473    1.088   1_565 S
H762   N817    1.029   .     S
H767   C801    1.084   .     S
N770   H807    1.029   .     S
N770   N817    1.284   .     S
N780   H781    1.045   .     S
H782   N826    1.045   .     S
C783   C793    1.428   .     S
C783   O819    1.285   .     A
C783   O818    1.291   .     A
C784   C785    1.420   .     A
C784   C372    1.425   1_556 S
C784   C388    1.413   1_556 S
C785   C789    1.415   .     A
C785   C792    1.429   .     A
C786   C790    1.403   .     A
C787   C788    1.392   .     A
C787   C372    1.418   1_556 S
C787   C384    1.406   1_556 S
C788   C789    1.389   .     A
C788   H809    1.084   .     S
C789   H814    1.080   .     S
C790   C799    1.397   .     A
C790   H811    1.077   .     S
C791   C799    1.398   .     A
C791   C798    1.395   .     A
C791   H805    1.083   .     S
C792   C794    1.488   .     S
C792   C800    1.424   .     A
C793   C519    1.328   1_565 S
C793   H539    1.088   1_565 S
C794   O821    1.301   .     A
C794   O820    1.302   .     A
C795   C796    1.428   .     S
C796   O823    1.291   .     A
C796   O822    1.285   .     A
C797   O824    1.294   .     A
C797   O825    1.301   .     A
C797   C799    1.465   .     S
C798   H718    1.084   1_655 S
C800   N826    1.434   .     S
C800   C801    1.388   .     A
C801   C388    1.386   1_556 S
C802   H812    1.077   .     S
Cu803  N817    2.018   .     S
Cu803  O818    1.956   .     S
Cu803  Cu804   2.685   .     S
Cu803  O822    1.952   .     S
Cu803  O824    1.916   .     S
Cu803  O820    1.939   .     S
Cu804  N816    2.018   .     S
Cu804  O823    1.956   .     S
Cu804  O821    1.916   .     S
Cu804  O819    1.952   .     S
Cu804  O825    1.939   .     S
H806   C519    1.088   1_565 S
H808   N725    1.029   1_655 S
H813   C709    1.084   1_655 S
N816   H715    1.029   1_655 S
N816   N725    1.284   1_655 S
N826   H827    1.045   .     S
H828   N734    1.045   1_655 S
