data_str_m2_o1_o18_pcu_sym.197
_audit_creation_date              2020-01-03
_audit_creation_method            'Materials Studio'
_symmetry_space_group_name_H-M    'P1'
_symmetry_Int_Tables_number       1
_symmetry_cell_setting            triclinic
loop_
_symmetry_equiv_pos_as_xyz
  x,y,z
_cell_length_a                    28.5441
_cell_length_b                    32.4290
_cell_length_c                    30.7635
_cell_angle_alpha                 89.7034
_cell_angle_beta                  73.6278
_cell_angle_gamma                 89.5623
loop_
_atom_site_label
_atom_site_type_symbol
_atom_site_fract_x
_atom_site_fract_y
_atom_site_fract_z
_atom_site_U_iso_or_equiv
_atom_site_adp_type
_atom_site_occupancy
C1     C     0.33305   0.08744   0.25159   0.00000  Uiso   1.00
C2     C     0.00028   0.24589   0.24840   0.00000  Uiso   1.00
C3     C     0.18121   0.22196   0.03830   0.00000  Uiso   1.00
C4     C     0.13343   0.18026   0.44775   0.00000  Uiso   1.00
C5     C     0.22960   0.22977   0.01426   0.00000  Uiso   1.00
C6     C     0.08571   0.17055   0.47148   0.00000  Uiso   1.00
C7     C     0.30923   0.02297   0.22436   0.00000  Uiso   1.00
C8     C     0.02408   0.31032   0.27564   0.00000  Uiso   1.00
C9     C     0.30929   0.31352   0.22141   0.00000  Uiso   1.00
C10    C     0.02410   0.01976   0.27853   0.00000  Uiso   1.00
C11    C     0.00015   0.29050   0.24781   0.00000  Uiso   1.00
C12    C     0.33319   0.04280   0.25217   0.00000  Uiso   1.00
C13    C     0.18175   0.14562   0.28244   0.00000  Uiso   1.00
C14    C     0.15163   0.18753   0.21739   0.00000  Uiso   1.00
C15    C     0.13211   0.14586   0.28260   0.00000  Uiso   1.00
C16    C     0.20125   0.18738   0.21732   0.00000  Uiso   1.00
C17    C     0.30569   0.16833   0.33630   0.00000  Uiso   1.00
C18    C     0.02755   0.16649   0.16363   0.00000  Uiso   1.00
C19    C     0.28954   0.17880   0.38469   0.00000  Uiso   1.00
C20    C     0.04234   0.16748   0.11385   0.00000  Uiso   1.00
C21    C     0.29969   0.21940   0.44743   0.00000  Uiso   1.00
C22    C     0.02326   0.15740   0.04275   0.00000  Uiso   1.00
C23    C     0.31903   0.20223   0.40445   0.00000  Uiso   1.00
C24    C     0.00902   0.15739   0.08993   0.00000  Uiso   1.00
C25    C     0.24083   0.17210   0.40856   0.00000  Uiso   1.00
C26    C     0.08986   0.17878   0.09016   0.00000  Uiso   1.00
C27    C     0.21921   0.19211   0.44974   0.00000  Uiso   1.00
C28    C     0.10378   0.18353   0.04281   0.00000  Uiso   1.00
C29    C     0.24979   0.21375   0.47081   0.00000  Uiso   1.00
C30    C     0.07077   0.17025   0.01879   0.00000  Uiso   1.00
C31    C     0.16828   0.18934   0.47142   0.00000  Uiso   1.00
C32    C     0.15103   0.19792   0.01850   0.00000  Uiso   1.00
Cu33   Cu    0.04689   0.16667   0.25000   0.00000  Uiso   1.00
Cu34   Cu    0.28645   0.16666   0.25000   0.00000  Uiso   1.00
H35    H     0.25132   0.24841   0.03022   0.00000  Uiso   1.00
H36    H     0.06028   0.16357   0.45231   0.00000  Uiso   1.00
H37    H     0.11623   0.18231   0.10898   0.00000  Uiso   1.00
H38    H     0.22002   0.15100   0.39438   0.00000  Uiso   1.00
H39    H     0.30563   0.14795   0.10787   0.00000  Uiso   1.00
H40    H     0.02327   0.20847   0.38587   0.00000  Uiso   1.00
H41    H     0.29143   0.04105   0.20374   0.00000  Uiso   1.00
H42    H     0.04188   0.29224   0.29626   0.00000  Uiso   1.00
H43    H     0.19262   0.12860   0.30837   0.00000  Uiso   1.00
H44    H     0.14081   0.20441   0.19134   0.00000  Uiso   1.00
H45    H     0.10557   0.12938   0.30885   0.00000  Uiso   1.00
H46    H     0.22780   0.20385   0.19106   0.00000  Uiso   1.00
N47    N     0.11736   0.16668   0.24999   0.00000  Uiso   1.00
N48    N     0.21597   0.16666   0.25001   0.00000  Uiso   1.00
O49    O     0.03958   0.10655   0.25000   0.00000  Uiso   1.00
O50    O     0.29375   0.22678   0.25000   0.00000  Uiso   1.00
O51    O     0.29372   0.10654   0.25000   0.00000  Uiso   1.00
O52    O     0.03961   0.22679   0.24999   0.00000  Uiso   1.00
O53    O     0.01852   0.16668   0.31491   0.00000  Uiso   1.00
O54    O     0.31481   0.16666   0.18508   0.00000  Uiso   1.00
O55    O     0.27267   0.16667   0.31492   0.00000  Uiso   1.00
O56    O     0.06067   0.16667   0.18508   0.00000  Uiso   1.00
Cl57   Cl    0.00550   0.24940   0.46957   0.00000  Uiso   1.00
Cl58   Cl    0.31399   0.13949   0.01550   0.00000  Uiso   1.00
Cl59   Cl    0.15873   0.25105   0.08842   0.00000  Uiso   1.00
Cl60   Cl    0.14335   0.18993   0.38928   0.00000  Uiso   1.00
C61    C     0.28538   0.29439   0.18823   0.00000  Uiso   1.00
C62    C     0.22983   0.29482   0.20717   0.00000  Uiso   1.00
H63    H     0.21317   0.28082   0.18225   0.00000  Uiso   1.00
H64    H     0.21596   0.32695   0.21377   0.00000  Uiso   1.00
H65    H     0.21851   0.27689   0.23925   0.00000  Uiso   1.00
H66    H     0.29570   0.31215   0.15594   0.00000  Uiso   1.00
H67    H     0.29841   0.26246   0.17898   0.00000  Uiso   1.00
C68    C     0.04828   0.03886   0.31151   0.00000  Uiso   1.00
C69    C     0.10379   0.03836   0.29226   0.00000  Uiso   1.00
H70    H     0.12069   0.05235   0.31701   0.00000  Uiso   1.00
H71    H     0.11494   0.05628   0.26016   0.00000  Uiso   1.00
H72    H     0.11759   0.00622   0.28561   0.00000  Uiso   1.00
H73    H     0.03533   0.07081   0.32080   0.00000  Uiso   1.00
H74    H     0.03814   0.02110   0.34380   0.00000  Uiso   1.00
C75    C     0.66639   0.08744   0.25159   0.00000  Uiso   1.00
C76    C     0.33361   0.24589   0.24840   0.00000  Uiso   1.00
C77    C     0.51454   0.22196   0.03830   0.00000  Uiso   1.00
C78    C     0.46677   0.18026   0.44775   0.00000  Uiso   1.00
C79    C     0.56294   0.22977   0.01426   0.00000  Uiso   1.00
C80    C     0.41905   0.17055   0.47148   0.00000  Uiso   1.00
C81    C     0.64257   0.02297   0.22436   0.00000  Uiso   1.00
C82    C     0.35741   0.31032   0.27564   0.00000  Uiso   1.00
C83    C     0.64262   0.31352   0.22141   0.00000  Uiso   1.00
C84    C     0.35743   0.01976   0.27853   0.00000  Uiso   1.00
C85    C     0.33348   0.29050   0.24781   0.00000  Uiso   1.00
C86    C     0.66652   0.04280   0.25217   0.00000  Uiso   1.00
C87    C     0.51509   0.14562   0.28244   0.00000  Uiso   1.00
C88    C     0.48497   0.18753   0.21739   0.00000  Uiso   1.00
C89    C     0.46544   0.14586   0.28260   0.00000  Uiso   1.00
C90    C     0.53459   0.18738   0.21732   0.00000  Uiso   1.00
C91    C     0.63902   0.16833   0.33630   0.00000  Uiso   1.00
C92    C     0.36088   0.16649   0.16363   0.00000  Uiso   1.00
C93    C     0.62288   0.17880   0.38469   0.00000  Uiso   1.00
C94    C     0.37567   0.16748   0.11385   0.00000  Uiso   1.00
C95    C     0.63303   0.21940   0.44743   0.00000  Uiso   1.00
C96    C     0.35659   0.15740   0.04275   0.00000  Uiso   1.00
C97    C     0.65237   0.20223   0.40445   0.00000  Uiso   1.00
C98    C     0.34236   0.15739   0.08993   0.00000  Uiso   1.00
C99    C     0.57416   0.17210   0.40856   0.00000  Uiso   1.00
C100   C     0.42319   0.17878   0.09016   0.00000  Uiso   1.00
C101   C     0.55255   0.19211   0.44974   0.00000  Uiso   1.00
C102   C     0.43711   0.18353   0.04281   0.00000  Uiso   1.00
C103   C     0.58312   0.21375   0.47081   0.00000  Uiso   1.00
C104   C     0.40411   0.17025   0.01879   0.00000  Uiso   1.00
C105   C     0.50161   0.18934   0.47142   0.00000  Uiso   1.00
C106   C     0.48437   0.19792   0.01850   0.00000  Uiso   1.00
Cu107  Cu    0.38022   0.16667   0.25000   0.00000  Uiso   1.00
Cu108  Cu    0.61978   0.16666   0.25000   0.00000  Uiso   1.00
H109   H     0.58466   0.24841   0.03022   0.00000  Uiso   1.00
H110   H     0.39362   0.16357   0.45231   0.00000  Uiso   1.00
H111   H     0.44956   0.18231   0.10898   0.00000  Uiso   1.00
H112   H     0.55335   0.15100   0.39438   0.00000  Uiso   1.00
H113   H     0.63897   0.14795   0.10787   0.00000  Uiso   1.00
H114   H     0.35660   0.20847   0.38587   0.00000  Uiso   1.00
H115   H     0.62476   0.04105   0.20374   0.00000  Uiso   1.00
H116   H     0.37521   0.29224   0.29626   0.00000  Uiso   1.00
H117   H     0.52596   0.12860   0.30837   0.00000  Uiso   1.00
H118   H     0.47414   0.20441   0.19134   0.00000  Uiso   1.00
H119   H     0.43891   0.12938   0.30885   0.00000  Uiso   1.00
H120   H     0.56113   0.20385   0.19106   0.00000  Uiso   1.00
N121   N     0.45069   0.16668   0.24999   0.00000  Uiso   1.00
N122   N     0.54931   0.16666   0.25001   0.00000  Uiso   1.00
O123   O     0.37291   0.10655   0.25000   0.00000  Uiso   1.00
O124   O     0.62709   0.22678   0.25000   0.00000  Uiso   1.00
O125   O     0.62706   0.10654   0.25000   0.00000  Uiso   1.00
O126   O     0.37294   0.22679   0.24999   0.00000  Uiso   1.00
O127   O     0.35186   0.16668   0.31491   0.00000  Uiso   1.00
O128   O     0.64814   0.16666   0.18508   0.00000  Uiso   1.00
O129   O     0.60600   0.16667   0.31492   0.00000  Uiso   1.00
O130   O     0.39400   0.16667   0.18508   0.00000  Uiso   1.00
Cl131  Cl    0.33883   0.24940   0.46957   0.00000  Uiso   1.00
Cl132  Cl    0.64732   0.13949   0.01550   0.00000  Uiso   1.00
Cl133  Cl    0.49207   0.25105   0.08842   0.00000  Uiso   1.00
Cl134  Cl    0.47669   0.18993   0.38928   0.00000  Uiso   1.00
C135   C     0.61872   0.29439   0.18823   0.00000  Uiso   1.00
C136   C     0.56317   0.29482   0.20717   0.00000  Uiso   1.00
H137   H     0.54650   0.28082   0.18225   0.00000  Uiso   1.00
H138   H     0.54929   0.32695   0.21377   0.00000  Uiso   1.00
H139   H     0.55185   0.27689   0.23925   0.00000  Uiso   1.00
H140   H     0.62903   0.31215   0.15594   0.00000  Uiso   1.00
H141   H     0.63174   0.26246   0.17898   0.00000  Uiso   1.00
C142   C     0.38161   0.03886   0.31151   0.00000  Uiso   1.00
C143   C     0.43713   0.03836   0.29226   0.00000  Uiso   1.00
H144   H     0.45403   0.05235   0.31701   0.00000  Uiso   1.00
H145   H     0.44827   0.05628   0.26016   0.00000  Uiso   1.00
H146   H     0.45093   0.00622   0.28561   0.00000  Uiso   1.00
H147   H     0.36867   0.07081   0.32080   0.00000  Uiso   1.00
H148   H     0.37147   0.02110   0.34380   0.00000  Uiso   1.00
C149   C     0.99972   0.08744   0.25159   0.00000  Uiso   1.00
C150   C     0.66695   0.24589   0.24840   0.00000  Uiso   1.00
C151   C     0.84788   0.22196   0.03830   0.00000  Uiso   1.00
C152   C     0.80010   0.18026   0.44775   0.00000  Uiso   1.00
C153   C     0.89627   0.22977   0.01426   0.00000  Uiso   1.00
C154   C     0.75238   0.17055   0.47148   0.00000  Uiso   1.00
C155   C     0.97590   0.02297   0.22436   0.00000  Uiso   1.00
C156   C     0.69075   0.31032   0.27564   0.00000  Uiso   1.00
C157   C     0.97596   0.31352   0.22141   0.00000  Uiso   1.00
C158   C     0.69077   0.01976   0.27853   0.00000  Uiso   1.00
C159   C     0.66682   0.29050   0.24781   0.00000  Uiso   1.00
C160   C     0.99985   0.04280   0.25217   0.00000  Uiso   1.00
C161   C     0.84842   0.14562   0.28244   0.00000  Uiso   1.00
C162   C     0.81830   0.18753   0.21739   0.00000  Uiso   1.00
C163   C     0.79877   0.14586   0.28260   0.00000  Uiso   1.00
C164   C     0.86792   0.18738   0.21732   0.00000  Uiso   1.00
C165   C     0.97236   0.16833   0.33630   0.00000  Uiso   1.00
C166   C     0.69421   0.16649   0.16363   0.00000  Uiso   1.00
C167   C     0.95621   0.17880   0.38469   0.00000  Uiso   1.00
C168   C     0.70900   0.16748   0.11385   0.00000  Uiso   1.00
C169   C     0.96636   0.21940   0.44743   0.00000  Uiso   1.00
C170   C     0.68993   0.15740   0.04275   0.00000  Uiso   1.00
C171   C     0.98570   0.20223   0.40445   0.00000  Uiso   1.00
C172   C     0.67569   0.15739   0.08993   0.00000  Uiso   1.00
C173   C     0.90750   0.17210   0.40856   0.00000  Uiso   1.00
C174   C     0.75653   0.17878   0.09016   0.00000  Uiso   1.00
C175   C     0.88588   0.19211   0.44974   0.00000  Uiso   1.00
C176   C     0.77045   0.18353   0.04281   0.00000  Uiso   1.00
C177   C     0.91646   0.21375   0.47081   0.00000  Uiso   1.00
C178   C     0.73744   0.17025   0.01879   0.00000  Uiso   1.00
C179   C     0.83495   0.18934   0.47142   0.00000  Uiso   1.00
C180   C     0.81770   0.19792   0.01850   0.00000  Uiso   1.00
Cu181  Cu    0.71355   0.16667   0.25000   0.00000  Uiso   1.00
Cu182  Cu    0.95311   0.16666   0.25000   0.00000  Uiso   1.00
H183   H     0.91799   0.24841   0.03022   0.00000  Uiso   1.00
H184   H     0.72695   0.16357   0.45231   0.00000  Uiso   1.00
H185   H     0.78289   0.18231   0.10898   0.00000  Uiso   1.00
H186   H     0.88668   0.15100   0.39438   0.00000  Uiso   1.00
H187   H     0.97230   0.14795   0.10787   0.00000  Uiso   1.00
H188   H     0.68994   0.20847   0.38587   0.00000  Uiso   1.00
H189   H     0.95809   0.04105   0.20374   0.00000  Uiso   1.00
H190   H     0.70854   0.29224   0.29626   0.00000  Uiso   1.00
H191   H     0.85929   0.12860   0.30837   0.00000  Uiso   1.00
H192   H     0.80748   0.20441   0.19134   0.00000  Uiso   1.00
H193   H     0.77224   0.12938   0.30885   0.00000  Uiso   1.00
H194   H     0.89447   0.20385   0.19106   0.00000  Uiso   1.00
N195   N     0.78403   0.16668   0.24999   0.00000  Uiso   1.00
N196   N     0.88264   0.16666   0.25001   0.00000  Uiso   1.00
O197   O     0.70625   0.10655   0.25000   0.00000  Uiso   1.00
O198   O     0.96042   0.22678   0.25000   0.00000  Uiso   1.00
O199   O     0.96039   0.10654   0.25000   0.00000  Uiso   1.00
O200   O     0.70628   0.22679   0.24999   0.00000  Uiso   1.00
O201   O     0.68519   0.16668   0.31491   0.00000  Uiso   1.00
O202   O     0.98148   0.16666   0.18508   0.00000  Uiso   1.00
O203   O     0.93933   0.16667   0.31492   0.00000  Uiso   1.00
O204   O     0.72733   0.16667   0.18508   0.00000  Uiso   1.00
Cl205  Cl    0.67217   0.24940   0.46957   0.00000  Uiso   1.00
Cl206  Cl    0.98066   0.13949   0.01550   0.00000  Uiso   1.00
Cl207  Cl    0.82540   0.25105   0.08842   0.00000  Uiso   1.00
Cl208  Cl    0.81002   0.18993   0.38928   0.00000  Uiso   1.00
C209   C     0.95205   0.29439   0.18823   0.00000  Uiso   1.00
C210   C     0.89650   0.29482   0.20717   0.00000  Uiso   1.00
H211   H     0.87983   0.28082   0.18225   0.00000  Uiso   1.00
H212   H     0.88263   0.32695   0.21377   0.00000  Uiso   1.00
H213   H     0.88518   0.27689   0.23925   0.00000  Uiso   1.00
H214   H     0.96236   0.31215   0.15594   0.00000  Uiso   1.00
H215   H     0.96508   0.26246   0.17898   0.00000  Uiso   1.00
C216   C     0.71494   0.03886   0.31151   0.00000  Uiso   1.00
C217   C     0.77046   0.03836   0.29226   0.00000  Uiso   1.00
H218   H     0.78736   0.05235   0.31701   0.00000  Uiso   1.00
H219   H     0.78160   0.05628   0.26016   0.00000  Uiso   1.00
H220   H     0.78426   0.00622   0.28561   0.00000  Uiso   1.00
H221   H     0.70200   0.07081   0.32080   0.00000  Uiso   1.00
H222   H     0.70481   0.02110   0.34380   0.00000  Uiso   1.00
C223   C     0.33305   0.42077   0.25159   0.00000  Uiso   1.00
C224   C     0.00028   0.57922   0.24840   0.00000  Uiso   1.00
C225   C     0.18121   0.55529   0.03830   0.00000  Uiso   1.00
C226   C     0.13343   0.51360   0.44775   0.00000  Uiso   1.00
C227   C     0.22960   0.56310   0.01426   0.00000  Uiso   1.00
C228   C     0.08571   0.50389   0.47148   0.00000  Uiso   1.00
C229   C     0.30923   0.35630   0.22436   0.00000  Uiso   1.00
C230   C     0.02408   0.64366   0.27564   0.00000  Uiso   1.00
C231   C     0.30929   0.64686   0.22141   0.00000  Uiso   1.00
C232   C     0.02410   0.35310   0.27853   0.00000  Uiso   1.00
C233   C     0.00015   0.62383   0.24781   0.00000  Uiso   1.00
C234   C     0.33319   0.37614   0.25217   0.00000  Uiso   1.00
C235   C     0.18175   0.47895   0.28244   0.00000  Uiso   1.00
C236   C     0.15163   0.52086   0.21739   0.00000  Uiso   1.00
C237   C     0.13211   0.47919   0.28260   0.00000  Uiso   1.00
C238   C     0.20125   0.52071   0.21732   0.00000  Uiso   1.00
C239   C     0.30569   0.50166   0.33630   0.00000  Uiso   1.00
C240   C     0.02755   0.49983   0.16363   0.00000  Uiso   1.00
C241   C     0.28954   0.51213   0.38469   0.00000  Uiso   1.00
C242   C     0.04234   0.50081   0.11385   0.00000  Uiso   1.00
C243   C     0.29969   0.55273   0.44743   0.00000  Uiso   1.00
C244   C     0.02326   0.49073   0.04275   0.00000  Uiso   1.00
C245   C     0.31903   0.53556   0.40445   0.00000  Uiso   1.00
C246   C     0.00902   0.49072   0.08993   0.00000  Uiso   1.00
C247   C     0.24083   0.50543   0.40856   0.00000  Uiso   1.00
C248   C     0.08986   0.51211   0.09016   0.00000  Uiso   1.00
C249   C     0.21921   0.52545   0.44974   0.00000  Uiso   1.00
C250   C     0.10378   0.51687   0.04281   0.00000  Uiso   1.00
C251   C     0.24979   0.54709   0.47081   0.00000  Uiso   1.00
C252   C     0.07077   0.50358   0.01879   0.00000  Uiso   1.00
C253   C     0.16828   0.52267   0.47142   0.00000  Uiso   1.00
C254   C     0.15103   0.53125   0.01850   0.00000  Uiso   1.00
Cu255  Cu    0.04689   0.50001   0.25000   0.00000  Uiso   1.00
Cu256  Cu    0.28645   0.49999   0.25000   0.00000  Uiso   1.00
H257   H     0.25132   0.58174   0.03022   0.00000  Uiso   1.00
H258   H     0.06028   0.49691   0.45231   0.00000  Uiso   1.00
H259   H     0.11623   0.51564   0.10898   0.00000  Uiso   1.00
H260   H     0.22002   0.48433   0.39438   0.00000  Uiso   1.00
H261   H     0.30563   0.48129   0.10787   0.00000  Uiso   1.00
H262   H     0.02327   0.54180   0.38587   0.00000  Uiso   1.00
H263   H     0.29143   0.37438   0.20374   0.00000  Uiso   1.00
H264   H     0.04188   0.62557   0.29626   0.00000  Uiso   1.00
H265   H     0.19262   0.46193   0.30837   0.00000  Uiso   1.00
H266   H     0.14081   0.53775   0.19134   0.00000  Uiso   1.00
H267   H     0.10557   0.46271   0.30885   0.00000  Uiso   1.00
H268   H     0.22780   0.53718   0.19106   0.00000  Uiso   1.00
N269   N     0.11736   0.50001   0.24999   0.00000  Uiso   1.00
N270   N     0.21597   0.49999   0.25001   0.00000  Uiso   1.00
O271   O     0.03958   0.43989   0.25000   0.00000  Uiso   1.00
O272   O     0.29375   0.56011   0.25000   0.00000  Uiso   1.00
O273   O     0.29372   0.43988   0.25000   0.00000  Uiso   1.00
O274   O     0.03961   0.56012   0.24999   0.00000  Uiso   1.00
O275   O     0.01852   0.50001   0.31491   0.00000  Uiso   1.00
O276   O     0.31481   0.49999   0.18508   0.00000  Uiso   1.00
O277   O     0.27267   0.50000   0.31492   0.00000  Uiso   1.00
O278   O     0.06067   0.50000   0.18508   0.00000  Uiso   1.00
Cl279  Cl    0.00550   0.58274   0.46957   0.00000  Uiso   1.00
Cl280  Cl    0.31399   0.47283   0.01550   0.00000  Uiso   1.00
Cl281  Cl    0.15873   0.58438   0.08842   0.00000  Uiso   1.00
Cl282  Cl    0.14335   0.52326   0.38928   0.00000  Uiso   1.00
C283   C     0.28538   0.62773   0.18823   0.00000  Uiso   1.00
C284   C     0.22983   0.62816   0.20717   0.00000  Uiso   1.00
H285   H     0.21317   0.61415   0.18225   0.00000  Uiso   1.00
H286   H     0.21596   0.66028   0.21377   0.00000  Uiso   1.00
H287   H     0.21851   0.61023   0.23925   0.00000  Uiso   1.00
H288   H     0.29570   0.64548   0.15594   0.00000  Uiso   1.00
H289   H     0.29841   0.59579   0.17898   0.00000  Uiso   1.00
C290   C     0.04828   0.37219   0.31151   0.00000  Uiso   1.00
C291   C     0.10379   0.37170   0.29226   0.00000  Uiso   1.00
H292   H     0.12069   0.38569   0.31701   0.00000  Uiso   1.00
H293   H     0.11494   0.38961   0.26016   0.00000  Uiso   1.00
H294   H     0.11759   0.33955   0.28561   0.00000  Uiso   1.00
H295   H     0.03533   0.40414   0.32080   0.00000  Uiso   1.00
H296   H     0.03814   0.35444   0.34380   0.00000  Uiso   1.00
C297   C     0.66639   0.42077   0.25159   0.00000  Uiso   1.00
C298   C     0.33361   0.57922   0.24840   0.00000  Uiso   1.00
C299   C     0.51454   0.55529   0.03830   0.00000  Uiso   1.00
C300   C     0.46677   0.51360   0.44775   0.00000  Uiso   1.00
C301   C     0.56294   0.56310   0.01426   0.00000  Uiso   1.00
C302   C     0.41905   0.50389   0.47148   0.00000  Uiso   1.00
C303   C     0.64257   0.35630   0.22436   0.00000  Uiso   1.00
C304   C     0.35741   0.64366   0.27564   0.00000  Uiso   1.00
C305   C     0.64262   0.64686   0.22141   0.00000  Uiso   1.00
C306   C     0.35743   0.35310   0.27853   0.00000  Uiso   1.00
C307   C     0.33348   0.62383   0.24781   0.00000  Uiso   1.00
C308   C     0.66652   0.37614   0.25217   0.00000  Uiso   1.00
C309   C     0.51509   0.47895   0.28244   0.00000  Uiso   1.00
C310   C     0.48497   0.52086   0.21739   0.00000  Uiso   1.00
C311   C     0.46544   0.47919   0.28260   0.00000  Uiso   1.00
C312   C     0.53459   0.52071   0.21732   0.00000  Uiso   1.00
C313   C     0.63902   0.50166   0.33630   0.00000  Uiso   1.00
C314   C     0.36088   0.49983   0.16363   0.00000  Uiso   1.00
C315   C     0.62288   0.51213   0.38469   0.00000  Uiso   1.00
C316   C     0.37567   0.50081   0.11385   0.00000  Uiso   1.00
C317   C     0.63303   0.55273   0.44743   0.00000  Uiso   1.00
C318   C     0.35659   0.49073   0.04275   0.00000  Uiso   1.00
C319   C     0.65237   0.53556   0.40445   0.00000  Uiso   1.00
C320   C     0.34236   0.49072   0.08993   0.00000  Uiso   1.00
C321   C     0.57416   0.50543   0.40856   0.00000  Uiso   1.00
C322   C     0.42319   0.51211   0.09016   0.00000  Uiso   1.00
C323   C     0.55255   0.52545   0.44974   0.00000  Uiso   1.00
C324   C     0.43711   0.51687   0.04281   0.00000  Uiso   1.00
C325   C     0.58312   0.54709   0.47081   0.00000  Uiso   1.00
C326   C     0.40411   0.50358   0.01879   0.00000  Uiso   1.00
C327   C     0.50161   0.52267   0.47142   0.00000  Uiso   1.00
C328   C     0.48437   0.53125   0.01850   0.00000  Uiso   1.00
Cu329  Cu    0.38022   0.50001   0.25000   0.00000  Uiso   1.00
Cu330  Cu    0.61978   0.49999   0.25000   0.00000  Uiso   1.00
H331   H     0.58466   0.58174   0.03022   0.00000  Uiso   1.00
H332   H     0.39362   0.49691   0.45231   0.00000  Uiso   1.00
H333   H     0.44956   0.51564   0.10898   0.00000  Uiso   1.00
H334   H     0.55335   0.48433   0.39438   0.00000  Uiso   1.00
H335   H     0.63897   0.48129   0.10787   0.00000  Uiso   1.00
H336   H     0.35660   0.54180   0.38587   0.00000  Uiso   1.00
H337   H     0.62476   0.37438   0.20374   0.00000  Uiso   1.00
H338   H     0.37521   0.62557   0.29626   0.00000  Uiso   1.00
H339   H     0.52596   0.46193   0.30837   0.00000  Uiso   1.00
H340   H     0.47414   0.53775   0.19134   0.00000  Uiso   1.00
H341   H     0.43891   0.46271   0.30885   0.00000  Uiso   1.00
H342   H     0.56113   0.53718   0.19106   0.00000  Uiso   1.00
N343   N     0.45069   0.50001   0.24999   0.00000  Uiso   1.00
N344   N     0.54931   0.49999   0.25001   0.00000  Uiso   1.00
O345   O     0.37291   0.43989   0.25000   0.00000  Uiso   1.00
O346   O     0.62709   0.56011   0.25000   0.00000  Uiso   1.00
O347   O     0.62706   0.43988   0.25000   0.00000  Uiso   1.00
O348   O     0.37294   0.56012   0.24999   0.00000  Uiso   1.00
O349   O     0.35186   0.50001   0.31491   0.00000  Uiso   1.00
O350   O     0.64814   0.49999   0.18508   0.00000  Uiso   1.00
O351   O     0.60600   0.50000   0.31492   0.00000  Uiso   1.00
O352   O     0.39400   0.50000   0.18508   0.00000  Uiso   1.00
Cl353  Cl    0.33883   0.58274   0.46957   0.00000  Uiso   1.00
Cl354  Cl    0.64732   0.47283   0.01550   0.00000  Uiso   1.00
Cl355  Cl    0.49207   0.58438   0.08842   0.00000  Uiso   1.00
Cl356  Cl    0.47669   0.52326   0.38928   0.00000  Uiso   1.00
C357   C     0.61872   0.62773   0.18823   0.00000  Uiso   1.00
C358   C     0.56317   0.62816   0.20717   0.00000  Uiso   1.00
H359   H     0.54650   0.61415   0.18225   0.00000  Uiso   1.00
H360   H     0.54929   0.66028   0.21377   0.00000  Uiso   1.00
H361   H     0.55185   0.61023   0.23925   0.00000  Uiso   1.00
H362   H     0.62903   0.64548   0.15594   0.00000  Uiso   1.00
H363   H     0.63174   0.59579   0.17898   0.00000  Uiso   1.00
C364   C     0.38161   0.37219   0.31151   0.00000  Uiso   1.00
C365   C     0.43713   0.37170   0.29226   0.00000  Uiso   1.00
H366   H     0.45403   0.38569   0.31701   0.00000  Uiso   1.00
H367   H     0.44827   0.38961   0.26016   0.00000  Uiso   1.00
H368   H     0.45093   0.33955   0.28561   0.00000  Uiso   1.00
H369   H     0.36867   0.40414   0.32080   0.00000  Uiso   1.00
H370   H     0.37147   0.35444   0.34380   0.00000  Uiso   1.00
C371   C     0.99972   0.42077   0.25159   0.00000  Uiso   1.00
C372   C     0.66695   0.57922   0.24840   0.00000  Uiso   1.00
C373   C     0.84788   0.55529   0.03830   0.00000  Uiso   1.00
C374   C     0.80010   0.51360   0.44775   0.00000  Uiso   1.00
C375   C     0.89627   0.56310   0.01426   0.00000  Uiso   1.00
C376   C     0.75238   0.50389   0.47148   0.00000  Uiso   1.00
C377   C     0.97590   0.35630   0.22436   0.00000  Uiso   1.00
C378   C     0.69075   0.64366   0.27564   0.00000  Uiso   1.00
C379   C     0.97596   0.64686   0.22141   0.00000  Uiso   1.00
C380   C     0.69077   0.35310   0.27853   0.00000  Uiso   1.00
C381   C     0.66682   0.62383   0.24781   0.00000  Uiso   1.00
C382   C     0.99985   0.37614   0.25217   0.00000  Uiso   1.00
C383   C     0.84842   0.47895   0.28244   0.00000  Uiso   1.00
C384   C     0.81830   0.52086   0.21739   0.00000  Uiso   1.00
C385   C     0.79877   0.47919   0.28260   0.00000  Uiso   1.00
C386   C     0.86792   0.52071   0.21732   0.00000  Uiso   1.00
C387   C     0.97236   0.50166   0.33630   0.00000  Uiso   1.00
C388   C     0.69421   0.49983   0.16363   0.00000  Uiso   1.00
C389   C     0.95621   0.51213   0.38469   0.00000  Uiso   1.00
C390   C     0.70900   0.50081   0.11385   0.00000  Uiso   1.00
C391   C     0.96636   0.55273   0.44743   0.00000  Uiso   1.00
C392   C     0.68993   0.49073   0.04275   0.00000  Uiso   1.00
C393   C     0.98570   0.53556   0.40445   0.00000  Uiso   1.00
C394   C     0.67569   0.49072   0.08993   0.00000  Uiso   1.00
C395   C     0.90750   0.50543   0.40856   0.00000  Uiso   1.00
C396   C     0.75653   0.51211   0.09016   0.00000  Uiso   1.00
C397   C     0.88588   0.52545   0.44974   0.00000  Uiso   1.00
C398   C     0.77045   0.51687   0.04281   0.00000  Uiso   1.00
C399   C     0.91646   0.54709   0.47081   0.00000  Uiso   1.00
C400   C     0.73744   0.50358   0.01879   0.00000  Uiso   1.00
C401   C     0.83495   0.52267   0.47142   0.00000  Uiso   1.00
C402   C     0.81770   0.53125   0.01850   0.00000  Uiso   1.00
Cu403  Cu    0.71355   0.50001   0.25000   0.00000  Uiso   1.00
Cu404  Cu    0.95311   0.49999   0.25000   0.00000  Uiso   1.00
H405   H     0.91799   0.58174   0.03022   0.00000  Uiso   1.00
H406   H     0.72695   0.49691   0.45231   0.00000  Uiso   1.00
H407   H     0.78289   0.51564   0.10898   0.00000  Uiso   1.00
H408   H     0.88668   0.48433   0.39438   0.00000  Uiso   1.00
H409   H     0.97230   0.48129   0.10787   0.00000  Uiso   1.00
H410   H     0.68994   0.54180   0.38587   0.00000  Uiso   1.00
H411   H     0.95809   0.37438   0.20374   0.00000  Uiso   1.00
H412   H     0.70854   0.62557   0.29626   0.00000  Uiso   1.00
H413   H     0.85929   0.46193   0.30837   0.00000  Uiso   1.00
H414   H     0.80748   0.53775   0.19134   0.00000  Uiso   1.00
H415   H     0.77224   0.46271   0.30885   0.00000  Uiso   1.00
H416   H     0.89447   0.53718   0.19106   0.00000  Uiso   1.00
N417   N     0.78403   0.50001   0.24999   0.00000  Uiso   1.00
N418   N     0.88264   0.49999   0.25001   0.00000  Uiso   1.00
O419   O     0.70625   0.43989   0.25000   0.00000  Uiso   1.00
O420   O     0.96042   0.56011   0.25000   0.00000  Uiso   1.00
O421   O     0.96039   0.43988   0.25000   0.00000  Uiso   1.00
O422   O     0.70628   0.56012   0.24999   0.00000  Uiso   1.00
O423   O     0.68519   0.50001   0.31491   0.00000  Uiso   1.00
O424   O     0.98148   0.49999   0.18508   0.00000  Uiso   1.00
O425   O     0.93933   0.50000   0.31492   0.00000  Uiso   1.00
O426   O     0.72733   0.50000   0.18508   0.00000  Uiso   1.00
Cl427  Cl    0.67217   0.58274   0.46957   0.00000  Uiso   1.00
Cl428  Cl    0.98066   0.47283   0.01550   0.00000  Uiso   1.00
Cl429  Cl    0.82540   0.58438   0.08842   0.00000  Uiso   1.00
Cl430  Cl    0.81002   0.52326   0.38928   0.00000  Uiso   1.00
C431   C     0.95205   0.62773   0.18823   0.00000  Uiso   1.00
C432   C     0.89650   0.62816   0.20717   0.00000  Uiso   1.00
H433   H     0.87983   0.61415   0.18225   0.00000  Uiso   1.00
H434   H     0.88263   0.66028   0.21377   0.00000  Uiso   1.00
H435   H     0.88518   0.61023   0.23925   0.00000  Uiso   1.00
H436   H     0.96236   0.64548   0.15594   0.00000  Uiso   1.00
H437   H     0.96508   0.59579   0.17898   0.00000  Uiso   1.00
C438   C     0.71494   0.37219   0.31151   0.00000  Uiso   1.00
C439   C     0.77046   0.37170   0.29226   0.00000  Uiso   1.00
H440   H     0.78736   0.38569   0.31701   0.00000  Uiso   1.00
H441   H     0.78160   0.38961   0.26016   0.00000  Uiso   1.00
H442   H     0.78426   0.33955   0.28561   0.00000  Uiso   1.00
H443   H     0.70200   0.40414   0.32080   0.00000  Uiso   1.00
H444   H     0.70481   0.35444   0.34380   0.00000  Uiso   1.00
C445   C     0.33305   0.75410   0.25159   0.00000  Uiso   1.00
C446   C     0.00028   0.91255   0.24840   0.00000  Uiso   1.00
C447   C     0.18121   0.88862   0.03830   0.00000  Uiso   1.00
C448   C     0.13343   0.84693   0.44775   0.00000  Uiso   1.00
C449   C     0.22960   0.89643   0.01426   0.00000  Uiso   1.00
C450   C     0.08571   0.83722   0.47148   0.00000  Uiso   1.00
C451   C     0.30923   0.68963   0.22436   0.00000  Uiso   1.00
C452   C     0.02408   0.97699   0.27564   0.00000  Uiso   1.00
C453   C     0.30929   0.98019   0.22141   0.00000  Uiso   1.00
C454   C     0.02410   0.68643   0.27853   0.00000  Uiso   1.00
C455   C     0.00015   0.95717   0.24781   0.00000  Uiso   1.00
C456   C     0.33319   0.70947   0.25217   0.00000  Uiso   1.00
C457   C     0.18175   0.81228   0.28244   0.00000  Uiso   1.00
C458   C     0.15163   0.85419   0.21739   0.00000  Uiso   1.00
C459   C     0.13211   0.81253   0.28260   0.00000  Uiso   1.00
C460   C     0.20125   0.85405   0.21732   0.00000  Uiso   1.00
C461   C     0.30569   0.83499   0.33630   0.00000  Uiso   1.00
C462   C     0.02755   0.83316   0.16363   0.00000  Uiso   1.00
C463   C     0.28954   0.84547   0.38469   0.00000  Uiso   1.00
C464   C     0.04234   0.83414   0.11385   0.00000  Uiso   1.00
C465   C     0.29969   0.88607   0.44743   0.00000  Uiso   1.00
C466   C     0.02326   0.82407   0.04275   0.00000  Uiso   1.00
C467   C     0.31903   0.86889   0.40445   0.00000  Uiso   1.00
C468   C     0.00902   0.82406   0.08993   0.00000  Uiso   1.00
C469   C     0.24083   0.83877   0.40856   0.00000  Uiso   1.00
C470   C     0.08986   0.84545   0.09016   0.00000  Uiso   1.00
C471   C     0.21921   0.85878   0.44974   0.00000  Uiso   1.00
C472   C     0.10378   0.85020   0.04281   0.00000  Uiso   1.00
C473   C     0.24979   0.88042   0.47081   0.00000  Uiso   1.00
C474   C     0.07077   0.83691   0.01879   0.00000  Uiso   1.00
C475   C     0.16828   0.85601   0.47142   0.00000  Uiso   1.00
C476   C     0.15103   0.86459   0.01850   0.00000  Uiso   1.00
Cu477  Cu    0.04689   0.83334   0.25000   0.00000  Uiso   1.00
Cu478  Cu    0.28645   0.83333   0.25000   0.00000  Uiso   1.00
H479   H     0.25132   0.91507   0.03022   0.00000  Uiso   1.00
H480   H     0.06028   0.83024   0.45231   0.00000  Uiso   1.00
H481   H     0.11623   0.84898   0.10898   0.00000  Uiso   1.00
H482   H     0.22002   0.81766   0.39438   0.00000  Uiso   1.00
H483   H     0.30563   0.81462   0.10787   0.00000  Uiso   1.00
H484   H     0.02327   0.87513   0.38587   0.00000  Uiso   1.00
H485   H     0.29143   0.70772   0.20374   0.00000  Uiso   1.00
H486   H     0.04188   0.95890   0.29626   0.00000  Uiso   1.00
H487   H     0.19262   0.79527   0.30837   0.00000  Uiso   1.00
H488   H     0.14081   0.87108   0.19134   0.00000  Uiso   1.00
H489   H     0.10557   0.79604   0.30885   0.00000  Uiso   1.00
H490   H     0.22780   0.87051   0.19106   0.00000  Uiso   1.00
N491   N     0.11736   0.83334   0.24999   0.00000  Uiso   1.00
N492   N     0.21597   0.83332   0.25001   0.00000  Uiso   1.00
O493   O     0.03958   0.77322   0.25000   0.00000  Uiso   1.00
O494   O     0.29375   0.89345   0.25000   0.00000  Uiso   1.00
O495   O     0.29372   0.77321   0.25000   0.00000  Uiso   1.00
O496   O     0.03961   0.89346   0.24999   0.00000  Uiso   1.00
O497   O     0.01852   0.83334   0.31491   0.00000  Uiso   1.00
O498   O     0.31481   0.83332   0.18508   0.00000  Uiso   1.00
O499   O     0.27267   0.83333   0.31492   0.00000  Uiso   1.00
O500   O     0.06067   0.83333   0.18508   0.00000  Uiso   1.00
Cl501  Cl    0.00550   0.91607   0.46957   0.00000  Uiso   1.00
Cl502  Cl    0.31399   0.80616   0.01550   0.00000  Uiso   1.00
Cl503  Cl    0.15873   0.91771   0.08842   0.00000  Uiso   1.00
Cl504  Cl    0.14335   0.85660   0.38928   0.00000  Uiso   1.00
C505   C     0.28538   0.96106   0.18823   0.00000  Uiso   1.00
C506   C     0.22983   0.96149   0.20717   0.00000  Uiso   1.00
H507   H     0.21317   0.94748   0.18225   0.00000  Uiso   1.00
H508   H     0.21596   0.99362   0.21377   0.00000  Uiso   1.00
H509   H     0.21851   0.94356   0.23925   0.00000  Uiso   1.00
H510   H     0.29570   0.97882   0.15594   0.00000  Uiso   1.00
H511   H     0.29841   0.92912   0.17898   0.00000  Uiso   1.00
C512   C     0.04828   0.70553   0.31151   0.00000  Uiso   1.00
C513   C     0.10379   0.70503   0.29226   0.00000  Uiso   1.00
H514   H     0.12069   0.71902   0.31701   0.00000  Uiso   1.00
H515   H     0.11494   0.72294   0.26016   0.00000  Uiso   1.00
H516   H     0.11759   0.67289   0.28561   0.00000  Uiso   1.00
H517   H     0.03533   0.73747   0.32080   0.00000  Uiso   1.00
H518   H     0.03814   0.68777   0.34380   0.00000  Uiso   1.00
C519   C     0.66639   0.75410   0.25159   0.00000  Uiso   1.00
C520   C     0.33361   0.91255   0.24840   0.00000  Uiso   1.00
C521   C     0.51454   0.88862   0.03830   0.00000  Uiso   1.00
C522   C     0.46677   0.84693   0.44775   0.00000  Uiso   1.00
C523   C     0.56294   0.89643   0.01426   0.00000  Uiso   1.00
C524   C     0.41905   0.83722   0.47148   0.00000  Uiso   1.00
C525   C     0.64257   0.68963   0.22436   0.00000  Uiso   1.00
C526   C     0.35741   0.97699   0.27564   0.00000  Uiso   1.00
C527   C     0.64262   0.98019   0.22141   0.00000  Uiso   1.00
C528   C     0.35743   0.68643   0.27853   0.00000  Uiso   1.00
C529   C     0.33348   0.95717   0.24781   0.00000  Uiso   1.00
C530   C     0.66652   0.70947   0.25217   0.00000  Uiso   1.00
C531   C     0.51509   0.81228   0.28244   0.00000  Uiso   1.00
C532   C     0.48497   0.85419   0.21739   0.00000  Uiso   1.00
C533   C     0.46544   0.81253   0.28260   0.00000  Uiso   1.00
C534   C     0.53459   0.85405   0.21732   0.00000  Uiso   1.00
C535   C     0.63902   0.83499   0.33630   0.00000  Uiso   1.00
C536   C     0.36088   0.83316   0.16363   0.00000  Uiso   1.00
C537   C     0.62288   0.84547   0.38469   0.00000  Uiso   1.00
C538   C     0.37567   0.83414   0.11385   0.00000  Uiso   1.00
C539   C     0.63303   0.88607   0.44743   0.00000  Uiso   1.00
C540   C     0.35659   0.82407   0.04275   0.00000  Uiso   1.00
C541   C     0.65237   0.86889   0.40445   0.00000  Uiso   1.00
C542   C     0.34236   0.82406   0.08993   0.00000  Uiso   1.00
C543   C     0.57416   0.83877   0.40856   0.00000  Uiso   1.00
C544   C     0.42319   0.84545   0.09016   0.00000  Uiso   1.00
C545   C     0.55255   0.85878   0.44974   0.00000  Uiso   1.00
C546   C     0.43711   0.85020   0.04281   0.00000  Uiso   1.00
C547   C     0.58312   0.88042   0.47081   0.00000  Uiso   1.00
C548   C     0.40411   0.83691   0.01879   0.00000  Uiso   1.00
C549   C     0.50161   0.85601   0.47142   0.00000  Uiso   1.00
C550   C     0.48437   0.86459   0.01850   0.00000  Uiso   1.00
Cu551  Cu    0.38022   0.83334   0.25000   0.00000  Uiso   1.00
Cu552  Cu    0.61978   0.83333   0.25000   0.00000  Uiso   1.00
H553   H     0.58466   0.91507   0.03022   0.00000  Uiso   1.00
H554   H     0.39362   0.83024   0.45231   0.00000  Uiso   1.00
H555   H     0.44956   0.84898   0.10898   0.00000  Uiso   1.00
H556   H     0.55335   0.81766   0.39438   0.00000  Uiso   1.00
H557   H     0.63897   0.81462   0.10787   0.00000  Uiso   1.00
H558   H     0.35660   0.87513   0.38587   0.00000  Uiso   1.00
H559   H     0.62476   0.70772   0.20374   0.00000  Uiso   1.00
H560   H     0.37521   0.95890   0.29626   0.00000  Uiso   1.00
H561   H     0.52596   0.79527   0.30837   0.00000  Uiso   1.00
H562   H     0.47414   0.87108   0.19134   0.00000  Uiso   1.00
H563   H     0.43891   0.79604   0.30885   0.00000  Uiso   1.00
H564   H     0.56113   0.87051   0.19106   0.00000  Uiso   1.00
N565   N     0.45069   0.83334   0.24999   0.00000  Uiso   1.00
N566   N     0.54931   0.83332   0.25001   0.00000  Uiso   1.00
O567   O     0.37291   0.77322   0.25000   0.00000  Uiso   1.00
O568   O     0.62709   0.89345   0.25000   0.00000  Uiso   1.00
O569   O     0.62706   0.77321   0.25000   0.00000  Uiso   1.00
O570   O     0.37294   0.89346   0.24999   0.00000  Uiso   1.00
O571   O     0.35186   0.83334   0.31491   0.00000  Uiso   1.00
O572   O     0.64814   0.83332   0.18508   0.00000  Uiso   1.00
O573   O     0.60600   0.83333   0.31492   0.00000  Uiso   1.00
O574   O     0.39400   0.83333   0.18508   0.00000  Uiso   1.00
Cl575  Cl    0.33883   0.91607   0.46957   0.00000  Uiso   1.00
Cl576  Cl    0.64732   0.80616   0.01550   0.00000  Uiso   1.00
Cl577  Cl    0.49207   0.91771   0.08842   0.00000  Uiso   1.00
Cl578  Cl    0.47669   0.85660   0.38928   0.00000  Uiso   1.00
C579   C     0.61872   0.96106   0.18823   0.00000  Uiso   1.00
C580   C     0.56317   0.96149   0.20717   0.00000  Uiso   1.00
H581   H     0.54650   0.94748   0.18225   0.00000  Uiso   1.00
H582   H     0.54929   0.99362   0.21377   0.00000  Uiso   1.00
H583   H     0.55185   0.94356   0.23925   0.00000  Uiso   1.00
H584   H     0.62903   0.97882   0.15594   0.00000  Uiso   1.00
H585   H     0.63174   0.92912   0.17898   0.00000  Uiso   1.00
C586   C     0.38161   0.70553   0.31151   0.00000  Uiso   1.00
C587   C     0.43713   0.70503   0.29226   0.00000  Uiso   1.00
H588   H     0.45403   0.71902   0.31701   0.00000  Uiso   1.00
H589   H     0.44827   0.72294   0.26016   0.00000  Uiso   1.00
H590   H     0.45093   0.67289   0.28561   0.00000  Uiso   1.00
H591   H     0.36867   0.73747   0.32080   0.00000  Uiso   1.00
H592   H     0.37147   0.68777   0.34380   0.00000  Uiso   1.00
C593   C     0.99972   0.75410   0.25159   0.00000  Uiso   1.00
C594   C     0.66695   0.91255   0.24840   0.00000  Uiso   1.00
C595   C     0.84788   0.88862   0.03830   0.00000  Uiso   1.00
C596   C     0.80010   0.84693   0.44775   0.00000  Uiso   1.00
C597   C     0.89627   0.89643   0.01426   0.00000  Uiso   1.00
C598   C     0.75238   0.83722   0.47148   0.00000  Uiso   1.00
C599   C     0.97590   0.68963   0.22436   0.00000  Uiso   1.00
C600   C     0.69075   0.97699   0.27564   0.00000  Uiso   1.00
C601   C     0.97596   0.98019   0.22141   0.00000  Uiso   1.00
C602   C     0.69077   0.68643   0.27853   0.00000  Uiso   1.00
C603   C     0.66682   0.95717   0.24781   0.00000  Uiso   1.00
C604   C     0.99985   0.70947   0.25217   0.00000  Uiso   1.00
C605   C     0.84842   0.81228   0.28244   0.00000  Uiso   1.00
C606   C     0.81830   0.85419   0.21739   0.00000  Uiso   1.00
C607   C     0.79877   0.81253   0.28260   0.00000  Uiso   1.00
C608   C     0.86792   0.85405   0.21732   0.00000  Uiso   1.00
C609   C     0.97236   0.83499   0.33630   0.00000  Uiso   1.00
C610   C     0.69421   0.83316   0.16363   0.00000  Uiso   1.00
C611   C     0.95621   0.84547   0.38469   0.00000  Uiso   1.00
C612   C     0.70900   0.83414   0.11385   0.00000  Uiso   1.00
C613   C     0.96636   0.88607   0.44743   0.00000  Uiso   1.00
C614   C     0.68993   0.82407   0.04275   0.00000  Uiso   1.00
C615   C     0.98570   0.86889   0.40445   0.00000  Uiso   1.00
C616   C     0.67569   0.82406   0.08993   0.00000  Uiso   1.00
C617   C     0.90750   0.83877   0.40856   0.00000  Uiso   1.00
C618   C     0.75653   0.84545   0.09016   0.00000  Uiso   1.00
C619   C     0.88588   0.85878   0.44974   0.00000  Uiso   1.00
C620   C     0.77045   0.85020   0.04281   0.00000  Uiso   1.00
C621   C     0.91646   0.88042   0.47081   0.00000  Uiso   1.00
C622   C     0.73744   0.83691   0.01879   0.00000  Uiso   1.00
C623   C     0.83495   0.85601   0.47142   0.00000  Uiso   1.00
C624   C     0.81770   0.86459   0.01850   0.00000  Uiso   1.00
Cu625  Cu    0.71355   0.83334   0.25000   0.00000  Uiso   1.00
Cu626  Cu    0.95311   0.83333   0.25000   0.00000  Uiso   1.00
H627   H     0.91799   0.91507   0.03022   0.00000  Uiso   1.00
H628   H     0.72695   0.83024   0.45231   0.00000  Uiso   1.00
H629   H     0.78289   0.84898   0.10898   0.00000  Uiso   1.00
H630   H     0.88668   0.81766   0.39438   0.00000  Uiso   1.00
H631   H     0.97230   0.81462   0.10787   0.00000  Uiso   1.00
H632   H     0.68994   0.87513   0.38587   0.00000  Uiso   1.00
H633   H     0.95809   0.70772   0.20374   0.00000  Uiso   1.00
H634   H     0.70854   0.95890   0.29626   0.00000  Uiso   1.00
H635   H     0.85929   0.79527   0.30837   0.00000  Uiso   1.00
H636   H     0.80748   0.87108   0.19134   0.00000  Uiso   1.00
H637   H     0.77224   0.79604   0.30885   0.00000  Uiso   1.00
H638   H     0.89447   0.87051   0.19106   0.00000  Uiso   1.00
N639   N     0.78403   0.83334   0.24999   0.00000  Uiso   1.00
N640   N     0.88264   0.83332   0.25001   0.00000  Uiso   1.00
O641   O     0.70625   0.77322   0.25000   0.00000  Uiso   1.00
O642   O     0.96042   0.89345   0.25000   0.00000  Uiso   1.00
O643   O     0.96039   0.77321   0.25000   0.00000  Uiso   1.00
O644   O     0.70628   0.89346   0.24999   0.00000  Uiso   1.00
O645   O     0.68519   0.83334   0.31491   0.00000  Uiso   1.00
O646   O     0.98148   0.83332   0.18508   0.00000  Uiso   1.00
O647   O     0.93933   0.83333   0.31492   0.00000  Uiso   1.00
O648   O     0.72733   0.83333   0.18508   0.00000  Uiso   1.00
Cl649  Cl    0.67217   0.91607   0.46957   0.00000  Uiso   1.00
Cl650  Cl    0.98066   0.80616   0.01550   0.00000  Uiso   1.00
Cl651  Cl    0.82540   0.91771   0.08842   0.00000  Uiso   1.00
Cl652  Cl    0.81002   0.85660   0.38928   0.00000  Uiso   1.00
C653   C     0.95205   0.96106   0.18823   0.00000  Uiso   1.00
C654   C     0.89650   0.96149   0.20717   0.00000  Uiso   1.00
H655   H     0.87983   0.94748   0.18225   0.00000  Uiso   1.00
H656   H     0.88263   0.99362   0.21377   0.00000  Uiso   1.00
H657   H     0.88518   0.94356   0.23925   0.00000  Uiso   1.00
H658   H     0.96236   0.97882   0.15594   0.00000  Uiso   1.00
H659   H     0.96508   0.92912   0.17898   0.00000  Uiso   1.00
C660   C     0.71494   0.70553   0.31151   0.00000  Uiso   1.00
C661   C     0.77046   0.70503   0.29226   0.00000  Uiso   1.00
H662   H     0.78736   0.71902   0.31701   0.00000  Uiso   1.00
H663   H     0.78160   0.72294   0.26016   0.00000  Uiso   1.00
H664   H     0.78426   0.67289   0.28561   0.00000  Uiso   1.00
H665   H     0.70200   0.73747   0.32080   0.00000  Uiso   1.00
H666   H     0.70481   0.68777   0.34380   0.00000  Uiso   1.00
C667   C     0.33305   0.08744   0.75159   0.00000  Uiso   1.00
C668   C     0.00028   0.24589   0.74840   0.00000  Uiso   1.00
C669   C     0.18121   0.22196   0.53830   0.00000  Uiso   1.00
C670   C     0.13343   0.18026   0.94775   0.00000  Uiso   1.00
C671   C     0.22960   0.22977   0.51426   0.00000  Uiso   1.00
C672   C     0.08571   0.17055   0.97148   0.00000  Uiso   1.00
C673   C     0.30923   0.02297   0.72436   0.00000  Uiso   1.00
C674   C     0.02408   0.31032   0.77564   0.00000  Uiso   1.00
C675   C     0.30929   0.31352   0.72141   0.00000  Uiso   1.00
C676   C     0.02410   0.01976   0.77853   0.00000  Uiso   1.00
C677   C     0.00015   0.29050   0.74781   0.00000  Uiso   1.00
C678   C     0.33319   0.04280   0.75217   0.00000  Uiso   1.00
C679   C     0.18175   0.14562   0.78244   0.00000  Uiso   1.00
C680   C     0.15163   0.18753   0.71739   0.00000  Uiso   1.00
C681   C     0.13211   0.14586   0.78260   0.00000  Uiso   1.00
C682   C     0.20125   0.18738   0.71732   0.00000  Uiso   1.00
C683   C     0.30569   0.16833   0.83630   0.00000  Uiso   1.00
C684   C     0.02755   0.16649   0.66363   0.00000  Uiso   1.00
C685   C     0.28954   0.17880   0.88469   0.00000  Uiso   1.00
C686   C     0.04234   0.16748   0.61385   0.00000  Uiso   1.00
C687   C     0.29969   0.21940   0.94743   0.00000  Uiso   1.00
C688   C     0.02326   0.15740   0.54275   0.00000  Uiso   1.00
C689   C     0.31903   0.20223   0.90445   0.00000  Uiso   1.00
C690   C     0.00902   0.15739   0.58993   0.00000  Uiso   1.00
C691   C     0.24083   0.17210   0.90856   0.00000  Uiso   1.00
C692   C     0.08986   0.17878   0.59016   0.00000  Uiso   1.00
C693   C     0.21921   0.19211   0.94974   0.00000  Uiso   1.00
C694   C     0.10378   0.18353   0.54281   0.00000  Uiso   1.00
C695   C     0.24979   0.21375   0.97081   0.00000  Uiso   1.00
C696   C     0.07077   0.17025   0.51879   0.00000  Uiso   1.00
C697   C     0.16828   0.18934   0.97142   0.00000  Uiso   1.00
C698   C     0.15103   0.19792   0.51850   0.00000  Uiso   1.00
Cu699  Cu    0.04689   0.16667   0.75000   0.00000  Uiso   1.00
Cu700  Cu    0.28645   0.16666   0.75000   0.00000  Uiso   1.00
H701   H     0.25132   0.24841   0.53022   0.00000  Uiso   1.00
H702   H     0.06028   0.16357   0.95231   0.00000  Uiso   1.00
H703   H     0.11623   0.18231   0.60898   0.00000  Uiso   1.00
H704   H     0.22002   0.15100   0.89438   0.00000  Uiso   1.00
H705   H     0.30563   0.14795   0.60787   0.00000  Uiso   1.00
H706   H     0.02327   0.20847   0.88587   0.00000  Uiso   1.00
H707   H     0.29143   0.04105   0.70374   0.00000  Uiso   1.00
H708   H     0.04188   0.29224   0.79626   0.00000  Uiso   1.00
H709   H     0.19262   0.12860   0.80837   0.00000  Uiso   1.00
H710   H     0.14081   0.20441   0.69134   0.00000  Uiso   1.00
H711   H     0.10557   0.12938   0.80885   0.00000  Uiso   1.00
H712   H     0.22780   0.20385   0.69106   0.00000  Uiso   1.00
N713   N     0.11736   0.16668   0.74999   0.00000  Uiso   1.00
N714   N     0.21597   0.16666   0.75001   0.00000  Uiso   1.00
O715   O     0.03958   0.10655   0.75000   0.00000  Uiso   1.00
O716   O     0.29375   0.22678   0.75000   0.00000  Uiso   1.00
O717   O     0.29372   0.10654   0.75000   0.00000  Uiso   1.00
O718   O     0.03961   0.22679   0.74999   0.00000  Uiso   1.00
O719   O     0.01852   0.16668   0.81491   0.00000  Uiso   1.00
O720   O     0.31481   0.16666   0.68508   0.00000  Uiso   1.00
O721   O     0.27267   0.16667   0.81492   0.00000  Uiso   1.00
O722   O     0.06067   0.16667   0.68508   0.00000  Uiso   1.00
Cl723  Cl    0.00550   0.24940   0.96957   0.00000  Uiso   1.00
Cl724  Cl    0.31399   0.13949   0.51550   0.00000  Uiso   1.00
Cl725  Cl    0.15873   0.25105   0.58842   0.00000  Uiso   1.00
Cl726  Cl    0.14335   0.18993   0.88928   0.00000  Uiso   1.00
C727   C     0.28538   0.29439   0.68823   0.00000  Uiso   1.00
C728   C     0.22983   0.29482   0.70717   0.00000  Uiso   1.00
H729   H     0.21317   0.28082   0.68225   0.00000  Uiso   1.00
H730   H     0.21596   0.32695   0.71377   0.00000  Uiso   1.00
H731   H     0.21851   0.27689   0.73925   0.00000  Uiso   1.00
H732   H     0.29570   0.31215   0.65594   0.00000  Uiso   1.00
H733   H     0.29841   0.26246   0.67898   0.00000  Uiso   1.00
C734   C     0.04828   0.03886   0.81151   0.00000  Uiso   1.00
C735   C     0.10379   0.03836   0.79226   0.00000  Uiso   1.00
H736   H     0.12069   0.05235   0.81701   0.00000  Uiso   1.00
H737   H     0.11494   0.05628   0.76016   0.00000  Uiso   1.00
H738   H     0.11759   0.00622   0.78561   0.00000  Uiso   1.00
H739   H     0.03533   0.07081   0.82080   0.00000  Uiso   1.00
H740   H     0.03814   0.02110   0.84380   0.00000  Uiso   1.00
C741   C     0.66639   0.08744   0.75159   0.00000  Uiso   1.00
C742   C     0.33361   0.24589   0.74840   0.00000  Uiso   1.00
C743   C     0.51454   0.22196   0.53830   0.00000  Uiso   1.00
C744   C     0.46677   0.18026   0.94775   0.00000  Uiso   1.00
C745   C     0.56294   0.22977   0.51426   0.00000  Uiso   1.00
C746   C     0.41905   0.17055   0.97148   0.00000  Uiso   1.00
C747   C     0.64257   0.02297   0.72436   0.00000  Uiso   1.00
C748   C     0.35741   0.31032   0.77564   0.00000  Uiso   1.00
C749   C     0.64262   0.31352   0.72141   0.00000  Uiso   1.00
C750   C     0.35743   0.01976   0.77853   0.00000  Uiso   1.00
C751   C     0.33348   0.29050   0.74781   0.00000  Uiso   1.00
C752   C     0.66652   0.04280   0.75217   0.00000  Uiso   1.00
C753   C     0.51509   0.14562   0.78244   0.00000  Uiso   1.00
C754   C     0.48497   0.18753   0.71739   0.00000  Uiso   1.00
C755   C     0.46544   0.14586   0.78260   0.00000  Uiso   1.00
C756   C     0.53459   0.18738   0.71732   0.00000  Uiso   1.00
C757   C     0.63902   0.16833   0.83630   0.00000  Uiso   1.00
C758   C     0.36088   0.16649   0.66363   0.00000  Uiso   1.00
C759   C     0.62288   0.17880   0.88469   0.00000  Uiso   1.00
C760   C     0.37567   0.16748   0.61385   0.00000  Uiso   1.00
C761   C     0.63303   0.21940   0.94743   0.00000  Uiso   1.00
C762   C     0.35659   0.15740   0.54275   0.00000  Uiso   1.00
C763   C     0.65237   0.20223   0.90445   0.00000  Uiso   1.00
C764   C     0.34236   0.15739   0.58993   0.00000  Uiso   1.00
C765   C     0.57416   0.17210   0.90856   0.00000  Uiso   1.00
C766   C     0.42319   0.17878   0.59016   0.00000  Uiso   1.00
C767   C     0.55255   0.19211   0.94974   0.00000  Uiso   1.00
C768   C     0.43711   0.18353   0.54281   0.00000  Uiso   1.00
C769   C     0.58312   0.21375   0.97081   0.00000  Uiso   1.00
C770   C     0.40411   0.17025   0.51879   0.00000  Uiso   1.00
C771   C     0.50161   0.18934   0.97142   0.00000  Uiso   1.00
C772   C     0.48437   0.19792   0.51850   0.00000  Uiso   1.00
Cu773  Cu    0.38022   0.16667   0.75000   0.00000  Uiso   1.00
Cu774  Cu    0.61978   0.16666   0.75000   0.00000  Uiso   1.00
H775   H     0.58466   0.24841   0.53022   0.00000  Uiso   1.00
H776   H     0.39362   0.16357   0.95231   0.00000  Uiso   1.00
H777   H     0.44956   0.18231   0.60898   0.00000  Uiso   1.00
H778   H     0.55335   0.15100   0.89438   0.00000  Uiso   1.00
H779   H     0.63897   0.14795   0.60787   0.00000  Uiso   1.00
H780   H     0.35660   0.20847   0.88587   0.00000  Uiso   1.00
H781   H     0.62476   0.04105   0.70374   0.00000  Uiso   1.00
H782   H     0.37521   0.29224   0.79626   0.00000  Uiso   1.00
H783   H     0.52596   0.12860   0.80837   0.00000  Uiso   1.00
H784   H     0.47414   0.20441   0.69134   0.00000  Uiso   1.00
H785   H     0.43891   0.12938   0.80885   0.00000  Uiso   1.00
H786   H     0.56113   0.20385   0.69106   0.00000  Uiso   1.00
N787   N     0.45069   0.16668   0.74999   0.00000  Uiso   1.00
N788   N     0.54931   0.16666   0.75001   0.00000  Uiso   1.00
O789   O     0.37291   0.10655   0.75000   0.00000  Uiso   1.00
O790   O     0.62709   0.22678   0.75000   0.00000  Uiso   1.00
O791   O     0.62706   0.10654   0.75000   0.00000  Uiso   1.00
O792   O     0.37294   0.22679   0.74999   0.00000  Uiso   1.00
O793   O     0.35186   0.16668   0.81491   0.00000  Uiso   1.00
O794   O     0.64814   0.16666   0.68508   0.00000  Uiso   1.00
O795   O     0.60600   0.16667   0.81492   0.00000  Uiso   1.00
O796   O     0.39400   0.16667   0.68508   0.00000  Uiso   1.00
Cl797  Cl    0.33883   0.24940   0.96957   0.00000  Uiso   1.00
Cl798  Cl    0.64732   0.13949   0.51550   0.00000  Uiso   1.00
Cl799  Cl    0.49207   0.25105   0.58842   0.00000  Uiso   1.00
Cl800  Cl    0.47669   0.18993   0.88928   0.00000  Uiso   1.00
C801   C     0.61872   0.29439   0.68823   0.00000  Uiso   1.00
C802   C     0.56317   0.29482   0.70717   0.00000  Uiso   1.00
H803   H     0.54650   0.28082   0.68225   0.00000  Uiso   1.00
H804   H     0.54929   0.32695   0.71377   0.00000  Uiso   1.00
H805   H     0.55185   0.27689   0.73925   0.00000  Uiso   1.00
H806   H     0.62903   0.31215   0.65594   0.00000  Uiso   1.00
H807   H     0.63174   0.26246   0.67898   0.00000  Uiso   1.00
C808   C     0.38161   0.03886   0.81151   0.00000  Uiso   1.00
C809   C     0.43713   0.03836   0.79226   0.00000  Uiso   1.00
H810   H     0.45403   0.05235   0.81701   0.00000  Uiso   1.00
H811   H     0.44827   0.05628   0.76016   0.00000  Uiso   1.00
H812   H     0.45093   0.00622   0.78561   0.00000  Uiso   1.00
H813   H     0.36867   0.07081   0.82080   0.00000  Uiso   1.00
H814   H     0.37147   0.02110   0.84380   0.00000  Uiso   1.00
C815   C     0.99972   0.08744   0.75159   0.00000  Uiso   1.00
C816   C     0.66695   0.24589   0.74840   0.00000  Uiso   1.00
C817   C     0.84788   0.22196   0.53830   0.00000  Uiso   1.00
C818   C     0.80010   0.18026   0.94775   0.00000  Uiso   1.00
C819   C     0.89627   0.22977   0.51426   0.00000  Uiso   1.00
C820   C     0.75238   0.17055   0.97148   0.00000  Uiso   1.00
C821   C     0.97590   0.02297   0.72436   0.00000  Uiso   1.00
C822   C     0.69075   0.31032   0.77564   0.00000  Uiso   1.00
C823   C     0.97596   0.31352   0.72141   0.00000  Uiso   1.00
C824   C     0.69077   0.01976   0.77853   0.00000  Uiso   1.00
C825   C     0.66682   0.29050   0.74781   0.00000  Uiso   1.00
C826   C     0.99985   0.04280   0.75217   0.00000  Uiso   1.00
C827   C     0.84842   0.14562   0.78244   0.00000  Uiso   1.00
C828   C     0.81830   0.18753   0.71739   0.00000  Uiso   1.00
C829   C     0.79877   0.14586   0.78260   0.00000  Uiso   1.00
C830   C     0.86792   0.18738   0.71732   0.00000  Uiso   1.00
C831   C     0.97236   0.16833   0.83630   0.00000  Uiso   1.00
C832   C     0.69421   0.16649   0.66363   0.00000  Uiso   1.00
C833   C     0.95621   0.17880   0.88469   0.00000  Uiso   1.00
C834   C     0.70900   0.16748   0.61385   0.00000  Uiso   1.00
C835   C     0.96636   0.21940   0.94743   0.00000  Uiso   1.00
C836   C     0.68993   0.15740   0.54275   0.00000  Uiso   1.00
C837   C     0.98570   0.20223   0.90445   0.00000  Uiso   1.00
C838   C     0.67569   0.15739   0.58993   0.00000  Uiso   1.00
C839   C     0.90750   0.17210   0.90856   0.00000  Uiso   1.00
C840   C     0.75653   0.17878   0.59016   0.00000  Uiso   1.00
C841   C     0.88588   0.19211   0.94974   0.00000  Uiso   1.00
C842   C     0.77045   0.18353   0.54281   0.00000  Uiso   1.00
C843   C     0.91646   0.21375   0.97081   0.00000  Uiso   1.00
C844   C     0.73744   0.17025   0.51879   0.00000  Uiso   1.00
C845   C     0.83495   0.18934   0.97142   0.00000  Uiso   1.00
C846   C     0.81770   0.19792   0.51850   0.00000  Uiso   1.00
Cu847  Cu    0.71355   0.16667   0.75000   0.00000  Uiso   1.00
Cu848  Cu    0.95311   0.16666   0.75000   0.00000  Uiso   1.00
H849   H     0.91799   0.24841   0.53022   0.00000  Uiso   1.00
H850   H     0.72695   0.16357   0.95231   0.00000  Uiso   1.00
H851   H     0.78289   0.18231   0.60898   0.00000  Uiso   1.00
H852   H     0.88668   0.15100   0.89438   0.00000  Uiso   1.00
H853   H     0.97230   0.14795   0.60787   0.00000  Uiso   1.00
H854   H     0.68994   0.20847   0.88587   0.00000  Uiso   1.00
H855   H     0.95809   0.04105   0.70374   0.00000  Uiso   1.00
H856   H     0.70854   0.29224   0.79626   0.00000  Uiso   1.00
H857   H     0.85929   0.12860   0.80837   0.00000  Uiso   1.00
H858   H     0.80748   0.20441   0.69134   0.00000  Uiso   1.00
H859   H     0.77224   0.12938   0.80885   0.00000  Uiso   1.00
H860   H     0.89447   0.20385   0.69106   0.00000  Uiso   1.00
N861   N     0.78403   0.16668   0.74999   0.00000  Uiso   1.00
N862   N     0.88264   0.16666   0.75001   0.00000  Uiso   1.00
O863   O     0.70625   0.10655   0.75000   0.00000  Uiso   1.00
O864   O     0.96042   0.22678   0.75000   0.00000  Uiso   1.00
O865   O     0.96039   0.10654   0.75000   0.00000  Uiso   1.00
O866   O     0.70628   0.22679   0.74999   0.00000  Uiso   1.00
O867   O     0.68519   0.16668   0.81491   0.00000  Uiso   1.00
O868   O     0.98148   0.16666   0.68508   0.00000  Uiso   1.00
O869   O     0.93933   0.16667   0.81492   0.00000  Uiso   1.00
O870   O     0.72733   0.16667   0.68508   0.00000  Uiso   1.00
Cl871  Cl    0.67217   0.24940   0.96957   0.00000  Uiso   1.00
Cl872  Cl    0.98066   0.13949   0.51550   0.00000  Uiso   1.00
Cl873  Cl    0.82540   0.25105   0.58842   0.00000  Uiso   1.00
Cl874  Cl    0.81002   0.18993   0.88928   0.00000  Uiso   1.00
C875   C     0.95205   0.29439   0.68823   0.00000  Uiso   1.00
C876   C     0.89650   0.29482   0.70717   0.00000  Uiso   1.00
H877   H     0.87983   0.28082   0.68225   0.00000  Uiso   1.00
H878   H     0.88263   0.32695   0.71377   0.00000  Uiso   1.00
H879   H     0.88518   0.27689   0.73925   0.00000  Uiso   1.00
H880   H     0.96236   0.31215   0.65594   0.00000  Uiso   1.00
H881   H     0.96508   0.26246   0.67898   0.00000  Uiso   1.00
C882   C     0.71494   0.03886   0.81151   0.00000  Uiso   1.00
C883   C     0.77046   0.03836   0.79226   0.00000  Uiso   1.00
H884   H     0.78736   0.05235   0.81701   0.00000  Uiso   1.00
H885   H     0.78160   0.05628   0.76016   0.00000  Uiso   1.00
H886   H     0.78426   0.00622   0.78561   0.00000  Uiso   1.00
H887   H     0.70200   0.07081   0.82080   0.00000  Uiso   1.00
H888   H     0.70481   0.02110   0.84380   0.00000  Uiso   1.00
C889   C     0.33305   0.42077   0.75159   0.00000  Uiso   1.00
C890   C     0.00028   0.57922   0.74840   0.00000  Uiso   1.00
C891   C     0.18121   0.55529   0.53830   0.00000  Uiso   1.00
C892   C     0.13343   0.51360   0.94775   0.00000  Uiso   1.00
C893   C     0.22960   0.56310   0.51426   0.00000  Uiso   1.00
C894   C     0.08571   0.50389   0.97148   0.00000  Uiso   1.00
C895   C     0.30923   0.35630   0.72436   0.00000  Uiso   1.00
C896   C     0.02408   0.64366   0.77564   0.00000  Uiso   1.00
C897   C     0.30929   0.64686   0.72141   0.00000  Uiso   1.00
C898   C     0.02410   0.35310   0.77853   0.00000  Uiso   1.00
C899   C     0.00015   0.62383   0.74781   0.00000  Uiso   1.00
C900   C     0.33319   0.37614   0.75217   0.00000  Uiso   1.00
C901   C     0.18175   0.47895   0.78244   0.00000  Uiso   1.00
C902   C     0.15163   0.52086   0.71739   0.00000  Uiso   1.00
C903   C     0.13211   0.47919   0.78260   0.00000  Uiso   1.00
C904   C     0.20125   0.52071   0.71732   0.00000  Uiso   1.00
C905   C     0.30569   0.50166   0.83630   0.00000  Uiso   1.00
C906   C     0.02755   0.49983   0.66363   0.00000  Uiso   1.00
C907   C     0.28954   0.51213   0.88469   0.00000  Uiso   1.00
C908   C     0.04234   0.50081   0.61385   0.00000  Uiso   1.00
C909   C     0.29969   0.55273   0.94743   0.00000  Uiso   1.00
C910   C     0.02326   0.49073   0.54275   0.00000  Uiso   1.00
C911   C     0.31903   0.53556   0.90445   0.00000  Uiso   1.00
C912   C     0.00902   0.49072   0.58993   0.00000  Uiso   1.00
C913   C     0.24083   0.50543   0.90856   0.00000  Uiso   1.00
C914   C     0.08986   0.51211   0.59016   0.00000  Uiso   1.00
C915   C     0.21921   0.52545   0.94974   0.00000  Uiso   1.00
C916   C     0.10378   0.51687   0.54281   0.00000  Uiso   1.00
C917   C     0.24979   0.54709   0.97081   0.00000  Uiso   1.00
C918   C     0.07077   0.50358   0.51879   0.00000  Uiso   1.00
C919   C     0.16828   0.52267   0.97142   0.00000  Uiso   1.00
C920   C     0.15103   0.53125   0.51850   0.00000  Uiso   1.00
Cu921  Cu    0.04689   0.50001   0.75000   0.00000  Uiso   1.00
Cu922  Cu    0.28645   0.49999   0.75000   0.00000  Uiso   1.00
H923   H     0.25132   0.58174   0.53022   0.00000  Uiso   1.00
H924   H     0.06028   0.49691   0.95231   0.00000  Uiso   1.00
H925   H     0.11623   0.51564   0.60898   0.00000  Uiso   1.00
H926   H     0.22002   0.48433   0.89438   0.00000  Uiso   1.00
H927   H     0.30563   0.48129   0.60787   0.00000  Uiso   1.00
H928   H     0.02327   0.54180   0.88587   0.00000  Uiso   1.00
H929   H     0.29143   0.37438   0.70374   0.00000  Uiso   1.00
H930   H     0.04188   0.62557   0.79626   0.00000  Uiso   1.00
H931   H     0.19262   0.46193   0.80837   0.00000  Uiso   1.00
H932   H     0.14081   0.53775   0.69134   0.00000  Uiso   1.00
H933   H     0.10557   0.46271   0.80885   0.00000  Uiso   1.00
H934   H     0.22780   0.53718   0.69106   0.00000  Uiso   1.00
N935   N     0.11736   0.50001   0.74999   0.00000  Uiso   1.00
N936   N     0.21597   0.49999   0.75001   0.00000  Uiso   1.00
O937   O     0.03958   0.43989   0.75000   0.00000  Uiso   1.00
O938   O     0.29375   0.56011   0.75000   0.00000  Uiso   1.00
O939   O     0.29372   0.43988   0.75000   0.00000  Uiso   1.00
O940   O     0.03961   0.56012   0.74999   0.00000  Uiso   1.00
O941   O     0.01852   0.50001   0.81491   0.00000  Uiso   1.00
O942   O     0.31481   0.49999   0.68508   0.00000  Uiso   1.00
O943   O     0.27267   0.50000   0.81492   0.00000  Uiso   1.00
O944   O     0.06067   0.50000   0.68508   0.00000  Uiso   1.00
Cl945  Cl    0.00550   0.58274   0.96957   0.00000  Uiso   1.00
Cl946  Cl    0.31399   0.47283   0.51550   0.00000  Uiso   1.00
Cl947  Cl    0.15873   0.58438   0.58842   0.00000  Uiso   1.00
Cl948  Cl    0.14335   0.52326   0.88928   0.00000  Uiso   1.00
C949   C     0.28538   0.62773   0.68823   0.00000  Uiso   1.00
C950   C     0.22983   0.62816   0.70717   0.00000  Uiso   1.00
H951   H     0.21317   0.61415   0.68225   0.00000  Uiso   1.00
H952   H     0.21596   0.66028   0.71377   0.00000  Uiso   1.00
H953   H     0.21851   0.61023   0.73925   0.00000  Uiso   1.00
H954   H     0.29570   0.64548   0.65594   0.00000  Uiso   1.00
H955   H     0.29841   0.59579   0.67898   0.00000  Uiso   1.00
C956   C     0.04828   0.37219   0.81151   0.00000  Uiso   1.00
C957   C     0.10379   0.37170   0.79226   0.00000  Uiso   1.00
H958   H     0.12069   0.38569   0.81701   0.00000  Uiso   1.00
H959   H     0.11494   0.38961   0.76016   0.00000  Uiso   1.00
H960   H     0.11759   0.33955   0.78561   0.00000  Uiso   1.00
H961   H     0.03533   0.40414   0.82080   0.00000  Uiso   1.00
H962   H     0.03814   0.35444   0.84380   0.00000  Uiso   1.00
C963   C     0.66639   0.42077   0.75159   0.00000  Uiso   1.00
C964   C     0.33361   0.57922   0.74840   0.00000  Uiso   1.00
C965   C     0.51454   0.55529   0.53830   0.00000  Uiso   1.00
C966   C     0.46677   0.51360   0.94775   0.00000  Uiso   1.00
C967   C     0.56294   0.56310   0.51426   0.00000  Uiso   1.00
C968   C     0.41905   0.50389   0.97148   0.00000  Uiso   1.00
C969   C     0.64257   0.35630   0.72436   0.00000  Uiso   1.00
C970   C     0.35741   0.64366   0.77564   0.00000  Uiso   1.00
C971   C     0.64262   0.64686   0.72141   0.00000  Uiso   1.00
C972   C     0.35743   0.35310   0.77853   0.00000  Uiso   1.00
C973   C     0.33348   0.62383   0.74781   0.00000  Uiso   1.00
C974   C     0.66652   0.37614   0.75217   0.00000  Uiso   1.00
C975   C     0.51509   0.47895   0.78244   0.00000  Uiso   1.00
C976   C     0.48497   0.52086   0.71739   0.00000  Uiso   1.00
C977   C     0.46544   0.47919   0.78260   0.00000  Uiso   1.00
C978   C     0.53459   0.52071   0.71732   0.00000  Uiso   1.00
C979   C     0.63902   0.50166   0.83630   0.00000  Uiso   1.00
C980   C     0.36088   0.49983   0.66363   0.00000  Uiso   1.00
C981   C     0.62288   0.51213   0.88469   0.00000  Uiso   1.00
C982   C     0.37567   0.50081   0.61385   0.00000  Uiso   1.00
C983   C     0.63303   0.55273   0.94743   0.00000  Uiso   1.00
C984   C     0.35659   0.49073   0.54275   0.00000  Uiso   1.00
C985   C     0.65237   0.53556   0.90445   0.00000  Uiso   1.00
C986   C     0.34236   0.49072   0.58993   0.00000  Uiso   1.00
C987   C     0.57416   0.50543   0.90856   0.00000  Uiso   1.00
C988   C     0.42319   0.51211   0.59016   0.00000  Uiso   1.00
C989   C     0.55255   0.52545   0.94974   0.00000  Uiso   1.00
C990   C     0.43711   0.51687   0.54281   0.00000  Uiso   1.00
C991   C     0.58312   0.54709   0.97081   0.00000  Uiso   1.00
C992   C     0.40411   0.50358   0.51879   0.00000  Uiso   1.00
C993   C     0.50161   0.52267   0.97142   0.00000  Uiso   1.00
C994   C     0.48437   0.53125   0.51850   0.00000  Uiso   1.00
Cu995  Cu    0.38022   0.50001   0.75000   0.00000  Uiso   1.00
Cu996  Cu    0.61978   0.49999   0.75000   0.00000  Uiso   1.00
H997   H     0.58466   0.58174   0.53022   0.00000  Uiso   1.00
H998   H     0.39362   0.49691   0.95231   0.00000  Uiso   1.00
H999   H     0.44956   0.51564   0.60898   0.00000  Uiso   1.00
H1000  H     0.55335   0.48433   0.89438   0.00000  Uiso   1.00
H1001  H     0.63897   0.48129   0.60787   0.00000  Uiso   1.00
H1002  H     0.35660   0.54180   0.88587   0.00000  Uiso   1.00
H1003  H     0.62476   0.37438   0.70374   0.00000  Uiso   1.00
H1004  H     0.37521   0.62557   0.79626   0.00000  Uiso   1.00
H1005  H     0.52596   0.46193   0.80837   0.00000  Uiso   1.00
H1006  H     0.47414   0.53775   0.69134   0.00000  Uiso   1.00
H1007  H     0.43891   0.46271   0.80885   0.00000  Uiso   1.00
H1008  H     0.56113   0.53718   0.69106   0.00000  Uiso   1.00
N1009  N     0.45069   0.50001   0.74999   0.00000  Uiso   1.00
N1010  N     0.54931   0.49999   0.75001   0.00000  Uiso   1.00
O1011  O     0.37291   0.43989   0.75000   0.00000  Uiso   1.00
O1012  O     0.62709   0.56011   0.75000   0.00000  Uiso   1.00
O1013  O     0.62706   0.43988   0.75000   0.00000  Uiso   1.00
O1014  O     0.37294   0.56012   0.74999   0.00000  Uiso   1.00
O1015  O     0.35186   0.50001   0.81491   0.00000  Uiso   1.00
O1016  O     0.64814   0.49999   0.68508   0.00000  Uiso   1.00
O1017  O     0.60600   0.50000   0.81492   0.00000  Uiso   1.00
O1018  O     0.39400   0.50000   0.68508   0.00000  Uiso   1.00
Cl1019 Cl    0.33883   0.58274   0.96957   0.00000  Uiso   1.00
Cl1020 Cl    0.64732   0.47283   0.51550   0.00000  Uiso   1.00
Cl1021 Cl    0.49207   0.58438   0.58842   0.00000  Uiso   1.00
Cl1022 Cl    0.47669   0.52326   0.88928   0.00000  Uiso   1.00
C1023  C     0.61872   0.62773   0.68823   0.00000  Uiso   1.00
C1024  C     0.56317   0.62816   0.70717   0.00000  Uiso   1.00
H1025  H     0.54650   0.61415   0.68225   0.00000  Uiso   1.00
H1026  H     0.54929   0.66028   0.71377   0.00000  Uiso   1.00
H1027  H     0.55185   0.61023   0.73925   0.00000  Uiso   1.00
H1028  H     0.62903   0.64548   0.65594   0.00000  Uiso   1.00
H1029  H     0.63174   0.59579   0.67898   0.00000  Uiso   1.00
C1030  C     0.38161   0.37219   0.81151   0.00000  Uiso   1.00
C1031  C     0.43713   0.37170   0.79226   0.00000  Uiso   1.00
H1032  H     0.45403   0.38569   0.81701   0.00000  Uiso   1.00
H1033  H     0.44827   0.38961   0.76016   0.00000  Uiso   1.00
H1034  H     0.45093   0.33955   0.78561   0.00000  Uiso   1.00
H1035  H     0.36867   0.40414   0.82080   0.00000  Uiso   1.00
H1036  H     0.37147   0.35444   0.84380   0.00000  Uiso   1.00
C1037  C     0.99972   0.42077   0.75159   0.00000  Uiso   1.00
C1038  C     0.66695   0.57922   0.74840   0.00000  Uiso   1.00
C1039  C     0.84788   0.55529   0.53830   0.00000  Uiso   1.00
C1040  C     0.80010   0.51360   0.94775   0.00000  Uiso   1.00
C1041  C     0.89627   0.56310   0.51426   0.00000  Uiso   1.00
C1042  C     0.75238   0.50389   0.97148   0.00000  Uiso   1.00
C1043  C     0.97590   0.35630   0.72436   0.00000  Uiso   1.00
C1044  C     0.69075   0.64366   0.77564   0.00000  Uiso   1.00
C1045  C     0.97596   0.64686   0.72141   0.00000  Uiso   1.00
C1046  C     0.69077   0.35310   0.77853   0.00000  Uiso   1.00
C1047  C     0.66682   0.62383   0.74781   0.00000  Uiso   1.00
C1048  C     0.99985   0.37614   0.75217   0.00000  Uiso   1.00
C1049  C     0.84842   0.47895   0.78244   0.00000  Uiso   1.00
C1050  C     0.81830   0.52086   0.71739   0.00000  Uiso   1.00
C1051  C     0.79877   0.47919   0.78260   0.00000  Uiso   1.00
C1052  C     0.86792   0.52071   0.71732   0.00000  Uiso   1.00
C1053  C     0.97236   0.50166   0.83630   0.00000  Uiso   1.00
C1054  C     0.69421   0.49983   0.66363   0.00000  Uiso   1.00
C1055  C     0.95621   0.51213   0.88469   0.00000  Uiso   1.00
C1056  C     0.70900   0.50081   0.61385   0.00000  Uiso   1.00
C1057  C     0.96636   0.55273   0.94743   0.00000  Uiso   1.00
C1058  C     0.68993   0.49073   0.54275   0.00000  Uiso   1.00
C1059  C     0.98570   0.53556   0.90445   0.00000  Uiso   1.00
C1060  C     0.67569   0.49072   0.58993   0.00000  Uiso   1.00
C1061  C     0.90750   0.50543   0.90856   0.00000  Uiso   1.00
C1062  C     0.75653   0.51211   0.59016   0.00000  Uiso   1.00
C1063  C     0.88588   0.52545   0.94974   0.00000  Uiso   1.00
C1064  C     0.77045   0.51687   0.54281   0.00000  Uiso   1.00
C1065  C     0.91646   0.54709   0.97081   0.00000  Uiso   1.00
C1066  C     0.73744   0.50358   0.51879   0.00000  Uiso   1.00
C1067  C     0.83495   0.52267   0.97142   0.00000  Uiso   1.00
C1068  C     0.81770   0.53125   0.51850   0.00000  Uiso   1.00
Cu1069 Cu    0.71355   0.50001   0.75000   0.00000  Uiso   1.00
Cu1070 Cu    0.95311   0.49999   0.75000   0.00000  Uiso   1.00
H1071  H     0.91799   0.58174   0.53022   0.00000  Uiso   1.00
H1072  H     0.72695   0.49691   0.95231   0.00000  Uiso   1.00
H1073  H     0.78289   0.51564   0.60898   0.00000  Uiso   1.00
H1074  H     0.88668   0.48433   0.89438   0.00000  Uiso   1.00
H1075  H     0.97230   0.48129   0.60787   0.00000  Uiso   1.00
H1076  H     0.68994   0.54180   0.88587   0.00000  Uiso   1.00
H1077  H     0.95809   0.37438   0.70374   0.00000  Uiso   1.00
H1078  H     0.70854   0.62557   0.79626   0.00000  Uiso   1.00
H1079  H     0.85929   0.46193   0.80837   0.00000  Uiso   1.00
H1080  H     0.80748   0.53775   0.69134   0.00000  Uiso   1.00
H1081  H     0.77224   0.46271   0.80885   0.00000  Uiso   1.00
H1082  H     0.89447   0.53718   0.69106   0.00000  Uiso   1.00
N1083  N     0.78403   0.50001   0.74999   0.00000  Uiso   1.00
N1084  N     0.88264   0.49999   0.75001   0.00000  Uiso   1.00
O1085  O     0.70625   0.43989   0.75000   0.00000  Uiso   1.00
O1086  O     0.96042   0.56011   0.75000   0.00000  Uiso   1.00
O1087  O     0.96039   0.43988   0.75000   0.00000  Uiso   1.00
O1088  O     0.70628   0.56012   0.74999   0.00000  Uiso   1.00
O1089  O     0.68519   0.50001   0.81491   0.00000  Uiso   1.00
O1090  O     0.98148   0.49999   0.68508   0.00000  Uiso   1.00
O1091  O     0.93933   0.50000   0.81492   0.00000  Uiso   1.00
O1092  O     0.72733   0.50000   0.68508   0.00000  Uiso   1.00
Cl1093 Cl    0.67217   0.58274   0.96957   0.00000  Uiso   1.00
Cl1094 Cl    0.98066   0.47283   0.51550   0.00000  Uiso   1.00
Cl1095 Cl    0.82540   0.58438   0.58842   0.00000  Uiso   1.00
Cl1096 Cl    0.81002   0.52326   0.88928   0.00000  Uiso   1.00
C1097  C     0.95205   0.62773   0.68823   0.00000  Uiso   1.00
C1098  C     0.89650   0.62816   0.70717   0.00000  Uiso   1.00
H1099  H     0.87983   0.61415   0.68225   0.00000  Uiso   1.00
H1100  H     0.88263   0.66028   0.71377   0.00000  Uiso   1.00
H1101  H     0.88518   0.61023   0.73925   0.00000  Uiso   1.00
H1102  H     0.96236   0.64548   0.65594   0.00000  Uiso   1.00
H1103  H     0.96508   0.59579   0.67898   0.00000  Uiso   1.00
C1104  C     0.71494   0.37219   0.81151   0.00000  Uiso   1.00
C1105  C     0.77046   0.37170   0.79226   0.00000  Uiso   1.00
H1106  H     0.78736   0.38569   0.81701   0.00000  Uiso   1.00
H1107  H     0.78160   0.38961   0.76016   0.00000  Uiso   1.00
H1108  H     0.78426   0.33955   0.78561   0.00000  Uiso   1.00
H1109  H     0.70200   0.40414   0.82080   0.00000  Uiso   1.00
H1110  H     0.70481   0.35444   0.84380   0.00000  Uiso   1.00
C1111  C     0.33305   0.75410   0.75159   0.00000  Uiso   1.00
C1112  C     0.00028   0.91255   0.74840   0.00000  Uiso   1.00
C1113  C     0.18121   0.88862   0.53830   0.00000  Uiso   1.00
C1114  C     0.13343   0.84693   0.94775   0.00000  Uiso   1.00
C1115  C     0.22960   0.89643   0.51426   0.00000  Uiso   1.00
C1116  C     0.08571   0.83722   0.97148   0.00000  Uiso   1.00
C1117  C     0.30923   0.68963   0.72436   0.00000  Uiso   1.00
C1118  C     0.02408   0.97699   0.77564   0.00000  Uiso   1.00
C1119  C     0.30929   0.98019   0.72141   0.00000  Uiso   1.00
C1120  C     0.02410   0.68643   0.77853   0.00000  Uiso   1.00
C1121  C     0.00015   0.95717   0.74781   0.00000  Uiso   1.00
C1122  C     0.33319   0.70947   0.75217   0.00000  Uiso   1.00
C1123  C     0.18175   0.81228   0.78244   0.00000  Uiso   1.00
C1124  C     0.15163   0.85419   0.71739   0.00000  Uiso   1.00
C1125  C     0.13211   0.81253   0.78260   0.00000  Uiso   1.00
C1126  C     0.20125   0.85405   0.71732   0.00000  Uiso   1.00
C1127  C     0.30569   0.83499   0.83630   0.00000  Uiso   1.00
C1128  C     0.02755   0.83316   0.66363   0.00000  Uiso   1.00
C1129  C     0.28954   0.84547   0.88469   0.00000  Uiso   1.00
C1130  C     0.04234   0.83414   0.61385   0.00000  Uiso   1.00
C1131  C     0.29969   0.88607   0.94743   0.00000  Uiso   1.00
C1132  C     0.02326   0.82407   0.54275   0.00000  Uiso   1.00
C1133  C     0.31903   0.86889   0.90445   0.00000  Uiso   1.00
C1134  C     0.00902   0.82406   0.58993   0.00000  Uiso   1.00
C1135  C     0.24083   0.83877   0.90856   0.00000  Uiso   1.00
C1136  C     0.08986   0.84545   0.59016   0.00000  Uiso   1.00
C1137  C     0.21921   0.85878   0.94974   0.00000  Uiso   1.00
C1138  C     0.10378   0.85020   0.54281   0.00000  Uiso   1.00
C1139  C     0.24979   0.88042   0.97081   0.00000  Uiso   1.00
C1140  C     0.07077   0.83691   0.51879   0.00000  Uiso   1.00
C1141  C     0.16828   0.85601   0.97142   0.00000  Uiso   1.00
C1142  C     0.15103   0.86459   0.51850   0.00000  Uiso   1.00
Cu1143 Cu    0.04689   0.83334   0.75000   0.00000  Uiso   1.00
Cu1144 Cu    0.28645   0.83333   0.75000   0.00000  Uiso   1.00
H1145  H     0.25132   0.91507   0.53022   0.00000  Uiso   1.00
H1146  H     0.06028   0.83024   0.95231   0.00000  Uiso   1.00
H1147  H     0.11623   0.84898   0.60898   0.00000  Uiso   1.00
H1148  H     0.22002   0.81766   0.89438   0.00000  Uiso   1.00
H1149  H     0.30563   0.81462   0.60787   0.00000  Uiso   1.00
H1150  H     0.02327   0.87513   0.88587   0.00000  Uiso   1.00
H1151  H     0.29143   0.70772   0.70374   0.00000  Uiso   1.00
H1152  H     0.04188   0.95890   0.79626   0.00000  Uiso   1.00
H1153  H     0.19262   0.79527   0.80837   0.00000  Uiso   1.00
H1154  H     0.14081   0.87108   0.69134   0.00000  Uiso   1.00
H1155  H     0.10557   0.79604   0.80885   0.00000  Uiso   1.00
H1156  H     0.22780   0.87051   0.69106   0.00000  Uiso   1.00
N1157  N     0.11736   0.83334   0.74999   0.00000  Uiso   1.00
N1158  N     0.21597   0.83332   0.75001   0.00000  Uiso   1.00
O1159  O     0.03958   0.77322   0.75000   0.00000  Uiso   1.00
O1160  O     0.29375   0.89345   0.75000   0.00000  Uiso   1.00
O1161  O     0.29372   0.77321   0.75000   0.00000  Uiso   1.00
O1162  O     0.03961   0.89346   0.74999   0.00000  Uiso   1.00
O1163  O     0.01852   0.83334   0.81491   0.00000  Uiso   1.00
O1164  O     0.31481   0.83332   0.68508   0.00000  Uiso   1.00
O1165  O     0.27267   0.83333   0.81492   0.00000  Uiso   1.00
O1166  O     0.06067   0.83333   0.68508   0.00000  Uiso   1.00
Cl1167 Cl    0.00550   0.91607   0.96957   0.00000  Uiso   1.00
Cl1168 Cl    0.31399   0.80616   0.51550   0.00000  Uiso   1.00
Cl1169 Cl    0.15873   0.91771   0.58842   0.00000  Uiso   1.00
Cl1170 Cl    0.14335   0.85660   0.88928   0.00000  Uiso   1.00
C1171  C     0.28538   0.96106   0.68823   0.00000  Uiso   1.00
C1172  C     0.22983   0.96149   0.70717   0.00000  Uiso   1.00
H1173  H     0.21317   0.94748   0.68225   0.00000  Uiso   1.00
H1174  H     0.21596   0.99362   0.71377   0.00000  Uiso   1.00
H1175  H     0.21851   0.94356   0.73925   0.00000  Uiso   1.00
H1176  H     0.29570   0.97882   0.65594   0.00000  Uiso   1.00
H1177  H     0.29841   0.92912   0.67898   0.00000  Uiso   1.00
C1178  C     0.04828   0.70553   0.81151   0.00000  Uiso   1.00
C1179  C     0.10379   0.70503   0.79226   0.00000  Uiso   1.00
H1180  H     0.12069   0.71902   0.81701   0.00000  Uiso   1.00
H1181  H     0.11494   0.72294   0.76016   0.00000  Uiso   1.00
H1182  H     0.11759   0.67289   0.78561   0.00000  Uiso   1.00
H1183  H     0.03533   0.73747   0.82080   0.00000  Uiso   1.00
H1184  H     0.03814   0.68777   0.84380   0.00000  Uiso   1.00
C1185  C     0.66639   0.75410   0.75159   0.00000  Uiso   1.00
C1186  C     0.33361   0.91255   0.74840   0.00000  Uiso   1.00
C1187  C     0.51454   0.88862   0.53830   0.00000  Uiso   1.00
C1188  C     0.46677   0.84693   0.94775   0.00000  Uiso   1.00
C1189  C     0.56294   0.89643   0.51426   0.00000  Uiso   1.00
C1190  C     0.41905   0.83722   0.97148   0.00000  Uiso   1.00
C1191  C     0.64257   0.68963   0.72436   0.00000  Uiso   1.00
C1192  C     0.35741   0.97699   0.77564   0.00000  Uiso   1.00
C1193  C     0.64262   0.98019   0.72141   0.00000  Uiso   1.00
C1194  C     0.35743   0.68643   0.77853   0.00000  Uiso   1.00
C1195  C     0.33348   0.95717   0.74781   0.00000  Uiso   1.00
C1196  C     0.66652   0.70947   0.75217   0.00000  Uiso   1.00
C1197  C     0.51509   0.81228   0.78244   0.00000  Uiso   1.00
C1198  C     0.48497   0.85419   0.71739   0.00000  Uiso   1.00
C1199  C     0.46544   0.81253   0.78260   0.00000  Uiso   1.00
C1200  C     0.53459   0.85405   0.71732   0.00000  Uiso   1.00
C1201  C     0.63902   0.83499   0.83630   0.00000  Uiso   1.00
C1202  C     0.36088   0.83316   0.66363   0.00000  Uiso   1.00
C1203  C     0.62288   0.84547   0.88469   0.00000  Uiso   1.00
C1204  C     0.37567   0.83414   0.61385   0.00000  Uiso   1.00
C1205  C     0.63303   0.88607   0.94743   0.00000  Uiso   1.00
C1206  C     0.35659   0.82407   0.54275   0.00000  Uiso   1.00
C1207  C     0.65237   0.86889   0.90445   0.00000  Uiso   1.00
C1208  C     0.34236   0.82406   0.58993   0.00000  Uiso   1.00
C1209  C     0.57416   0.83877   0.90856   0.00000  Uiso   1.00
C1210  C     0.42319   0.84545   0.59016   0.00000  Uiso   1.00
C1211  C     0.55255   0.85878   0.94974   0.00000  Uiso   1.00
C1212  C     0.43711   0.85020   0.54281   0.00000  Uiso   1.00
C1213  C     0.58312   0.88042   0.97081   0.00000  Uiso   1.00
C1214  C     0.40411   0.83691   0.51879   0.00000  Uiso   1.00
C1215  C     0.50161   0.85601   0.97142   0.00000  Uiso   1.00
C1216  C     0.48437   0.86459   0.51850   0.00000  Uiso   1.00
Cu1217 Cu    0.38022   0.83334   0.75000   0.00000  Uiso   1.00
Cu1218 Cu    0.61978   0.83333   0.75000   0.00000  Uiso   1.00
H1219  H     0.58466   0.91507   0.53022   0.00000  Uiso   1.00
H1220  H     0.39362   0.83024   0.95231   0.00000  Uiso   1.00
H1221  H     0.44956   0.84898   0.60898   0.00000  Uiso   1.00
H1222  H     0.55335   0.81766   0.89438   0.00000  Uiso   1.00
H1223  H     0.63897   0.81462   0.60787   0.00000  Uiso   1.00
H1224  H     0.35660   0.87513   0.88587   0.00000  Uiso   1.00
H1225  H     0.62476   0.70772   0.70374   0.00000  Uiso   1.00
H1226  H     0.37521   0.95890   0.79626   0.00000  Uiso   1.00
H1227  H     0.52596   0.79527   0.80837   0.00000  Uiso   1.00
H1228  H     0.47414   0.87108   0.69134   0.00000  Uiso   1.00
H1229  H     0.43891   0.79604   0.80885   0.00000  Uiso   1.00
H1230  H     0.56113   0.87051   0.69106   0.00000  Uiso   1.00
N1231  N     0.45069   0.83334   0.74999   0.00000  Uiso   1.00
N1232  N     0.54931   0.83332   0.75001   0.00000  Uiso   1.00
O1233  O     0.37291   0.77322   0.75000   0.00000  Uiso   1.00
O1234  O     0.62709   0.89345   0.75000   0.00000  Uiso   1.00
O1235  O     0.62706   0.77321   0.75000   0.00000  Uiso   1.00
O1236  O     0.37294   0.89346   0.74999   0.00000  Uiso   1.00
O1237  O     0.35186   0.83334   0.81491   0.00000  Uiso   1.00
O1238  O     0.64814   0.83332   0.68508   0.00000  Uiso   1.00
O1239  O     0.60600   0.83333   0.81492   0.00000  Uiso   1.00
O1240  O     0.39400   0.83333   0.68508   0.00000  Uiso   1.00
Cl1241 Cl    0.33883   0.91607   0.96957   0.00000  Uiso   1.00
Cl1242 Cl    0.64732   0.80616   0.51550   0.00000  Uiso   1.00
Cl1243 Cl    0.49207   0.91771   0.58842   0.00000  Uiso   1.00
Cl1244 Cl    0.47669   0.85660   0.88928   0.00000  Uiso   1.00
C1245  C     0.61872   0.96106   0.68823   0.00000  Uiso   1.00
C1246  C     0.56317   0.96149   0.70717   0.00000  Uiso   1.00
H1247  H     0.54650   0.94748   0.68225   0.00000  Uiso   1.00
H1248  H     0.54929   0.99362   0.71377   0.00000  Uiso   1.00
H1249  H     0.55185   0.94356   0.73925   0.00000  Uiso   1.00
H1250  H     0.62903   0.97882   0.65594   0.00000  Uiso   1.00
H1251  H     0.63174   0.92912   0.67898   0.00000  Uiso   1.00
C1252  C     0.38161   0.70553   0.81151   0.00000  Uiso   1.00
C1253  C     0.43713   0.70503   0.79226   0.00000  Uiso   1.00
H1254  H     0.45403   0.71902   0.81701   0.00000  Uiso   1.00
H1255  H     0.44827   0.72294   0.76016   0.00000  Uiso   1.00
H1256  H     0.45093   0.67289   0.78561   0.00000  Uiso   1.00
H1257  H     0.36867   0.73747   0.82080   0.00000  Uiso   1.00
H1258  H     0.37147   0.68777   0.84380   0.00000  Uiso   1.00
C1259  C     0.99972   0.75410   0.75159   0.00000  Uiso   1.00
C1260  C     0.66695   0.91255   0.74840   0.00000  Uiso   1.00
C1261  C     0.84788   0.88862   0.53830   0.00000  Uiso   1.00
C1262  C     0.80010   0.84693   0.94775   0.00000  Uiso   1.00
C1263  C     0.89627   0.89643   0.51426   0.00000  Uiso   1.00
C1264  C     0.75238   0.83722   0.97148   0.00000  Uiso   1.00
C1265  C     0.97590   0.68963   0.72436   0.00000  Uiso   1.00
C1266  C     0.69075   0.97699   0.77564   0.00000  Uiso   1.00
C1267  C     0.97596   0.98019   0.72141   0.00000  Uiso   1.00
C1268  C     0.69077   0.68643   0.77853   0.00000  Uiso   1.00
C1269  C     0.66682   0.95717   0.74781   0.00000  Uiso   1.00
C1270  C     0.99985   0.70947   0.75217   0.00000  Uiso   1.00
C1271  C     0.84842   0.81228   0.78244   0.00000  Uiso   1.00
C1272  C     0.81830   0.85419   0.71739   0.00000  Uiso   1.00
C1273  C     0.79877   0.81253   0.78260   0.00000  Uiso   1.00
C1274  C     0.86792   0.85405   0.71732   0.00000  Uiso   1.00
C1275  C     0.97236   0.83499   0.83630   0.00000  Uiso   1.00
C1276  C     0.69421   0.83316   0.66363   0.00000  Uiso   1.00
C1277  C     0.95621   0.84547   0.88469   0.00000  Uiso   1.00
C1278  C     0.70900   0.83414   0.61385   0.00000  Uiso   1.00
C1279  C     0.96636   0.88607   0.94743   0.00000  Uiso   1.00
C1280  C     0.68993   0.82407   0.54275   0.00000  Uiso   1.00
C1281  C     0.98570   0.86889   0.90445   0.00000  Uiso   1.00
C1282  C     0.67569   0.82406   0.58993   0.00000  Uiso   1.00
C1283  C     0.90750   0.83877   0.90856   0.00000  Uiso   1.00
C1284  C     0.75653   0.84545   0.59016   0.00000  Uiso   1.00
C1285  C     0.88588   0.85878   0.94974   0.00000  Uiso   1.00
C1286  C     0.77045   0.85020   0.54281   0.00000  Uiso   1.00
C1287  C     0.91646   0.88042   0.97081   0.00000  Uiso   1.00
C1288  C     0.73744   0.83691   0.51879   0.00000  Uiso   1.00
C1289  C     0.83495   0.85601   0.97142   0.00000  Uiso   1.00
C1290  C     0.81770   0.86459   0.51850   0.00000  Uiso   1.00
Cu1291 Cu    0.71355   0.83334   0.75000   0.00000  Uiso   1.00
Cu1292 Cu    0.95311   0.83333   0.75000   0.00000  Uiso   1.00
H1293  H     0.91799   0.91507   0.53022   0.00000  Uiso   1.00
H1294  H     0.72695   0.83024   0.95231   0.00000  Uiso   1.00
H1295  H     0.78289   0.84898   0.60898   0.00000  Uiso   1.00
H1296  H     0.88668   0.81766   0.89438   0.00000  Uiso   1.00
H1297  H     0.97230   0.81462   0.60787   0.00000  Uiso   1.00
H1298  H     0.68994   0.87513   0.88587   0.00000  Uiso   1.00
H1299  H     0.95809   0.70772   0.70374   0.00000  Uiso   1.00
H1300  H     0.70854   0.95890   0.79626   0.00000  Uiso   1.00
H1301  H     0.85929   0.79527   0.80837   0.00000  Uiso   1.00
H1302  H     0.80748   0.87108   0.69134   0.00000  Uiso   1.00
H1303  H     0.77224   0.79604   0.80885   0.00000  Uiso   1.00
H1304  H     0.89447   0.87051   0.69106   0.00000  Uiso   1.00
N1305  N     0.78403   0.83334   0.74999   0.00000  Uiso   1.00
N1306  N     0.88264   0.83332   0.75001   0.00000  Uiso   1.00
O1307  O     0.70625   0.77322   0.75000   0.00000  Uiso   1.00
O1308  O     0.96042   0.89345   0.75000   0.00000  Uiso   1.00
O1309  O     0.96039   0.77321   0.75000   0.00000  Uiso   1.00
O1310  O     0.70628   0.89346   0.74999   0.00000  Uiso   1.00
O1311  O     0.68519   0.83334   0.81491   0.00000  Uiso   1.00
O1312  O     0.98148   0.83332   0.68508   0.00000  Uiso   1.00
O1313  O     0.93933   0.83333   0.81492   0.00000  Uiso   1.00
O1314  O     0.72733   0.83333   0.68508   0.00000  Uiso   1.00
Cl1315 Cl    0.67217   0.91607   0.96957   0.00000  Uiso   1.00
Cl1316 Cl    0.98066   0.80616   0.51550   0.00000  Uiso   1.00
Cl1317 Cl    0.82540   0.91771   0.58842   0.00000  Uiso   1.00
Cl1318 Cl    0.81002   0.85660   0.88928   0.00000  Uiso   1.00
C1319  C     0.95205   0.96106   0.68823   0.00000  Uiso   1.00
C1320  C     0.89650   0.96149   0.70717   0.00000  Uiso   1.00
H1321  H     0.87983   0.94748   0.68225   0.00000  Uiso   1.00
H1322  H     0.88263   0.99362   0.71377   0.00000  Uiso   1.00
H1323  H     0.88518   0.94356   0.73925   0.00000  Uiso   1.00
H1324  H     0.96236   0.97882   0.65594   0.00000  Uiso   1.00
H1325  H     0.96508   0.92912   0.67898   0.00000  Uiso   1.00
C1326  C     0.71494   0.70553   0.81151   0.00000  Uiso   1.00
C1327  C     0.77046   0.70503   0.79226   0.00000  Uiso   1.00
H1328  H     0.78736   0.71902   0.81701   0.00000  Uiso   1.00
H1329  H     0.78160   0.72294   0.76016   0.00000  Uiso   1.00
H1330  H     0.78426   0.67289   0.78561   0.00000  Uiso   1.00
H1331  H     0.70200   0.73747   0.82080   0.00000  Uiso   1.00
H1332  H     0.70481   0.68777   0.84380   0.00000  Uiso   1.00
loop_
_geom_bond_atom_site_label_1
_geom_bond_atom_site_label_2
_geom_bond_distance
_geom_bond_site_symmetry_2
_ccdc_geom_bond_type
C1     C12     1.447   .     S
C1     O51     1.291   .     A
C1     O123    1.288   .     S
C2     C11     1.447   .     S
C2     O52     1.291   .     A
C2     O198    1.288   1_455 S
C3     C5      1.395   .     A
C3     C32     1.425   .     A
C3     Cl59    1.768   .     S
C4     C6      1.390   .     A
C4     Cl60    1.767   .     S
C4     C31     1.422   .     A
C5     H35     1.082   .     S
C5     C695    1.399   1_554 S
C6     H36     1.082   .     S
C6     C696    1.397   .     S
C7     C12     1.398   .     A
C7     H41     1.085   .     S
C7     C453    1.391   1_545 S
C8     H42     1.085   .     S
C8     C11     1.398   .     A
C8     C232    1.390   .     S
C9     C61     1.516   .     S
C9     C229    1.391   .     S
C9     C85     1.413   .     S
C10    C68     1.516   .     S
C10    C452    1.390   1_545 S
C10    C160    1.413   1_455 S
C11    C157    1.413   1_455 S
C12    C84     1.413   .     S
C13    C15     1.416   .     A
C13    H43     1.081   .     S
C13    N48     1.367   .     A
C14    C16     1.416   .     A
C14    H44     1.082   .     S
C14    N47     1.368   .     A
C15    N47     1.366   .     A
C15    H45     1.081   .     S
C16    N48     1.366   .     A
C16    H46     1.081   .     S
C17    O55     1.294   .     A
C17    C19     1.470   .     S
C17    O127    1.297   .     S
C18    O56     1.297   .     A
C18    C20     1.469   .     S
C18    O202    1.294   1_455 S
C19    C23     1.399   .     A
C19    C25     1.395   .     A
C20    C24     1.398   .     A
C20    C26     1.398   .     A
C21    C29     1.416   .     A
C21    C23     1.398   .     A
C21    Cl131   1.764   .     S
C22    C24     1.392   .     A
C22    C30     1.413   .     A
C22    Cl206   1.763   1_455 S
C23    H114    1.084   .     S
C24    H187    1.084   1_455 S
C25    H38     1.080   .     S
C25    C27     1.403   .     A
C26    H37     1.078   .     S
C26    C28     1.406   .     A
C27    C29     1.417   .     A
C27    C31     1.422   .     A
C28    C32     1.426   .     A
C28    C30     1.422   .     A
C29    C671    1.399   .     S
C30    C672    1.397   1_554 S
C31    C698    1.421   .     S
C32    C697    1.421   1_554 S
Cu33   O52     1.959   .     S
Cu33   O56     1.924   .     S
Cu33   O53     1.932   .     S
Cu33   N47     2.012   .     S
Cu33   O49     1.962   .     S
Cu33   Cu182   2.677   1_455 S
Cu34   O51     1.959   .     S
Cu34   O55     1.924   .     S
Cu34   O50     1.962   .     S
Cu34   O54     1.932   .     S
Cu34   N48     2.012   .     S
Cu34   Cu107   2.677   .     S
H39    C98     1.084   .     S
H40    C171    1.084   1_455 S
O49    C149    1.288   1_455 S
O50    C76     1.288   .     S
O53    C165    1.297   1_455 S
O54    C92     1.294   .     S
Cl57   C169    1.764   1_455 S
Cl58   C96     1.763   .     S
C61    H66     1.112   .     S
C61    C62     1.527   .     S
C61    H67     1.109   .     S
C62    H64     1.111   .     S
C62    H63     1.110   .     S
C62    H65     1.111   .     S
C68    H74     1.112   .     S
C68    C69     1.527   .     S
C68    H73     1.109   .     S
C69    H71     1.111   .     S
C69    H70     1.110   .     S
C69    H72     1.111   .     S
C75    C86     1.447   .     S
C75    O125    1.291   .     A
C75    O197    1.288   .     S
C76    C85     1.447   .     S
C76    O126    1.291   .     A
C77    C79     1.395   .     A
C77    C106    1.425   .     A
C77    Cl133   1.768   .     S
C78    C80     1.390   .     A
C78    Cl134   1.767   .     S
C78    C105    1.422   .     A
C79    H109    1.082   .     S
C79    C769    1.399   1_554 S
C80    H110    1.082   .     S
C80    C770    1.397   .     S
C81    C86     1.398   .     A
C81    H115    1.085   .     S
C81    C527    1.391   1_545 S
C82    H116    1.085   .     S
C82    C85     1.398   .     A
C82    C306    1.390   .     S
C83    C135    1.516   .     S
C83    C303    1.391   .     S
C83    C159    1.413   .     S
C84    C142    1.516   .     S
C84    C526    1.390   1_545 S
C86    C158    1.413   .     S
C87    C89     1.416   .     A
C87    H117    1.081   .     S
C87    N122    1.367   .     A
C88    C90     1.416   .     A
C88    H118    1.082   .     S
C88    N121    1.368   .     A
C89    N121    1.366   .     A
C89    H119    1.081   .     S
C90    N122    1.366   .     A
C90    H120    1.081   .     S
C91    O129    1.294   .     A
C91    C93     1.470   .     S
C91    O201    1.297   .     S
C92    O130    1.297   .     A
C92    C94     1.469   .     S
C93    C97     1.399   .     A
C93    C99     1.395   .     A
C94    C98     1.398   .     A
C94    C100    1.398   .     A
C95    C103    1.416   .     A
C95    C97     1.398   .     A
C95    Cl205   1.764   .     S
C96    C98     1.392   .     A
C96    C104    1.413   .     A
C97    H188    1.084   .     S
C99    H112    1.080   .     S
C99    C101    1.403   .     A
C100   H111    1.078   .     S
C100   C102    1.406   .     A
C101   C103    1.417   .     A
C101   C105    1.422   .     A
C102   C106    1.426   .     A
C102   C104    1.422   .     A
C103   C745    1.399   .     S
C104   C746    1.397   1_554 S
C105   C772    1.421   .     S
C106   C771    1.421   1_554 S
Cu107  O126    1.959   .     S
Cu107  O130    1.924   .     S
Cu107  O127    1.932   .     S
Cu107  N121    2.012   .     S
Cu107  O123    1.962   .     S
Cu108  O125    1.959   .     S
Cu108  O129    1.924   .     S
Cu108  O124    1.962   .     S
Cu108  O128    1.932   .     S
Cu108  N122    2.012   .     S
Cu108  Cu181   2.677   .     S
H113   C172    1.084   .     S
O124   C150    1.288   .     S
O128   C166    1.294   .     S
Cl132  C170    1.763   .     S
C135   H140    1.112   .     S
C135   C136    1.527   .     S
C135   H141    1.109   .     S
C136   H138    1.111   .     S
C136   H137    1.110   .     S
C136   H139    1.111   .     S
C142   H148    1.112   .     S
C142   C143    1.527   .     S
C142   H147    1.109   .     S
C143   H145    1.111   .     S
C143   H144    1.110   .     S
C143   H146    1.111   .     S
C149   C160    1.447   .     S
C149   O199    1.291   .     A
C149   O49     1.288   1_655 S
C150   C159    1.447   .     S
C150   O200    1.291   .     A
C151   C153    1.395   .     A
C151   C180    1.425   .     A
C151   Cl207   1.768   .     S
C152   C154    1.390   .     A
C152   Cl208   1.767   .     S
C152   C179    1.422   .     A
C153   H183    1.082   .     S
C153   C843    1.399   1_554 S
C154   H184    1.082   .     S
C154   C844    1.397   .     S
C155   C160    1.398   .     A
C155   H189    1.085   .     S
C155   C601    1.391   1_545 S
C156   H190    1.085   .     S
C156   C159    1.398   .     A
C156   C380    1.390   .     S
C157   C209    1.516   .     S
C157   C377    1.391   .     S
C157   C11     1.413   1_655 S
C158   C216    1.516   .     S
C158   C600    1.390   1_545 S
C160   C10     1.413   1_655 S
C161   C163    1.416   .     A
C161   H191    1.081   .     S
C161   N196    1.367   .     A
C162   C164    1.416   .     A
C162   H192    1.082   .     S
C162   N195    1.368   .     A
C163   N195    1.366   .     A
C163   H193    1.081   .     S
C164   N196    1.366   .     A
C164   H194    1.081   .     S
C165   O203    1.294   .     A
C165   C167    1.470   .     S
C165   O53     1.297   1_655 S
C166   O204    1.297   .     A
C166   C168    1.469   .     S
C167   C171    1.399   .     A
C167   C173    1.395   .     A
C168   C172    1.398   .     A
C168   C174    1.398   .     A
C169   C177    1.416   .     A
C169   C171    1.398   .     A
C169   Cl57    1.764   1_655 S
C170   C172    1.392   .     A
C170   C178    1.413   .     A
C171   H40     1.084   1_655 S
C173   H186    1.080   .     S
C173   C175    1.403   .     A
C174   H185    1.078   .     S
C174   C176    1.406   .     A
C175   C177    1.417   .     A
C175   C179    1.422   .     A
C176   C180    1.426   .     A
C176   C178    1.422   .     A
C177   C819    1.399   .     S
C178   C820    1.397   1_554 S
C179   C846    1.421   .     S
C180   C845    1.421   1_554 S
Cu181  O200    1.959   .     S
Cu181  O204    1.924   .     S
Cu181  O201    1.932   .     S
Cu181  N195    2.012   .     S
Cu181  O197    1.962   .     S
Cu182  O199    1.959   .     S
Cu182  O203    1.924   .     S
Cu182  O198    1.962   .     S
Cu182  O202    1.932   .     S
Cu182  N196    2.012   .     S
Cu182  Cu33    2.677   1_655 S
H187   C24     1.084   1_655 S
O198   C2      1.288   1_655 S
O202   C18     1.294   1_655 S
Cl206  C22     1.763   1_655 S
C209   H214    1.112   .     S
C209   C210    1.527   .     S
C209   H215    1.109   .     S
C210   H212    1.111   .     S
C210   H211    1.110   .     S
C210   H213    1.111   .     S
C216   H222    1.112   .     S
C216   C217    1.527   .     S
C216   H221    1.109   .     S
C217   H219    1.111   .     S
C217   H218    1.110   .     S
C217   H220    1.111   .     S
C223   C234    1.447   .     S
C223   O273    1.291   .     A
C223   O345    1.288   .     S
C224   C233    1.447   .     S
C224   O274    1.291   .     A
C224   O420    1.288   1_455 S
C225   C227    1.395   .     A
C225   C254    1.425   .     A
C225   Cl281   1.768   .     S
C226   C228    1.390   .     A
C226   Cl282   1.767   .     S
C226   C253    1.422   .     A
C227   H257    1.082   .     S
C227   C917    1.399   1_554 S
C228   H258    1.082   .     S
C228   C918    1.397   .     S
C229   C234    1.398   .     A
C229   H263    1.085   .     S
C230   H264    1.085   .     S
C230   C233    1.398   .     A
C230   C454    1.390   .     S
C231   C283    1.516   .     S
C231   C451    1.391   .     S
C231   C307    1.413   .     S
C232   C290    1.516   .     S
C232   C382    1.413   1_455 S
C233   C379    1.413   1_455 S
C234   C306    1.413   .     S
C235   C237    1.416   .     A
C235   H265    1.081   .     S
C235   N270    1.367   .     A
C236   C238    1.416   .     A
C236   H266    1.082   .     S
C236   N269    1.368   .     A
C237   N269    1.366   .     A
C237   H267    1.081   .     S
C238   N270    1.366   .     A
C238   H268    1.081   .     S
C239   O277    1.294   .     A
C239   C241    1.470   .     S
C239   O349    1.297   .     S
C240   O278    1.297   .     A
C240   C242    1.469   .     S
C240   O424    1.294   1_455 S
C241   C245    1.399   .     A
C241   C247    1.395   .     A
C242   C246    1.398   .     A
C242   C248    1.398   .     A
C243   C251    1.416   .     A
C243   C245    1.398   .     A
C243   Cl353   1.764   .     S
C244   C246    1.392   .     A
C244   C252    1.413   .     A
C244   Cl428   1.763   1_455 S
C245   H336    1.084   .     S
C246   H409    1.084   1_455 S
C247   H260    1.080   .     S
C247   C249    1.403   .     A
C248   H259    1.078   .     S
C248   C250    1.406   .     A
C249   C251    1.417   .     A
C249   C253    1.422   .     A
C250   C254    1.426   .     A
C250   C252    1.422   .     A
C251   C893    1.399   .     S
C252   C894    1.397   1_554 S
C253   C920    1.421   .     S
C254   C919    1.421   1_554 S
Cu255  O274    1.959   .     S
Cu255  O278    1.924   .     S
Cu255  O275    1.932   .     S
Cu255  N269    2.012   .     S
Cu255  O271    1.962   .     S
Cu255  Cu404   2.677   1_455 S
Cu256  O273    1.959   .     S
Cu256  O277    1.924   .     S
Cu256  O272    1.962   .     S
Cu256  O276    1.932   .     S
Cu256  N270    2.012   .     S
Cu256  Cu329   2.677   .     S
H261   C320    1.084   .     S
H262   C393    1.084   1_455 S
O271   C371    1.288   1_455 S
O272   C298    1.288   .     S
O275   C387    1.297   1_455 S
O276   C314    1.294   .     S
Cl279  C391    1.764   1_455 S
Cl280  C318    1.763   .     S
C283   H288    1.112   .     S
C283   C284    1.527   .     S
C283   H289    1.109   .     S
C284   H286    1.111   .     S
C284   H285    1.110   .     S
C284   H287    1.111   .     S
C290   H296    1.112   .     S
C290   C291    1.527   .     S
C290   H295    1.109   .     S
C291   H293    1.111   .     S
C291   H292    1.110   .     S
C291   H294    1.111   .     S
C297   C308    1.447   .     S
C297   O347    1.291   .     A
C297   O419    1.288   .     S
C298   C307    1.447   .     S
C298   O348    1.291   .     A
C299   C301    1.395   .     A
C299   C328    1.425   .     A
C299   Cl355   1.768   .     S
C300   C302    1.390   .     A
C300   Cl356   1.767   .     S
C300   C327    1.422   .     A
C301   H331    1.082   .     S
C301   C991    1.399   1_554 S
C302   H332    1.082   .     S
C302   C992    1.397   .     S
C303   C308    1.398   .     A
C303   H337    1.085   .     S
C304   H338    1.085   .     S
C304   C307    1.398   .     A
C304   C528    1.390   .     S
C305   C357    1.516   .     S
C305   C525    1.391   .     S
C305   C381    1.413   .     S
C306   C364    1.516   .     S
C308   C380    1.413   .     S
C309   C311    1.416   .     A
C309   H339    1.081   .     S
C309   N344    1.367   .     A
C310   C312    1.416   .     A
C310   H340    1.082   .     S
C310   N343    1.368   .     A
C311   N343    1.366   .     A
C311   H341    1.081   .     S
C312   N344    1.366   .     A
C312   H342    1.081   .     S
C313   O351    1.294   .     A
C313   C315    1.470   .     S
C313   O423    1.297   .     S
C314   O352    1.297   .     A
C314   C316    1.469   .     S
C315   C319    1.399   .     A
C315   C321    1.395   .     A
C316   C320    1.398   .     A
C316   C322    1.398   .     A
C317   C325    1.416   .     A
C317   C319    1.398   .     A
C317   Cl427   1.764   .     S
C318   C320    1.392   .     A
C318   C326    1.413   .     A
C319   H410    1.084   .     S
C321   H334    1.080   .     S
C321   C323    1.403   .     A
C322   H333    1.078   .     S
C322   C324    1.406   .     A
C323   C325    1.417   .     A
C323   C327    1.422   .     A
C324   C328    1.426   .     A
C324   C326    1.422   .     A
C325   C967    1.399   .     S
C326   C968    1.397   1_554 S
C327   C994    1.421   .     S
C328   C993    1.421   1_554 S
Cu329  O348    1.959   .     S
Cu329  O352    1.924   .     S
Cu329  O349    1.932   .     S
Cu329  N343    2.012   .     S
Cu329  O345    1.962   .     S
Cu330  O347    1.959   .     S
Cu330  O351    1.924   .     S
Cu330  O346    1.962   .     S
Cu330  O350    1.932   .     S
Cu330  N344    2.012   .     S
Cu330  Cu403   2.677   .     S
H335   C394    1.084   .     S
O346   C372    1.288   .     S
O350   C388    1.294   .     S
Cl354  C392    1.763   .     S
C357   H362    1.112   .     S
C357   C358    1.527   .     S
C357   H363    1.109   .     S
C358   H360    1.111   .     S
C358   H359    1.110   .     S
C358   H361    1.111   .     S
C364   H370    1.112   .     S
C364   C365    1.527   .     S
C364   H369    1.109   .     S
C365   H367    1.111   .     S
C365   H366    1.110   .     S
C365   H368    1.111   .     S
C371   C382    1.447   .     S
C371   O421    1.291   .     A
C371   O271    1.288   1_655 S
C372   C381    1.447   .     S
C372   O422    1.291   .     A
C373   C375    1.395   .     A
C373   C402    1.425   .     A
C373   Cl429   1.768   .     S
C374   C376    1.390   .     A
C374   Cl430   1.767   .     S
C374   C401    1.422   .     A
C375   H405    1.082   .     S
C375   C1065   1.399   1_554 S
C376   H406    1.082   .     S
C376   C1066   1.397   .     S
C377   C382    1.398   .     A
C377   H411    1.085   .     S
C378   H412    1.085   .     S
C378   C381    1.398   .     A
C378   C602    1.390   .     S
C379   C431    1.516   .     S
C379   C599    1.391   .     S
C379   C233    1.413   1_655 S
C380   C438    1.516   .     S
C382   C232    1.413   1_655 S
C383   C385    1.416   .     A
C383   H413    1.081   .     S
C383   N418    1.367   .     A
C384   C386    1.416   .     A
C384   H414    1.082   .     S
C384   N417    1.368   .     A
C385   N417    1.366   .     A
C385   H415    1.081   .     S
C386   N418    1.366   .     A
C386   H416    1.081   .     S
C387   O425    1.294   .     A
C387   C389    1.470   .     S
C387   O275    1.297   1_655 S
C388   O426    1.297   .     A
C388   C390    1.469   .     S
C389   C393    1.399   .     A
C389   C395    1.395   .     A
C390   C394    1.398   .     A
C390   C396    1.398   .     A
C391   C399    1.416   .     A
C391   C393    1.398   .     A
C391   Cl279   1.764   1_655 S
C392   C394    1.392   .     A
C392   C400    1.413   .     A
C393   H262    1.084   1_655 S
C395   H408    1.080   .     S
C395   C397    1.403   .     A
C396   H407    1.078   .     S
C396   C398    1.406   .     A
C397   C399    1.417   .     A
C397   C401    1.422   .     A
C398   C402    1.426   .     A
C398   C400    1.422   .     A
C399   C1041   1.399   .     S
C400   C1042   1.397   1_554 S
C401   C1068   1.421   .     S
C402   C1067   1.421   1_554 S
Cu403  O422    1.959   .     S
Cu403  O426    1.924   .     S
Cu403  O423    1.932   .     S
Cu403  N417    2.012   .     S
Cu403  O419    1.962   .     S
Cu404  O421    1.959   .     S
Cu404  O425    1.924   .     S
Cu404  O420    1.962   .     S
Cu404  O424    1.932   .     S
Cu404  N418    2.012   .     S
Cu404  Cu255   2.677   1_655 S
H409   C246    1.084   1_655 S
O420   C224    1.288   1_655 S
O424   C240    1.294   1_655 S
Cl428  C244    1.763   1_655 S
C431   H436    1.112   .     S
C431   C432    1.527   .     S
C431   H437    1.109   .     S
C432   H434    1.111   .     S
C432   H433    1.110   .     S
C432   H435    1.111   .     S
C438   H444    1.112   .     S
C438   C439    1.527   .     S
C438   H443    1.109   .     S
C439   H441    1.111   .     S
C439   H440    1.110   .     S
C439   H442    1.111   .     S
C445   C456    1.447   .     S
C445   O495    1.291   .     A
C445   O567    1.288   .     S
C446   C455    1.447   .     S
C446   O496    1.291   .     A
C446   O642    1.288   1_455 S
C447   C449    1.395   .     A
C447   C476    1.425   .     A
C447   Cl503   1.768   .     S
C448   C450    1.390   .     A
C448   Cl504   1.767   .     S
C448   C475    1.422   .     A
C449   H479    1.082   .     S
C449   C1139   1.399   1_554 S
C450   H480    1.082   .     S
C450   C1140   1.397   .     S
C451   C456    1.398   .     A
C451   H485    1.085   .     S
C452   H486    1.085   .     S
C452   C455    1.398   .     A
C452   C10     1.390   1_565 S
C453   C505    1.516   .     S
C453   C7      1.391   1_565 S
C453   C529    1.413   .     S
C454   C512    1.516   .     S
C454   C604    1.413   1_455 S
C455   C601    1.413   1_455 S
C456   C528    1.413   .     S
C457   C459    1.416   .     A
C457   H487    1.081   .     S
C457   N492    1.367   .     A
C458   C460    1.416   .     A
C458   H488    1.082   .     S
C458   N491    1.368   .     A
C459   N491    1.366   .     A
C459   H489    1.081   .     S
C460   N492    1.366   .     A
C460   H490    1.081   .     S
C461   O499    1.294   .     A
C461   C463    1.470   .     S
C461   O571    1.297   .     S
C462   O500    1.297   .     A
C462   C464    1.469   .     S
C462   O646    1.294   1_455 S
C463   C467    1.399   .     A
C463   C469    1.395   .     A
C464   C468    1.398   .     A
C464   C470    1.398   .     A
C465   C473    1.416   .     A
C465   C467    1.398   .     A
C465   Cl575   1.764   .     S
C466   C468    1.392   .     A
C466   C474    1.413   .     A
C466   Cl650   1.763   1_455 S
C467   H558    1.084   .     S
C468   H631    1.084   1_455 S
C469   H482    1.080   .     S
C469   C471    1.403   .     A
C470   H481    1.078   .     S
C470   C472    1.406   .     A
C471   C473    1.417   .     A
C471   C475    1.422   .     A
C472   C476    1.426   .     A
C472   C474    1.422   .     A
C473   C1115   1.399   .     S
C474   C1116   1.397   1_554 S
C475   C1142   1.421   .     S
C476   C1141   1.421   1_554 S
Cu477  O496    1.959   .     S
Cu477  O500    1.924   .     S
Cu477  O497    1.932   .     S
Cu477  N491    2.012   .     S
Cu477  O493    1.962   .     S
Cu477  Cu626   2.677   1_455 S
Cu478  O495    1.959   .     S
Cu478  O499    1.924   .     S
Cu478  O494    1.962   .     S
Cu478  O498    1.932   .     S
Cu478  N492    2.012   .     S
Cu478  Cu551   2.677   .     S
H483   C542    1.084   .     S
H484   C615    1.084   1_455 S
O493   C593    1.288   1_455 S
O494   C520    1.288   .     S
O497   C609    1.297   1_455 S
O498   C536    1.294   .     S
Cl501  C613    1.764   1_455 S
Cl502  C540    1.763   .     S
C505   H510    1.112   .     S
C505   C506    1.527   .     S
C505   H511    1.109   .     S
C506   H508    1.111   .     S
C506   H507    1.110   .     S
C506   H509    1.111   .     S
C512   H518    1.112   .     S
C512   C513    1.527   .     S
C512   H517    1.109   .     S
C513   H515    1.111   .     S
C513   H514    1.110   .     S
C513   H516    1.111   .     S
C519   C530    1.447   .     S
C519   O569    1.291   .     A
C519   O641    1.288   .     S
C520   C529    1.447   .     S
C520   O570    1.291   .     A
C521   C523    1.395   .     A
C521   C550    1.425   .     A
C521   Cl577   1.768   .     S
C522   C524    1.390   .     A
C522   Cl578   1.767   .     S
C522   C549    1.422   .     A
C523   H553    1.082   .     S
C523   C1213   1.399   1_554 S
C524   H554    1.082   .     S
C524   C1214   1.397   .     S
C525   C530    1.398   .     A
C525   H559    1.085   .     S
C526   H560    1.085   .     S
C526   C529    1.398   .     A
C526   C84     1.390   1_565 S
C527   C579    1.516   .     S
C527   C81     1.391   1_565 S
C527   C603    1.413   .     S
C528   C586    1.516   .     S
C530   C602    1.413   .     S
C531   C533    1.416   .     A
C531   H561    1.081   .     S
C531   N566    1.367   .     A
C532   C534    1.416   .     A
C532   H562    1.082   .     S
C532   N565    1.368   .     A
C533   N565    1.366   .     A
C533   H563    1.081   .     S
C534   N566    1.366   .     A
C534   H564    1.081   .     S
C535   O573    1.294   .     A
C535   C537    1.470   .     S
C535   O645    1.297   .     S
C536   O574    1.297   .     A
C536   C538    1.469   .     S
C537   C541    1.399   .     A
C537   C543    1.395   .     A
C538   C542    1.398   .     A
C538   C544    1.398   .     A
C539   C547    1.416   .     A
C539   C541    1.398   .     A
C539   Cl649   1.764   .     S
C540   C542    1.392   .     A
C540   C548    1.413   .     A
C541   H632    1.084   .     S
C543   H556    1.080   .     S
C543   C545    1.403   .     A
C544   H555    1.078   .     S
C544   C546    1.406   .     A
C545   C547    1.417   .     A
C545   C549    1.422   .     A
C546   C550    1.426   .     A
C546   C548    1.422   .     A
C547   C1189   1.399   .     S
C548   C1190   1.397   1_554 S
C549   C1216   1.421   .     S
C550   C1215   1.421   1_554 S
Cu551  O570    1.959   .     S
Cu551  O574    1.924   .     S
Cu551  O571    1.932   .     S
Cu551  N565    2.012   .     S
Cu551  O567    1.962   .     S
Cu552  O569    1.959   .     S
Cu552  O573    1.924   .     S
Cu552  O568    1.962   .     S
Cu552  O572    1.932   .     S
Cu552  N566    2.012   .     S
Cu552  Cu625   2.677   .     S
H557   C616    1.084   .     S
O568   C594    1.288   .     S
O572   C610    1.294   .     S
Cl576  C614    1.763   .     S
C579   H584    1.112   .     S
C579   C580    1.527   .     S
C579   H585    1.109   .     S
C580   H582    1.111   .     S
C580   H581    1.110   .     S
C580   H583    1.111   .     S
C586   H592    1.112   .     S
C586   C587    1.527   .     S
C586   H591    1.109   .     S
C587   H589    1.111   .     S
C587   H588    1.110   .     S
C587   H590    1.111   .     S
C593   C604    1.447   .     S
C593   O643    1.291   .     A
C593   O493    1.288   1_655 S
C594   C603    1.447   .     S
C594   O644    1.291   .     A
C595   C597    1.395   .     A
C595   C624    1.425   .     A
C595   Cl651   1.768   .     S
C596   C598    1.390   .     A
C596   Cl652   1.767   .     S
C596   C623    1.422   .     A
C597   H627    1.082   .     S
C597   C1287   1.399   1_554 S
C598   H628    1.082   .     S
C598   C1288   1.397   .     S
C599   C604    1.398   .     A
C599   H633    1.085   .     S
C600   H634    1.085   .     S
C600   C603    1.398   .     A
C600   C158    1.390   1_565 S
C601   C653    1.516   .     S
C601   C155    1.391   1_565 S
C601   C455    1.413   1_655 S
C602   C660    1.516   .     S
C604   C454    1.413   1_655 S
C605   C607    1.416   .     A
C605   H635    1.081   .     S
C605   N640    1.367   .     A
C606   C608    1.416   .     A
C606   H636    1.082   .     S
C606   N639    1.368   .     A
C607   N639    1.366   .     A
C607   H637    1.081   .     S
C608   N640    1.366   .     A
C608   H638    1.081   .     S
C609   O647    1.294   .     A
C609   C611    1.470   .     S
C609   O497    1.297   1_655 S
C610   O648    1.297   .     A
C610   C612    1.469   .     S
C611   C615    1.399   .     A
C611   C617    1.395   .     A
C612   C616    1.398   .     A
C612   C618    1.398   .     A
C613   C621    1.416   .     A
C613   C615    1.398   .     A
C613   Cl501   1.764   1_655 S
C614   C616    1.392   .     A
C614   C622    1.413   .     A
C615   H484    1.084   1_655 S
C617   H630    1.080   .     S
C617   C619    1.403   .     A
C618   H629    1.078   .     S
C618   C620    1.406   .     A
C619   C621    1.417   .     A
C619   C623    1.422   .     A
C620   C624    1.426   .     A
C620   C622    1.422   .     A
C621   C1263   1.399   .     S
C622   C1264   1.397   1_554 S
C623   C1290   1.421   .     S
C624   C1289   1.421   1_554 S
Cu625  O644    1.959   .     S
Cu625  O648    1.924   .     S
Cu625  O645    1.932   .     S
Cu625  N639    2.012   .     S
Cu625  O641    1.962   .     S
Cu626  O643    1.959   .     S
Cu626  O647    1.924   .     S
Cu626  O642    1.962   .     S
Cu626  O646    1.932   .     S
Cu626  N640    2.012   .     S
Cu626  Cu477   2.677   1_655 S
H631   C468    1.084   1_655 S
O642   C446    1.288   1_655 S
O646   C462    1.294   1_655 S
Cl650  C466    1.763   1_655 S
C653   H658    1.112   .     S
C653   C654    1.527   .     S
C653   H659    1.109   .     S
C654   H656    1.111   .     S
C654   H655    1.110   .     S
C654   H657    1.111   .     S
C660   H666    1.112   .     S
C660   C661    1.527   .     S
C660   H665    1.109   .     S
C661   H663    1.111   .     S
C661   H662    1.110   .     S
C661   H664    1.111   .     S
C667   C678    1.447   .     S
C667   O717    1.291   .     A
C667   O789    1.288   .     S
C668   C677    1.447   .     S
C668   O718    1.291   .     A
C668   O864    1.288   1_455 S
C669   C671    1.395   .     A
C669   C698    1.425   .     A
C669   Cl725   1.768   .     S
C670   C672    1.390   .     A
C670   Cl726   1.767   .     S
C670   C697    1.422   .     A
C671   H701    1.082   .     S
C672   H702    1.082   .     S
C672   C30     1.397   1_556 S
C673   C678    1.398   .     A
C673   H707    1.085   .     S
C673   C1119   1.391   1_545 S
C674   H708    1.085   .     S
C674   C677    1.398   .     A
C674   C898    1.390   .     S
C675   C727    1.516   .     S
C675   C895    1.391   .     S
C675   C751    1.413   .     S
C676   C734    1.516   .     S
C676   C1118   1.390   1_545 S
C676   C826    1.413   1_455 S
C677   C823    1.413   1_455 S
C678   C750    1.413   .     S
C679   C681    1.416   .     A
C679   H709    1.081   .     S
C679   N714    1.367   .     A
C680   C682    1.416   .     A
C680   H710    1.082   .     S
C680   N713    1.368   .     A
C681   N713    1.366   .     A
C681   H711    1.081   .     S
C682   N714    1.366   .     A
C682   H712    1.081   .     S
C683   O721    1.294   .     A
C683   C685    1.470   .     S
C683   O793    1.297   .     S
C684   O722    1.297   .     A
C684   C686    1.469   .     S
C684   O868    1.294   1_455 S
C685   C689    1.399   .     A
C685   C691    1.395   .     A
C686   C690    1.398   .     A
C686   C692    1.398   .     A
C687   C695    1.416   .     A
C687   C689    1.398   .     A
C687   Cl797   1.764   .     S
C688   C690    1.392   .     A
C688   C696    1.413   .     A
C688   Cl872   1.763   1_455 S
C689   H780    1.084   .     S
C690   H853    1.084   1_455 S
C691   H704    1.080   .     S
C691   C693    1.403   .     A
C692   H703    1.078   .     S
C692   C694    1.406   .     A
C693   C695    1.417   .     A
C693   C697    1.422   .     A
C694   C698    1.426   .     A
C694   C696    1.422   .     A
C695   C5      1.399   1_556 S
C697   C32     1.421   1_556 S
Cu699  O718    1.959   .     S
Cu699  O722    1.924   .     S
Cu699  O719    1.932   .     S
Cu699  N713    2.012   .     S
Cu699  O715    1.962   .     S
Cu699  Cu848   2.677   1_455 S
Cu700  O717    1.959   .     S
Cu700  O721    1.924   .     S
Cu700  O716    1.962   .     S
Cu700  O720    1.932   .     S
Cu700  N714    2.012   .     S
Cu700  Cu773   2.677   .     S
H705   C764    1.084   .     S
H706   C837    1.084   1_455 S
O715   C815    1.288   1_455 S
O716   C742    1.288   .     S
O719   C831    1.297   1_455 S
O720   C758    1.294   .     S
Cl723  C835    1.764   1_455 S
Cl724  C762    1.763   .     S
C727   H732    1.112   .     S
C727   C728    1.527   .     S
C727   H733    1.109   .     S
C728   H730    1.111   .     S
C728   H729    1.110   .     S
C728   H731    1.111   .     S
C734   H740    1.112   .     S
C734   C735    1.527   .     S
C734   H739    1.109   .     S
C735   H737    1.111   .     S
C735   H736    1.110   .     S
C735   H738    1.111   .     S
C741   C752    1.447   .     S
C741   O791    1.291   .     A
C741   O863    1.288   .     S
C742   C751    1.447   .     S
C742   O792    1.291   .     A
C743   C745    1.395   .     A
C743   C772    1.425   .     A
C743   Cl799   1.768   .     S
C744   C746    1.390   .     A
C744   Cl800   1.767   .     S
C744   C771    1.422   .     A
C745   H775    1.082   .     S
C746   H776    1.082   .     S
C746   C104    1.397   1_556 S
C747   C752    1.398   .     A
C747   H781    1.085   .     S
C747   C1193   1.391   1_545 S
C748   H782    1.085   .     S
C748   C751    1.398   .     A
C748   C972    1.390   .     S
C749   C801    1.516   .     S
C749   C969    1.391   .     S
C749   C825    1.413   .     S
C750   C808    1.516   .     S
C750   C1192   1.390   1_545 S
C752   C824    1.413   .     S
C753   C755    1.416   .     A
C753   H783    1.081   .     S
C753   N788    1.367   .     A
C754   C756    1.416   .     A
C754   H784    1.082   .     S
C754   N787    1.368   .     A
C755   N787    1.366   .     A
C755   H785    1.081   .     S
C756   N788    1.366   .     A
C756   H786    1.081   .     S
C757   O795    1.294   .     A
C757   C759    1.470   .     S
C757   O867    1.297   .     S
C758   O796    1.297   .     A
C758   C760    1.469   .     S
C759   C763    1.399   .     A
C759   C765    1.395   .     A
C760   C764    1.398   .     A
C760   C766    1.398   .     A
C761   C769    1.416   .     A
C761   C763    1.398   .     A
C761   Cl871   1.764   .     S
C762   C764    1.392   .     A
C762   C770    1.413   .     A
C763   H854    1.084   .     S
C765   H778    1.080   .     S
C765   C767    1.403   .     A
C766   H777    1.078   .     S
C766   C768    1.406   .     A
C767   C769    1.417   .     A
C767   C771    1.422   .     A
C768   C772    1.426   .     A
C768   C770    1.422   .     A
C769   C79     1.399   1_556 S
C771   C106    1.421   1_556 S
Cu773  O792    1.959   .     S
Cu773  O796    1.924   .     S
Cu773  O793    1.932   .     S
Cu773  N787    2.012   .     S
Cu773  O789    1.962   .     S
Cu774  O791    1.959   .     S
Cu774  O795    1.924   .     S
Cu774  O790    1.962   .     S
Cu774  O794    1.932   .     S
Cu774  N788    2.012   .     S
Cu774  Cu847   2.677   .     S
H779   C838    1.084   .     S
O790   C816    1.288   .     S
O794   C832    1.294   .     S
Cl798  C836    1.763   .     S
C801   H806    1.112   .     S
C801   C802    1.527   .     S
C801   H807    1.109   .     S
C802   H804    1.111   .     S
C802   H803    1.110   .     S
C802   H805    1.111   .     S
C808   H814    1.112   .     S
C808   C809    1.527   .     S
C808   H813    1.109   .     S
C809   H811    1.111   .     S
C809   H810    1.110   .     S
C809   H812    1.111   .     S
C815   C826    1.447   .     S
C815   O865    1.291   .     A
C815   O715    1.288   1_655 S
C816   C825    1.447   .     S
C816   O866    1.291   .     A
C817   C819    1.395   .     A
C817   C846    1.425   .     A
C817   Cl873   1.768   .     S
C818   C820    1.390   .     A
C818   Cl874   1.767   .     S
C818   C845    1.422   .     A
C819   H849    1.082   .     S
C820   H850    1.082   .     S
C820   C178    1.397   1_556 S
C821   C826    1.398   .     A
C821   H855    1.085   .     S
C821   C1267   1.391   1_545 S
C822   H856    1.085   .     S
C822   C825    1.398   .     A
C822   C1046   1.390   .     S
C823   C875    1.516   .     S
C823   C1043   1.391   .     S
C823   C677    1.413   1_655 S
C824   C882    1.516   .     S
C824   C1266   1.390   1_545 S
C826   C676    1.413   1_655 S
C827   C829    1.416   .     A
C827   H857    1.081   .     S
C827   N862    1.367   .     A
C828   C830    1.416   .     A
C828   H858    1.082   .     S
C828   N861    1.368   .     A
C829   N861    1.366   .     A
C829   H859    1.081   .     S
C830   N862    1.366   .     A
C830   H860    1.081   .     S
C831   O869    1.294   .     A
C831   C833    1.470   .     S
C831   O719    1.297   1_655 S
C832   O870    1.297   .     A
C832   C834    1.469   .     S
C833   C837    1.399   .     A
C833   C839    1.395   .     A
C834   C838    1.398   .     A
C834   C840    1.398   .     A
C835   C843    1.416   .     A
C835   C837    1.398   .     A
C835   Cl723   1.764   1_655 S
C836   C838    1.392   .     A
C836   C844    1.413   .     A
C837   H706    1.084   1_655 S
C839   H852    1.080   .     S
C839   C841    1.403   .     A
C840   H851    1.078   .     S
C840   C842    1.406   .     A
C841   C843    1.417   .     A
C841   C845    1.422   .     A
C842   C846    1.426   .     A
C842   C844    1.422   .     A
C843   C153    1.399   1_556 S
C845   C180    1.421   1_556 S
Cu847  O866    1.959   .     S
Cu847  O870    1.924   .     S
Cu847  O867    1.932   .     S
Cu847  N861    2.012   .     S
Cu847  O863    1.962   .     S
Cu848  O865    1.959   .     S
Cu848  O869    1.924   .     S
Cu848  O864    1.962   .     S
Cu848  O868    1.932   .     S
Cu848  N862    2.012   .     S
Cu848  Cu699   2.677   1_655 S
H853   C690    1.084   1_655 S
O864   C668    1.288   1_655 S
O868   C684    1.294   1_655 S
Cl872  C688    1.763   1_655 S
C875   H880    1.112   .     S
C875   C876    1.527   .     S
C875   H881    1.109   .     S
C876   H878    1.111   .     S
C876   H877    1.110   .     S
C876   H879    1.111   .     S
C882   H888    1.112   .     S
C882   C883    1.527   .     S
C882   H887    1.109   .     S
C883   H885    1.111   .     S
C883   H884    1.110   .     S
C883   H886    1.111   .     S
C889   C900    1.447   .     S
C889   O939    1.291   .     A
C889   O1011   1.288   .     S
C890   C899    1.447   .     S
C890   O940    1.291   .     A
C890   O1086   1.288   1_455 S
C891   C893    1.395   .     A
C891   C920    1.425   .     A
C891   Cl947   1.768   .     S
C892   C894    1.390   .     A
C892   Cl948   1.767   .     S
C892   C919    1.422   .     A
C893   H923    1.082   .     S
C894   H924    1.082   .     S
C894   C252    1.397   1_556 S
C895   C900    1.398   .     A
C895   H929    1.085   .     S
C896   H930    1.085   .     S
C896   C899    1.398   .     A
C896   C1120   1.390   .     S
C897   C949    1.516   .     S
C897   C1117   1.391   .     S
C897   C973    1.413   .     S
C898   C956    1.516   .     S
C898   C1048   1.413   1_455 S
C899   C1045   1.413   1_455 S
C900   C972    1.413   .     S
C901   C903    1.416   .     A
C901   H931    1.081   .     S
C901   N936    1.367   .     A
C902   C904    1.416   .     A
C902   H932    1.082   .     S
C902   N935    1.368   .     A
C903   N935    1.366   .     A
C903   H933    1.081   .     S
C904   N936    1.366   .     A
C904   H934    1.081   .     S
C905   O943    1.294   .     A
C905   C907    1.470   .     S
C905   O1015   1.297   .     S
C906   O944    1.297   .     A
C906   C908    1.469   .     S
C906   O1090   1.294   1_455 S
C907   C911    1.399   .     A
C907   C913    1.395   .     A
C908   C912    1.398   .     A
C908   C914    1.398   .     A
C909   C917    1.416   .     A
C909   C911    1.398   .     A
C909   Cl1019  1.764   .     S
C910   C912    1.392   .     A
C910   C918    1.413   .     A
C910   Cl1094  1.763   1_455 S
C911   H1002   1.084   .     S
C912   H1075   1.084   1_455 S
C913   H926    1.080   .     S
C913   C915    1.403   .     A
C914   H925    1.078   .     S
C914   C916    1.406   .     A
C915   C917    1.417   .     A
C915   C919    1.422   .     A
C916   C920    1.426   .     A
C916   C918    1.422   .     A
C917   C227    1.399   1_556 S
C919   C254    1.421   1_556 S
Cu921  O940    1.959   .     S
Cu921  O944    1.924   .     S
Cu921  O941    1.932   .     S
Cu921  N935    2.012   .     S
Cu921  O937    1.962   .     S
Cu921  Cu1070  2.677   1_455 S
Cu922  O939    1.959   .     S
Cu922  O943    1.924   .     S
Cu922  O938    1.962   .     S
Cu922  O942    1.932   .     S
Cu922  N936    2.012   .     S
Cu922  Cu995   2.677   .     S
H927   C986    1.084   .     S
H928   C1059   1.084   1_455 S
O937   C1037   1.288   1_455 S
O938   C964    1.288   .     S
O941   C1053   1.297   1_455 S
O942   C980    1.294   .     S
Cl945  C1057   1.764   1_455 S
Cl946  C984    1.763   .     S
C949   H954    1.112   .     S
C949   C950    1.527   .     S
C949   H955    1.109   .     S
C950   H952    1.111   .     S
C950   H951    1.110   .     S
C950   H953    1.111   .     S
C956   H962    1.112   .     S
C956   C957    1.527   .     S
C956   H961    1.109   .     S
C957   H959    1.111   .     S
C957   H958    1.110   .     S
C957   H960    1.111   .     S
C963   C974    1.447   .     S
C963   O1013   1.291   .     A
C963   O1085   1.288   .     S
C964   C973    1.447   .     S
C964   O1014   1.291   .     A
C965   C967    1.395   .     A
C965   C994    1.425   .     A
C965   Cl1021  1.768   .     S
C966   C968    1.390   .     A
C966   Cl1022  1.767   .     S
C966   C993    1.422   .     A
C967   H997    1.082   .     S
C968   H998    1.082   .     S
C968   C326    1.397   1_556 S
C969   C974    1.398   .     A
C969   H1003   1.085   .     S
C970   H1004   1.085   .     S
C970   C973    1.398   .     A
C970   C1194   1.390   .     S
C971   C1023   1.516   .     S
C971   C1191   1.391   .     S
C971   C1047   1.413   .     S
C972   C1030   1.516   .     S
C974   C1046   1.413   .     S
C975   C977    1.416   .     A
C975   H1005   1.081   .     S
C975   N1010   1.367   .     A
C976   C978    1.416   .     A
C976   H1006   1.082   .     S
C976   N1009   1.368   .     A
C977   N1009   1.366   .     A
C977   H1007   1.081   .     S
C978   N1010   1.366   .     A
C978   H1008   1.081   .     S
C979   O1017   1.294   .     A
C979   C981    1.470   .     S
C979   O1089   1.297   .     S
C980   O1018   1.297   .     A
C980   C982    1.469   .     S
C981   C985    1.399   .     A
C981   C987    1.395   .     A
C982   C986    1.398   .     A
C982   C988    1.398   .     A
C983   C991    1.416   .     A
C983   C985    1.398   .     A
C983   Cl1093  1.764   .     S
C984   C986    1.392   .     A
C984   C992    1.413   .     A
C985   H1076   1.084   .     S
C987   H1000   1.080   .     S
C987   C989    1.403   .     A
C988   H999    1.078   .     S
C988   C990    1.406   .     A
C989   C991    1.417   .     A
C989   C993    1.422   .     A
C990   C994    1.426   .     A
C990   C992    1.422   .     A
C991   C301    1.399   1_556 S
C993   C328    1.421   1_556 S
Cu995  O1014   1.959   .     S
Cu995  O1018   1.924   .     S
Cu995  O1015   1.932   .     S
Cu995  N1009   2.012   .     S
Cu995  O1011   1.962   .     S
Cu996  O1013   1.959   .     S
Cu996  O1017   1.924   .     S
Cu996  O1012   1.962   .     S
Cu996  O1016   1.932   .     S
Cu996  N1010   2.012   .     S
Cu996  Cu1069  2.677   .     S
H1001  C1060   1.084   .     S
O1012  C1038   1.288   .     S
O1016  C1054   1.294   .     S
Cl1020 C1058   1.763   .     S
C1023  H1028   1.112   .     S
C1023  C1024   1.527   .     S
C1023  H1029   1.109   .     S
C1024  H1026   1.111   .     S
C1024  H1025   1.110   .     S
C1024  H1027   1.111   .     S
C1030  H1036   1.112   .     S
C1030  C1031   1.527   .     S
C1030  H1035   1.109   .     S
C1031  H1033   1.111   .     S
C1031  H1032   1.110   .     S
C1031  H1034   1.111   .     S
C1037  C1048   1.447   .     S
C1037  O1087   1.291   .     A
C1037  O937    1.288   1_655 S
C1038  C1047   1.447   .     S
C1038  O1088   1.291   .     A
C1039  C1041   1.395   .     A
C1039  C1068   1.425   .     A
C1039  Cl1095  1.768   .     S
C1040  C1042   1.390   .     A
C1040  Cl1096  1.767   .     S
C1040  C1067   1.422   .     A
C1041  H1071   1.082   .     S
C1042  H1072   1.082   .     S
C1042  C400    1.397   1_556 S
C1043  C1048   1.398   .     A
C1043  H1077   1.085   .     S
C1044  H1078   1.085   .     S
C1044  C1047   1.398   .     A
C1044  C1268   1.390   .     S
C1045  C1097   1.516   .     S
C1045  C1265   1.391   .     S
C1045  C899    1.413   1_655 S
C1046  C1104   1.516   .     S
C1048  C898    1.413   1_655 S
C1049  C1051   1.416   .     A
C1049  H1079   1.081   .     S
C1049  N1084   1.367   .     A
C1050  C1052   1.416   .     A
C1050  H1080   1.082   .     S
C1050  N1083   1.368   .     A
C1051  N1083   1.366   .     A
C1051  H1081   1.081   .     S
C1052  N1084   1.366   .     A
C1052  H1082   1.081   .     S
C1053  O1091   1.294   .     A
C1053  C1055   1.470   .     S
C1053  O941    1.297   1_655 S
C1054  O1092   1.297   .     A
C1054  C1056   1.469   .     S
C1055  C1059   1.399   .     A
C1055  C1061   1.395   .     A
C1056  C1060   1.398   .     A
C1056  C1062   1.398   .     A
C1057  C1065   1.416   .     A
C1057  C1059   1.398   .     A
C1057  Cl945   1.764   1_655 S
C1058  C1060   1.392   .     A
C1058  C1066   1.413   .     A
C1059  H928    1.084   1_655 S
C1061  H1074   1.080   .     S
C1061  C1063   1.403   .     A
C1062  H1073   1.078   .     S
C1062  C1064   1.406   .     A
C1063  C1065   1.417   .     A
C1063  C1067   1.422   .     A
C1064  C1068   1.426   .     A
C1064  C1066   1.422   .     A
C1065  C375    1.399   1_556 S
C1067  C402    1.421   1_556 S
Cu1069 O1088   1.959   .     S
Cu1069 O1092   1.924   .     S
Cu1069 O1089   1.932   .     S
Cu1069 N1083   2.012   .     S
Cu1069 O1085   1.962   .     S
Cu1070 O1087   1.959   .     S
Cu1070 O1091   1.924   .     S
Cu1070 O1086   1.962   .     S
Cu1070 O1090   1.932   .     S
Cu1070 N1084   2.012   .     S
Cu1070 Cu921   2.677   1_655 S
H1075  C912    1.084   1_655 S
O1086  C890    1.288   1_655 S
O1090  C906    1.294   1_655 S
Cl1094 C910    1.763   1_655 S
C1097  H1102   1.112   .     S
C1097  C1098   1.527   .     S
C1097  H1103   1.109   .     S
C1098  H1100   1.111   .     S
C1098  H1099   1.110   .     S
C1098  H1101   1.111   .     S
C1104  H1110   1.112   .     S
C1104  C1105   1.527   .     S
C1104  H1109   1.109   .     S
C1105  H1107   1.111   .     S
C1105  H1106   1.110   .     S
C1105  H1108   1.111   .     S
C1111  C1122   1.447   .     S
C1111  O1161   1.291   .     A
C1111  O1233   1.288   .     S
C1112  C1121   1.447   .     S
C1112  O1162   1.291   .     A
C1112  O1308   1.288   1_455 S
C1113  C1115   1.395   .     A
C1113  C1142   1.425   .     A
C1113  Cl1169  1.768   .     S
C1114  C1116   1.390   .     A
C1114  Cl1170  1.767   .     S
C1114  C1141   1.422   .     A
C1115  H1145   1.082   .     S
C1116  H1146   1.082   .     S
C1116  C474    1.397   1_556 S
C1117  C1122   1.398   .     A
C1117  H1151   1.085   .     S
C1118  H1152   1.085   .     S
C1118  C1121   1.398   .     A
C1118  C676    1.390   1_565 S
C1119  C1171   1.516   .     S
C1119  C673    1.391   1_565 S
C1119  C1195   1.413   .     S
C1120  C1178   1.516   .     S
C1120  C1270   1.413   1_455 S
C1121  C1267   1.413   1_455 S
C1122  C1194   1.413   .     S
C1123  C1125   1.416   .     A
C1123  H1153   1.081   .     S
C1123  N1158   1.367   .     A
C1124  C1126   1.416   .     A
C1124  H1154   1.082   .     S
C1124  N1157   1.368   .     A
C1125  N1157   1.366   .     A
C1125  H1155   1.081   .     S
C1126  N1158   1.366   .     A
C1126  H1156   1.081   .     S
C1127  O1165   1.294   .     A
C1127  C1129   1.470   .     S
C1127  O1237   1.297   .     S
C1128  O1166   1.297   .     A
C1128  C1130   1.469   .     S
C1128  O1312   1.294   1_455 S
C1129  C1133   1.399   .     A
C1129  C1135   1.395   .     A
C1130  C1134   1.398   .     A
C1130  C1136   1.398   .     A
C1131  C1139   1.416   .     A
C1131  C1133   1.398   .     A
C1131  Cl1241  1.764   .     S
C1132  C1134   1.392   .     A
C1132  C1140   1.413   .     A
C1132  Cl1316  1.763   1_455 S
C1133  H1224   1.084   .     S
C1134  H1297   1.084   1_455 S
C1135  H1148   1.080   .     S
C1135  C1137   1.403   .     A
C1136  H1147   1.078   .     S
C1136  C1138   1.406   .     A
C1137  C1139   1.417   .     A
C1137  C1141   1.422   .     A
C1138  C1142   1.426   .     A
C1138  C1140   1.422   .     A
C1139  C449    1.399   1_556 S
C1141  C476    1.421   1_556 S
Cu1143 O1162   1.959   .     S
Cu1143 O1166   1.924   .     S
Cu1143 O1163   1.932   .     S
Cu1143 N1157   2.012   .     S
Cu1143 O1159   1.962   .     S
Cu1143 Cu1292  2.677   1_455 S
Cu1144 O1161   1.959   .     S
Cu1144 O1165   1.924   .     S
Cu1144 O1160   1.962   .     S
Cu1144 O1164   1.932   .     S
Cu1144 N1158   2.012   .     S
Cu1144 Cu1217  2.677   .     S
H1149  C1208   1.084   .     S
H1150  C1281   1.084   1_455 S
O1159  C1259   1.288   1_455 S
O1160  C1186   1.288   .     S
O1163  C1275   1.297   1_455 S
O1164  C1202   1.294   .     S
Cl1167 C1279   1.764   1_455 S
Cl1168 C1206   1.763   .     S
C1171  H1176   1.112   .     S
C1171  C1172   1.527   .     S
C1171  H1177   1.109   .     S
C1172  H1174   1.111   .     S
C1172  H1173   1.110   .     S
C1172  H1175   1.111   .     S
C1178  H1184   1.112   .     S
C1178  C1179   1.527   .     S
C1178  H1183   1.109   .     S
C1179  H1181   1.111   .     S
C1179  H1180   1.110   .     S
C1179  H1182   1.111   .     S
C1185  C1196   1.447   .     S
C1185  O1235   1.291   .     A
C1185  O1307   1.288   .     S
C1186  C1195   1.447   .     S
C1186  O1236   1.291   .     A
C1187  C1189   1.395   .     A
C1187  C1216   1.425   .     A
C1187  Cl1243  1.768   .     S
C1188  C1190   1.390   .     A
C1188  Cl1244  1.767   .     S
C1188  C1215   1.422   .     A
C1189  H1219   1.082   .     S
C1190  H1220   1.082   .     S
C1190  C548    1.397   1_556 S
C1191  C1196   1.398   .     A
C1191  H1225   1.085   .     S
C1192  H1226   1.085   .     S
C1192  C1195   1.398   .     A
C1192  C750    1.390   1_565 S
C1193  C1245   1.516   .     S
C1193  C747    1.391   1_565 S
C1193  C1269   1.413   .     S
C1194  C1252   1.516   .     S
C1196  C1268   1.413   .     S
C1197  C1199   1.416   .     A
C1197  H1227   1.081   .     S
C1197  N1232   1.367   .     A
C1198  C1200   1.416   .     A
C1198  H1228   1.082   .     S
C1198  N1231   1.368   .     A
C1199  N1231   1.366   .     A
C1199  H1229   1.081   .     S
C1200  N1232   1.366   .     A
C1200  H1230   1.081   .     S
C1201  O1239   1.294   .     A
C1201  C1203   1.470   .     S
C1201  O1311   1.297   .     S
C1202  O1240   1.297   .     A
C1202  C1204   1.469   .     S
C1203  C1207   1.399   .     A
C1203  C1209   1.395   .     A
C1204  C1208   1.398   .     A
C1204  C1210   1.398   .     A
C1205  C1213   1.416   .     A
C1205  C1207   1.398   .     A
C1205  Cl1315  1.764   .     S
C1206  C1208   1.392   .     A
C1206  C1214   1.413   .     A
C1207  H1298   1.084   .     S
C1209  H1222   1.080   .     S
C1209  C1211   1.403   .     A
C1210  H1221   1.078   .     S
C1210  C1212   1.406   .     A
C1211  C1213   1.417   .     A
C1211  C1215   1.422   .     A
C1212  C1216   1.426   .     A
C1212  C1214   1.422   .     A
C1213  C523    1.399   1_556 S
C1215  C550    1.421   1_556 S
Cu1217 O1236   1.959   .     S
Cu1217 O1240   1.924   .     S
Cu1217 O1237   1.932   .     S
Cu1217 N1231   2.012   .     S
Cu1217 O1233   1.962   .     S
Cu1218 O1235   1.959   .     S
Cu1218 O1239   1.924   .     S
Cu1218 O1234   1.962   .     S
Cu1218 O1238   1.932   .     S
Cu1218 N1232   2.012   .     S
Cu1218 Cu1291  2.677   .     S
H1223  C1282   1.084   .     S
O1234  C1260   1.288   .     S
O1238  C1276   1.294   .     S
Cl1242 C1280   1.763   .     S
C1245  H1250   1.112   .     S
C1245  C1246   1.527   .     S
C1245  H1251   1.109   .     S
C1246  H1248   1.111   .     S
C1246  H1247   1.110   .     S
C1246  H1249   1.111   .     S
C1252  H1258   1.112   .     S
C1252  C1253   1.527   .     S
C1252  H1257   1.109   .     S
C1253  H1255   1.111   .     S
C1253  H1254   1.110   .     S
C1253  H1256   1.111   .     S
C1259  C1270   1.447   .     S
C1259  O1309   1.291   .     A
C1259  O1159   1.288   1_655 S
C1260  C1269   1.447   .     S
C1260  O1310   1.291   .     A
C1261  C1263   1.395   .     A
C1261  C1290   1.425   .     A
C1261  Cl1317  1.768   .     S
C1262  C1264   1.390   .     A
C1262  Cl1318  1.767   .     S
C1262  C1289   1.422   .     A
C1263  H1293   1.082   .     S
C1264  H1294   1.082   .     S
C1264  C622    1.397   1_556 S
C1265  C1270   1.398   .     A
C1265  H1299   1.085   .     S
C1266  H1300   1.085   .     S
C1266  C1269   1.398   .     A
C1266  C824    1.390   1_565 S
C1267  C1319   1.516   .     S
C1267  C821    1.391   1_565 S
C1267  C1121   1.413   1_655 S
C1268  C1326   1.516   .     S
C1270  C1120   1.413   1_655 S
C1271  C1273   1.416   .     A
C1271  H1301   1.081   .     S
C1271  N1306   1.367   .     A
C1272  C1274   1.416   .     A
C1272  H1302   1.082   .     S
C1272  N1305   1.368   .     A
C1273  N1305   1.366   .     A
C1273  H1303   1.081   .     S
C1274  N1306   1.366   .     A
C1274  H1304   1.081   .     S
C1275  O1313   1.294   .     A
C1275  C1277   1.470   .     S
C1275  O1163   1.297   1_655 S
C1276  O1314   1.297   .     A
C1276  C1278   1.469   .     S
C1277  C1281   1.399   .     A
C1277  C1283   1.395   .     A
C1278  C1282   1.398   .     A
C1278  C1284   1.398   .     A
C1279  C1287   1.416   .     A
C1279  C1281   1.398   .     A
C1279  Cl1167  1.764   1_655 S
C1280  C1282   1.392   .     A
C1280  C1288   1.413   .     A
C1281  H1150   1.084   1_655 S
C1283  H1296   1.080   .     S
C1283  C1285   1.403   .     A
C1284  H1295   1.078   .     S
C1284  C1286   1.406   .     A
C1285  C1287   1.417   .     A
C1285  C1289   1.422   .     A
C1286  C1290   1.426   .     A
C1286  C1288   1.422   .     A
C1287  C597    1.399   1_556 S
C1289  C624    1.421   1_556 S
Cu1291 O1310   1.959   .     S
Cu1291 O1314   1.924   .     S
Cu1291 O1311   1.932   .     S
Cu1291 N1305   2.012   .     S
Cu1291 O1307   1.962   .     S
Cu1292 O1309   1.959   .     S
Cu1292 O1313   1.924   .     S
Cu1292 O1308   1.962   .     S
Cu1292 O1312   1.932   .     S
Cu1292 N1306   2.012   .     S
Cu1292 Cu1143  2.677   1_655 S
H1297  C1134   1.084   1_655 S
O1308  C1112   1.288   1_655 S
O1312  C1128   1.294   1_655 S
Cl1316 C1132   1.763   1_655 S
C1319  H1324   1.112   .     S
C1319  C1320   1.527   .     S
C1319  H1325   1.109   .     S
C1320  H1322   1.111   .     S
C1320  H1321   1.110   .     S
C1320  H1323   1.111   .     S
C1326  H1332   1.112   .     S
C1326  C1327   1.527   .     S
C1326  H1331   1.109   .     S
C1327  H1329   1.111   .     S
C1327  H1328   1.110   .     S
C1327  H1330   1.111   .     S
