data_str_m2_o2_o10_pcu_sym.208
_audit_creation_date              2020-01-03
_audit_creation_method            'Materials Studio'
_symmetry_space_group_name_H-M    'P1'
_symmetry_Int_Tables_number       1
_symmetry_cell_setting            triclinic
loop_
_symmetry_equiv_pos_as_xyz
  x,y,z
_cell_length_a                    26.1848
_cell_length_b                    30.2857
_cell_length_c                    27.8151
_cell_angle_alpha                 90.4805
_cell_angle_beta                  98.3300
_cell_angle_gamma                 90.5551
loop_
_atom_site_label
_atom_site_type_symbol
_atom_site_fract_x
_atom_site_fract_y
_atom_site_fract_z
_atom_site_U_iso_or_equiv
_atom_site_adp_type
_atom_site_occupancy
C1     C     0.16709   0.16493   0.24995   0.00000  Uiso   1.00
C2     C     0.16702   0.33498   0.25023   0.00000  Uiso   1.00
C3     C     0.20706   0.27075   0.05991   0.00000  Uiso   1.00
C4     C     0.13981   0.21755   0.44198   0.00000  Uiso   1.00
C5     C     0.20557   0.27084   0.11037   0.00000  Uiso   1.00
C6     C     0.13950   0.21855   0.39133   0.00000  Uiso   1.00
C7     C     0.12821   0.22868   0.09869   0.00000  Uiso   1.00
C8     C     0.19491   0.28111   0.39953   0.00000  Uiso   1.00
C9     C     0.12716   0.23009   0.04785   0.00000  Uiso   1.00
C10    C     0.19403   0.28232   0.45014   0.00000  Uiso   1.00
C11    C     0.16721   0.25036   0.02731   0.00000  Uiso   1.00
C12    C     0.16700   0.25003   0.47266   0.00000  Uiso   1.00
C13    C     0.06789   0.24996   0.23748   0.00000  Uiso   1.00
C14    C     0.26545   0.25008   0.26251   0.00000  Uiso   1.00
C15    C     0.01251   0.24995   0.23066   0.00000  Uiso   1.00
C16    C     0.32083   0.25013   0.26933   0.00000  Uiso   1.00
C17    C     0.18024   0.04821   0.29466   0.00000  Uiso   1.00
C18    C     0.18910   0.45190   0.21427   0.00000  Uiso   1.00
C19    C     0.17913   0.09409   0.29432   0.00000  Uiso   1.00
C20    C     0.18780   0.40602   0.21379   0.00000  Uiso   1.00
C21    C     0.16833   0.11663   0.25020   0.00000  Uiso   1.00
C22    C     0.16811   0.38314   0.25076   0.00000  Uiso   1.00
C23    C     0.15882   0.09263   0.20651   0.00000  Uiso   1.00
C24    C     0.14964   0.40655   0.28822   0.00000  Uiso   1.00
C25    C     0.15896   0.04676   0.20686   0.00000  Uiso   1.00
C26    C     0.15003   0.45247   0.28823   0.00000  Uiso   1.00
C27    C     0.16978   0.02413   0.25094   0.00000  Uiso   1.00
C28    C     0.16981   0.47554   0.25126   0.00000  Uiso   1.00
Cu29   Cu    0.16667   0.25000   0.29821   0.00000  Uiso   1.00
Cu30   Cu    0.16667   0.25001   0.20178   0.00000  Uiso   1.00
H31    H     0.32560   0.24979   0.19366   0.00000  Uiso   1.00
H32    H     0.00774   0.25029   0.30633   0.00000  Uiso   1.00
H33    H     0.18973   0.03164   0.32909   0.00000  Uiso   1.00
H34    H     0.20559   0.46882   0.18592   0.00000  Uiso   1.00
H35    H     0.18723   0.11188   0.32856   0.00000  Uiso   1.00
H36    H     0.20286   0.38844   0.18488   0.00000  Uiso   1.00
H37    H     0.15076   0.10924   0.17212   0.00000  Uiso   1.00
H38    H     0.13402   0.38938   0.31694   0.00000  Uiso   1.00
H39    H     0.14994   0.02907   0.17265   0.00000  Uiso   1.00
H40    H     0.13408   0.46984   0.31671   0.00000  Uiso   1.00
H41    H     0.23975   0.28632   0.04700   0.00000  Uiso   1.00
H42    H     0.11917   0.19095   0.45662   0.00000  Uiso   1.00
H43    H     0.23615   0.28736   0.13438   0.00000  Uiso   1.00
H44    H     0.11784   0.19365   0.36860   0.00000  Uiso   1.00
H45    H     0.09458   0.21535   0.02481   0.00000  Uiso   1.00
H46    H     0.21465   0.30872   0.47129   0.00000  Uiso   1.00
N47    N     0.16667   0.25001   0.12934   0.00000  Uiso   1.00
N48    N     0.16667   0.24999   0.37065   0.00000  Uiso   1.00
O49    O     0.16667   0.18573   0.29071   0.00000  Uiso   1.00
O50    O     0.16666   0.31428   0.20928   0.00000  Uiso   1.00
O51    O     0.16667   0.18573   0.20928   0.00000  Uiso   1.00
O52    O     0.16666   0.31427   0.29072   0.00000  Uiso   1.00
O53    O     0.09161   0.25000   0.28132   0.00000  Uiso   1.00
O54    O     0.24172   0.25001   0.21868   0.00000  Uiso   1.00
O55    O     0.09161   0.25000   0.19988   0.00000  Uiso   1.00
O56    O     0.24172   0.25000   0.30011   0.00000  Uiso   1.00
N57    N     0.08843   0.20560   0.11797   0.00000  Uiso   1.00
H58    H     0.05428   0.22277   0.11417   0.00000  Uiso   1.00
C59    C     0.08064   0.15988   0.10285   0.00000  Uiso   1.00
H60    H     0.05627   0.15760   0.06671   0.00000  Uiso   1.00
H61    H     0.06064   0.14208   0.12959   0.00000  Uiso   1.00
H62    H     0.11811   0.14365   0.10074   0.00000  Uiso   1.00
N63    N     0.22503   0.31278   0.37851   0.00000  Uiso   1.00
H64    H     0.21356   0.34471   0.38385   0.00000  Uiso   1.00
C65    C     0.28025   0.30795   0.39141   0.00000  Uiso   1.00
H66    H     0.29245   0.31711   0.43017   0.00000  Uiso   1.00
H67    H     0.30045   0.33005   0.36847   0.00000  Uiso   1.00
H68    H     0.29186   0.27341   0.38524   0.00000  Uiso   1.00
C69    C     0.50043   0.16493   0.24995   0.00000  Uiso   1.00
C70    C     0.50035   0.33498   0.25023   0.00000  Uiso   1.00
C71    C     0.54040   0.27075   0.05991   0.00000  Uiso   1.00
C72    C     0.47314   0.21755   0.44198   0.00000  Uiso   1.00
C73    C     0.53891   0.27084   0.11037   0.00000  Uiso   1.00
C74    C     0.47284   0.21855   0.39133   0.00000  Uiso   1.00
C75    C     0.46155   0.22868   0.09869   0.00000  Uiso   1.00
C76    C     0.52825   0.28111   0.39953   0.00000  Uiso   1.00
C77    C     0.46050   0.23009   0.04785   0.00000  Uiso   1.00
C78    C     0.52737   0.28232   0.45014   0.00000  Uiso   1.00
C79    C     0.50055   0.25036   0.02731   0.00000  Uiso   1.00
C80    C     0.50033   0.25003   0.47266   0.00000  Uiso   1.00
C81    C     0.40122   0.24996   0.23748   0.00000  Uiso   1.00
C82    C     0.59878   0.25008   0.26251   0.00000  Uiso   1.00
C83    C     0.34584   0.24995   0.23066   0.00000  Uiso   1.00
C84    C     0.65416   0.25013   0.26933   0.00000  Uiso   1.00
C85    C     0.51358   0.04821   0.29466   0.00000  Uiso   1.00
C86    C     0.52244   0.45190   0.21427   0.00000  Uiso   1.00
C87    C     0.51247   0.09409   0.29432   0.00000  Uiso   1.00
C88    C     0.52114   0.40602   0.21379   0.00000  Uiso   1.00
C89    C     0.50167   0.11663   0.25020   0.00000  Uiso   1.00
C90    C     0.50144   0.38314   0.25076   0.00000  Uiso   1.00
C91    C     0.49216   0.09263   0.20651   0.00000  Uiso   1.00
C92    C     0.48298   0.40655   0.28822   0.00000  Uiso   1.00
C93    C     0.49230   0.04676   0.20686   0.00000  Uiso   1.00
C94    C     0.48336   0.45247   0.28823   0.00000  Uiso   1.00
C95    C     0.50311   0.02413   0.25094   0.00000  Uiso   1.00
C96    C     0.50314   0.47554   0.25126   0.00000  Uiso   1.00
Cu97   Cu    0.50000   0.25000   0.29821   0.00000  Uiso   1.00
Cu98   Cu    0.50000   0.25001   0.20178   0.00000  Uiso   1.00
H99    H     0.65893   0.24979   0.19366   0.00000  Uiso   1.00
H100   H     0.34108   0.25029   0.30633   0.00000  Uiso   1.00
H101   H     0.52307   0.03164   0.32909   0.00000  Uiso   1.00
H102   H     0.53892   0.46882   0.18592   0.00000  Uiso   1.00
H103   H     0.52056   0.11188   0.32856   0.00000  Uiso   1.00
H104   H     0.53620   0.38844   0.18488   0.00000  Uiso   1.00
H105   H     0.48409   0.10924   0.17212   0.00000  Uiso   1.00
H106   H     0.46735   0.38938   0.31694   0.00000  Uiso   1.00
H107   H     0.48327   0.02907   0.17265   0.00000  Uiso   1.00
H108   H     0.46741   0.46984   0.31671   0.00000  Uiso   1.00
H109   H     0.57308   0.28632   0.04700   0.00000  Uiso   1.00
H110   H     0.45250   0.19095   0.45662   0.00000  Uiso   1.00
H111   H     0.56948   0.28736   0.13438   0.00000  Uiso   1.00
H112   H     0.45117   0.19365   0.36860   0.00000  Uiso   1.00
H113   H     0.42791   0.21535   0.02481   0.00000  Uiso   1.00
H114   H     0.54798   0.30872   0.47129   0.00000  Uiso   1.00
N115   N     0.50000   0.25001   0.12934   0.00000  Uiso   1.00
N116   N     0.50000   0.24999   0.37065   0.00000  Uiso   1.00
O117   O     0.50000   0.18573   0.29071   0.00000  Uiso   1.00
O118   O     0.50000   0.31428   0.20928   0.00000  Uiso   1.00
O119   O     0.50000   0.18573   0.20928   0.00000  Uiso   1.00
O120   O     0.50000   0.31427   0.29072   0.00000  Uiso   1.00
O121   O     0.42495   0.25000   0.28132   0.00000  Uiso   1.00
O122   O     0.57505   0.25001   0.21868   0.00000  Uiso   1.00
O123   O     0.42495   0.25000   0.19988   0.00000  Uiso   1.00
O124   O     0.57505   0.25000   0.30011   0.00000  Uiso   1.00
N125   N     0.42177   0.20560   0.11797   0.00000  Uiso   1.00
H126   H     0.38761   0.22277   0.11417   0.00000  Uiso   1.00
C127   C     0.41397   0.15988   0.10285   0.00000  Uiso   1.00
H128   H     0.38961   0.15760   0.06671   0.00000  Uiso   1.00
H129   H     0.39397   0.14208   0.12959   0.00000  Uiso   1.00
H130   H     0.45145   0.14365   0.10074   0.00000  Uiso   1.00
N131   N     0.55837   0.31278   0.37851   0.00000  Uiso   1.00
H132   H     0.54690   0.34471   0.38385   0.00000  Uiso   1.00
C133   C     0.61359   0.30795   0.39141   0.00000  Uiso   1.00
H134   H     0.62579   0.31711   0.43017   0.00000  Uiso   1.00
H135   H     0.63378   0.33005   0.36847   0.00000  Uiso   1.00
H136   H     0.62519   0.27341   0.38524   0.00000  Uiso   1.00
C137   C     0.83376   0.16493   0.24995   0.00000  Uiso   1.00
C138   C     0.83368   0.33498   0.25023   0.00000  Uiso   1.00
C139   C     0.87373   0.27075   0.05991   0.00000  Uiso   1.00
C140   C     0.80647   0.21755   0.44198   0.00000  Uiso   1.00
C141   C     0.87224   0.27084   0.11037   0.00000  Uiso   1.00
C142   C     0.80617   0.21855   0.39133   0.00000  Uiso   1.00
C143   C     0.79488   0.22868   0.09869   0.00000  Uiso   1.00
C144   C     0.86158   0.28111   0.39953   0.00000  Uiso   1.00
C145   C     0.79383   0.23009   0.04785   0.00000  Uiso   1.00
C146   C     0.86070   0.28232   0.45014   0.00000  Uiso   1.00
C147   C     0.83388   0.25036   0.02731   0.00000  Uiso   1.00
C148   C     0.83366   0.25003   0.47266   0.00000  Uiso   1.00
C149   C     0.73455   0.24996   0.23748   0.00000  Uiso   1.00
C150   C     0.93211   0.25008   0.26251   0.00000  Uiso   1.00
C151   C     0.67917   0.24995   0.23066   0.00000  Uiso   1.00
C152   C     0.98749   0.25013   0.26933   0.00000  Uiso   1.00
C153   C     0.84691   0.04821   0.29466   0.00000  Uiso   1.00
C154   C     0.85577   0.45190   0.21427   0.00000  Uiso   1.00
C155   C     0.84580   0.09409   0.29432   0.00000  Uiso   1.00
C156   C     0.85447   0.40602   0.21379   0.00000  Uiso   1.00
C157   C     0.83500   0.11663   0.25020   0.00000  Uiso   1.00
C158   C     0.83478   0.38314   0.25076   0.00000  Uiso   1.00
C159   C     0.82549   0.09263   0.20651   0.00000  Uiso   1.00
C160   C     0.81631   0.40655   0.28822   0.00000  Uiso   1.00
C161   C     0.82563   0.04676   0.20686   0.00000  Uiso   1.00
C162   C     0.81669   0.45247   0.28823   0.00000  Uiso   1.00
C163   C     0.83644   0.02413   0.25094   0.00000  Uiso   1.00
C164   C     0.83647   0.47554   0.25126   0.00000  Uiso   1.00
Cu165  Cu    0.83333   0.25000   0.29821   0.00000  Uiso   1.00
Cu166  Cu    0.83333   0.25001   0.20178   0.00000  Uiso   1.00
H167   H     0.99227   0.24979   0.19366   0.00000  Uiso   1.00
H168   H     0.67441   0.25029   0.30633   0.00000  Uiso   1.00
H169   H     0.85640   0.03164   0.32909   0.00000  Uiso   1.00
H170   H     0.87226   0.46882   0.18592   0.00000  Uiso   1.00
H171   H     0.85390   0.11188   0.32856   0.00000  Uiso   1.00
H172   H     0.86953   0.38844   0.18488   0.00000  Uiso   1.00
H173   H     0.81742   0.10924   0.17212   0.00000  Uiso   1.00
H174   H     0.80068   0.38938   0.31694   0.00000  Uiso   1.00
H175   H     0.81660   0.02907   0.17265   0.00000  Uiso   1.00
H176   H     0.80074   0.46984   0.31671   0.00000  Uiso   1.00
H177   H     0.90642   0.28632   0.04700   0.00000  Uiso   1.00
H178   H     0.78584   0.19095   0.45662   0.00000  Uiso   1.00
H179   H     0.90281   0.28736   0.13438   0.00000  Uiso   1.00
H180   H     0.78451   0.19365   0.36860   0.00000  Uiso   1.00
H181   H     0.76125   0.21535   0.02481   0.00000  Uiso   1.00
H182   H     0.88132   0.30872   0.47129   0.00000  Uiso   1.00
N183   N     0.83333   0.25001   0.12934   0.00000  Uiso   1.00
N184   N     0.83333   0.24999   0.37065   0.00000  Uiso   1.00
O185   O     0.83334   0.18573   0.29071   0.00000  Uiso   1.00
O186   O     0.83333   0.31428   0.20928   0.00000  Uiso   1.00
O187   O     0.83334   0.18573   0.20928   0.00000  Uiso   1.00
O188   O     0.83333   0.31427   0.29072   0.00000  Uiso   1.00
O189   O     0.75828   0.25000   0.28132   0.00000  Uiso   1.00
O190   O     0.90839   0.25001   0.21868   0.00000  Uiso   1.00
O191   O     0.75828   0.25000   0.19988   0.00000  Uiso   1.00
O192   O     0.90839   0.25000   0.30011   0.00000  Uiso   1.00
N193   N     0.75510   0.20560   0.11797   0.00000  Uiso   1.00
H194   H     0.72094   0.22277   0.11417   0.00000  Uiso   1.00
C195   C     0.74730   0.15988   0.10285   0.00000  Uiso   1.00
H196   H     0.72294   0.15760   0.06671   0.00000  Uiso   1.00
H197   H     0.72731   0.14208   0.12959   0.00000  Uiso   1.00
H198   H     0.78478   0.14365   0.10074   0.00000  Uiso   1.00
N199   N     0.89170   0.31278   0.37851   0.00000  Uiso   1.00
H200   H     0.88023   0.34471   0.38385   0.00000  Uiso   1.00
C201   C     0.94692   0.30795   0.39141   0.00000  Uiso   1.00
H202   H     0.95912   0.31711   0.43017   0.00000  Uiso   1.00
H203   H     0.96711   0.33005   0.36847   0.00000  Uiso   1.00
H204   H     0.95853   0.27341   0.38524   0.00000  Uiso   1.00
C205   C     0.16709   0.66493   0.24995   0.00000  Uiso   1.00
C206   C     0.16702   0.83498   0.25023   0.00000  Uiso   1.00
C207   C     0.20706   0.77075   0.05991   0.00000  Uiso   1.00
C208   C     0.13981   0.71755   0.44198   0.00000  Uiso   1.00
C209   C     0.20557   0.77084   0.11037   0.00000  Uiso   1.00
C210   C     0.13950   0.71855   0.39133   0.00000  Uiso   1.00
C211   C     0.12821   0.72868   0.09869   0.00000  Uiso   1.00
C212   C     0.19491   0.78111   0.39953   0.00000  Uiso   1.00
C213   C     0.12716   0.73009   0.04785   0.00000  Uiso   1.00
C214   C     0.19403   0.78232   0.45014   0.00000  Uiso   1.00
C215   C     0.16721   0.75036   0.02731   0.00000  Uiso   1.00
C216   C     0.16700   0.75003   0.47266   0.00000  Uiso   1.00
C217   C     0.06789   0.74996   0.23748   0.00000  Uiso   1.00
C218   C     0.26545   0.75008   0.26251   0.00000  Uiso   1.00
C219   C     0.01251   0.74995   0.23066   0.00000  Uiso   1.00
C220   C     0.32083   0.75013   0.26933   0.00000  Uiso   1.00
C221   C     0.18024   0.54821   0.29466   0.00000  Uiso   1.00
C222   C     0.18910   0.95190   0.21427   0.00000  Uiso   1.00
C223   C     0.17913   0.59409   0.29432   0.00000  Uiso   1.00
C224   C     0.18780   0.90602   0.21379   0.00000  Uiso   1.00
C225   C     0.16833   0.61663   0.25020   0.00000  Uiso   1.00
C226   C     0.16811   0.88314   0.25076   0.00000  Uiso   1.00
C227   C     0.15882   0.59263   0.20651   0.00000  Uiso   1.00
C228   C     0.14964   0.90655   0.28822   0.00000  Uiso   1.00
C229   C     0.15896   0.54676   0.20686   0.00000  Uiso   1.00
C230   C     0.15003   0.95247   0.28823   0.00000  Uiso   1.00
C231   C     0.16978   0.52413   0.25094   0.00000  Uiso   1.00
C232   C     0.16981   0.97554   0.25126   0.00000  Uiso   1.00
Cu233  Cu    0.16667   0.75000   0.29821   0.00000  Uiso   1.00
Cu234  Cu    0.16667   0.75001   0.20178   0.00000  Uiso   1.00
H235   H     0.32560   0.74979   0.19366   0.00000  Uiso   1.00
H236   H     0.00774   0.75029   0.30633   0.00000  Uiso   1.00
H237   H     0.18973   0.53164   0.32909   0.00000  Uiso   1.00
H238   H     0.20559   0.96882   0.18592   0.00000  Uiso   1.00
H239   H     0.18723   0.61188   0.32856   0.00000  Uiso   1.00
H240   H     0.20286   0.88844   0.18488   0.00000  Uiso   1.00
H241   H     0.15076   0.60924   0.17212   0.00000  Uiso   1.00
H242   H     0.13402   0.88938   0.31694   0.00000  Uiso   1.00
H243   H     0.14994   0.52907   0.17265   0.00000  Uiso   1.00
H244   H     0.13408   0.96984   0.31671   0.00000  Uiso   1.00
H245   H     0.23975   0.78632   0.04700   0.00000  Uiso   1.00
H246   H     0.11917   0.69095   0.45662   0.00000  Uiso   1.00
H247   H     0.23615   0.78736   0.13438   0.00000  Uiso   1.00
H248   H     0.11784   0.69365   0.36860   0.00000  Uiso   1.00
H249   H     0.09458   0.71535   0.02481   0.00000  Uiso   1.00
H250   H     0.21465   0.80872   0.47129   0.00000  Uiso   1.00
N251   N     0.16667   0.75001   0.12934   0.00000  Uiso   1.00
N252   N     0.16667   0.74999   0.37065   0.00000  Uiso   1.00
O253   O     0.16667   0.68573   0.29071   0.00000  Uiso   1.00
O254   O     0.16666   0.81428   0.20928   0.00000  Uiso   1.00
O255   O     0.16667   0.68573   0.20928   0.00000  Uiso   1.00
O256   O     0.16666   0.81427   0.29072   0.00000  Uiso   1.00
O257   O     0.09161   0.75000   0.28132   0.00000  Uiso   1.00
O258   O     0.24172   0.75001   0.21868   0.00000  Uiso   1.00
O259   O     0.09161   0.75000   0.19988   0.00000  Uiso   1.00
O260   O     0.24172   0.75000   0.30011   0.00000  Uiso   1.00
N261   N     0.08843   0.70560   0.11797   0.00000  Uiso   1.00
H262   H     0.05428   0.72277   0.11417   0.00000  Uiso   1.00
C263   C     0.08064   0.65988   0.10285   0.00000  Uiso   1.00
H264   H     0.05627   0.65760   0.06671   0.00000  Uiso   1.00
H265   H     0.06064   0.64208   0.12959   0.00000  Uiso   1.00
H266   H     0.11811   0.64365   0.10074   0.00000  Uiso   1.00
N267   N     0.22503   0.81278   0.37851   0.00000  Uiso   1.00
H268   H     0.21356   0.84471   0.38385   0.00000  Uiso   1.00
C269   C     0.28025   0.80795   0.39141   0.00000  Uiso   1.00
H270   H     0.29245   0.81711   0.43017   0.00000  Uiso   1.00
H271   H     0.30045   0.83005   0.36847   0.00000  Uiso   1.00
H272   H     0.29186   0.77341   0.38524   0.00000  Uiso   1.00
C273   C     0.50043   0.66493   0.24995   0.00000  Uiso   1.00
C274   C     0.50035   0.83498   0.25023   0.00000  Uiso   1.00
C275   C     0.54040   0.77075   0.05991   0.00000  Uiso   1.00
C276   C     0.47314   0.71755   0.44198   0.00000  Uiso   1.00
C277   C     0.53891   0.77084   0.11037   0.00000  Uiso   1.00
C278   C     0.47284   0.71855   0.39133   0.00000  Uiso   1.00
C279   C     0.46155   0.72868   0.09869   0.00000  Uiso   1.00
C280   C     0.52825   0.78111   0.39953   0.00000  Uiso   1.00
C281   C     0.46050   0.73009   0.04785   0.00000  Uiso   1.00
C282   C     0.52737   0.78232   0.45014   0.00000  Uiso   1.00
C283   C     0.50055   0.75036   0.02731   0.00000  Uiso   1.00
C284   C     0.50033   0.75003   0.47266   0.00000  Uiso   1.00
C285   C     0.40122   0.74996   0.23748   0.00000  Uiso   1.00
C286   C     0.59878   0.75008   0.26251   0.00000  Uiso   1.00
C287   C     0.34584   0.74995   0.23066   0.00000  Uiso   1.00
C288   C     0.65416   0.75013   0.26933   0.00000  Uiso   1.00
C289   C     0.51358   0.54821   0.29466   0.00000  Uiso   1.00
C290   C     0.52244   0.95190   0.21427   0.00000  Uiso   1.00
C291   C     0.51247   0.59409   0.29432   0.00000  Uiso   1.00
C292   C     0.52114   0.90602   0.21379   0.00000  Uiso   1.00
C293   C     0.50167   0.61663   0.25020   0.00000  Uiso   1.00
C294   C     0.50144   0.88314   0.25076   0.00000  Uiso   1.00
C295   C     0.49216   0.59263   0.20651   0.00000  Uiso   1.00
C296   C     0.48298   0.90655   0.28822   0.00000  Uiso   1.00
C297   C     0.49230   0.54676   0.20686   0.00000  Uiso   1.00
C298   C     0.48336   0.95247   0.28823   0.00000  Uiso   1.00
C299   C     0.50311   0.52413   0.25094   0.00000  Uiso   1.00
C300   C     0.50314   0.97554   0.25126   0.00000  Uiso   1.00
Cu301  Cu    0.50000   0.75000   0.29821   0.00000  Uiso   1.00
Cu302  Cu    0.50000   0.75001   0.20178   0.00000  Uiso   1.00
H303   H     0.65893   0.74979   0.19366   0.00000  Uiso   1.00
H304   H     0.34108   0.75029   0.30633   0.00000  Uiso   1.00
H305   H     0.52307   0.53164   0.32909   0.00000  Uiso   1.00
H306   H     0.53892   0.96882   0.18592   0.00000  Uiso   1.00
H307   H     0.52056   0.61188   0.32856   0.00000  Uiso   1.00
H308   H     0.53620   0.88844   0.18488   0.00000  Uiso   1.00
H309   H     0.48409   0.60924   0.17212   0.00000  Uiso   1.00
H310   H     0.46735   0.88938   0.31694   0.00000  Uiso   1.00
H311   H     0.48327   0.52907   0.17265   0.00000  Uiso   1.00
H312   H     0.46741   0.96984   0.31671   0.00000  Uiso   1.00
H313   H     0.57308   0.78632   0.04700   0.00000  Uiso   1.00
H314   H     0.45250   0.69095   0.45662   0.00000  Uiso   1.00
H315   H     0.56948   0.78736   0.13438   0.00000  Uiso   1.00
H316   H     0.45117   0.69365   0.36860   0.00000  Uiso   1.00
H317   H     0.42791   0.71535   0.02481   0.00000  Uiso   1.00
H318   H     0.54798   0.80872   0.47129   0.00000  Uiso   1.00
N319   N     0.50000   0.75001   0.12934   0.00000  Uiso   1.00
N320   N     0.50000   0.74999   0.37065   0.00000  Uiso   1.00
O321   O     0.50000   0.68573   0.29071   0.00000  Uiso   1.00
O322   O     0.50000   0.81428   0.20928   0.00000  Uiso   1.00
O323   O     0.50000   0.68573   0.20928   0.00000  Uiso   1.00
O324   O     0.50000   0.81427   0.29072   0.00000  Uiso   1.00
O325   O     0.42495   0.75000   0.28132   0.00000  Uiso   1.00
O326   O     0.57505   0.75001   0.21868   0.00000  Uiso   1.00
O327   O     0.42495   0.75000   0.19988   0.00000  Uiso   1.00
O328   O     0.57505   0.75000   0.30011   0.00000  Uiso   1.00
N329   N     0.42177   0.70560   0.11797   0.00000  Uiso   1.00
H330   H     0.38761   0.72277   0.11417   0.00000  Uiso   1.00
C331   C     0.41397   0.65988   0.10285   0.00000  Uiso   1.00
H332   H     0.38961   0.65760   0.06671   0.00000  Uiso   1.00
H333   H     0.39397   0.64208   0.12959   0.00000  Uiso   1.00
H334   H     0.45145   0.64365   0.10074   0.00000  Uiso   1.00
N335   N     0.55837   0.81278   0.37851   0.00000  Uiso   1.00
H336   H     0.54690   0.84471   0.38385   0.00000  Uiso   1.00
C337   C     0.61359   0.80795   0.39141   0.00000  Uiso   1.00
H338   H     0.62579   0.81711   0.43017   0.00000  Uiso   1.00
H339   H     0.63378   0.83005   0.36847   0.00000  Uiso   1.00
H340   H     0.62519   0.77341   0.38524   0.00000  Uiso   1.00
C341   C     0.83376   0.66493   0.24995   0.00000  Uiso   1.00
C342   C     0.83368   0.83498   0.25023   0.00000  Uiso   1.00
C343   C     0.87373   0.77075   0.05991   0.00000  Uiso   1.00
C344   C     0.80647   0.71755   0.44198   0.00000  Uiso   1.00
C345   C     0.87224   0.77084   0.11037   0.00000  Uiso   1.00
C346   C     0.80617   0.71855   0.39133   0.00000  Uiso   1.00
C347   C     0.79488   0.72868   0.09869   0.00000  Uiso   1.00
C348   C     0.86158   0.78111   0.39953   0.00000  Uiso   1.00
C349   C     0.79383   0.73009   0.04785   0.00000  Uiso   1.00
C350   C     0.86070   0.78232   0.45014   0.00000  Uiso   1.00
C351   C     0.83388   0.75036   0.02731   0.00000  Uiso   1.00
C352   C     0.83366   0.75003   0.47266   0.00000  Uiso   1.00
C353   C     0.73455   0.74996   0.23748   0.00000  Uiso   1.00
C354   C     0.93211   0.75008   0.26251   0.00000  Uiso   1.00
C355   C     0.67917   0.74995   0.23066   0.00000  Uiso   1.00
C356   C     0.98749   0.75013   0.26933   0.00000  Uiso   1.00
C357   C     0.84691   0.54821   0.29466   0.00000  Uiso   1.00
C358   C     0.85577   0.95190   0.21427   0.00000  Uiso   1.00
C359   C     0.84580   0.59409   0.29432   0.00000  Uiso   1.00
C360   C     0.85447   0.90602   0.21379   0.00000  Uiso   1.00
C361   C     0.83500   0.61663   0.25020   0.00000  Uiso   1.00
C362   C     0.83478   0.88314   0.25076   0.00000  Uiso   1.00
C363   C     0.82549   0.59263   0.20651   0.00000  Uiso   1.00
C364   C     0.81631   0.90655   0.28822   0.00000  Uiso   1.00
C365   C     0.82563   0.54676   0.20686   0.00000  Uiso   1.00
C366   C     0.81669   0.95247   0.28823   0.00000  Uiso   1.00
C367   C     0.83644   0.52413   0.25094   0.00000  Uiso   1.00
C368   C     0.83647   0.97554   0.25126   0.00000  Uiso   1.00
Cu369  Cu    0.83333   0.75000   0.29821   0.00000  Uiso   1.00
Cu370  Cu    0.83333   0.75001   0.20178   0.00000  Uiso   1.00
H371   H     0.99227   0.74979   0.19366   0.00000  Uiso   1.00
H372   H     0.67441   0.75029   0.30633   0.00000  Uiso   1.00
H373   H     0.85640   0.53164   0.32909   0.00000  Uiso   1.00
H374   H     0.87226   0.96882   0.18592   0.00000  Uiso   1.00
H375   H     0.85390   0.61188   0.32856   0.00000  Uiso   1.00
H376   H     0.86953   0.88844   0.18488   0.00000  Uiso   1.00
H377   H     0.81742   0.60924   0.17212   0.00000  Uiso   1.00
H378   H     0.80068   0.88938   0.31694   0.00000  Uiso   1.00
H379   H     0.81660   0.52907   0.17265   0.00000  Uiso   1.00
H380   H     0.80074   0.96984   0.31671   0.00000  Uiso   1.00
H381   H     0.90642   0.78632   0.04700   0.00000  Uiso   1.00
H382   H     0.78584   0.69095   0.45662   0.00000  Uiso   1.00
H383   H     0.90281   0.78736   0.13438   0.00000  Uiso   1.00
H384   H     0.78451   0.69365   0.36860   0.00000  Uiso   1.00
H385   H     0.76125   0.71535   0.02481   0.00000  Uiso   1.00
H386   H     0.88132   0.80872   0.47129   0.00000  Uiso   1.00
N387   N     0.83333   0.75001   0.12934   0.00000  Uiso   1.00
N388   N     0.83333   0.74999   0.37065   0.00000  Uiso   1.00
O389   O     0.83334   0.68573   0.29071   0.00000  Uiso   1.00
O390   O     0.83333   0.81428   0.20928   0.00000  Uiso   1.00
O391   O     0.83334   0.68573   0.20928   0.00000  Uiso   1.00
O392   O     0.83333   0.81427   0.29072   0.00000  Uiso   1.00
O393   O     0.75828   0.75000   0.28132   0.00000  Uiso   1.00
O394   O     0.90839   0.75001   0.21868   0.00000  Uiso   1.00
O395   O     0.75828   0.75000   0.19988   0.00000  Uiso   1.00
O396   O     0.90839   0.75000   0.30011   0.00000  Uiso   1.00
N397   N     0.75510   0.70560   0.11797   0.00000  Uiso   1.00
H398   H     0.72094   0.72277   0.11417   0.00000  Uiso   1.00
C399   C     0.74730   0.65988   0.10285   0.00000  Uiso   1.00
H400   H     0.72294   0.65760   0.06671   0.00000  Uiso   1.00
H401   H     0.72731   0.64208   0.12959   0.00000  Uiso   1.00
H402   H     0.78478   0.64365   0.10074   0.00000  Uiso   1.00
N403   N     0.89170   0.81278   0.37851   0.00000  Uiso   1.00
H404   H     0.88023   0.84471   0.38385   0.00000  Uiso   1.00
C405   C     0.94692   0.80795   0.39141   0.00000  Uiso   1.00
H406   H     0.95912   0.81711   0.43017   0.00000  Uiso   1.00
H407   H     0.96711   0.83005   0.36847   0.00000  Uiso   1.00
H408   H     0.95853   0.77341   0.38524   0.00000  Uiso   1.00
C409   C     0.16709   0.16493   0.74995   0.00000  Uiso   1.00
C410   C     0.16702   0.33498   0.75023   0.00000  Uiso   1.00
C411   C     0.20706   0.27075   0.55991   0.00000  Uiso   1.00
C412   C     0.13981   0.21755   0.94198   0.00000  Uiso   1.00
C413   C     0.20557   0.27084   0.61037   0.00000  Uiso   1.00
C414   C     0.13950   0.21855   0.89133   0.00000  Uiso   1.00
C415   C     0.12821   0.22868   0.59869   0.00000  Uiso   1.00
C416   C     0.19491   0.28111   0.89953   0.00000  Uiso   1.00
C417   C     0.12716   0.23009   0.54785   0.00000  Uiso   1.00
C418   C     0.19403   0.28232   0.95014   0.00000  Uiso   1.00
C419   C     0.16721   0.25036   0.52731   0.00000  Uiso   1.00
C420   C     0.16700   0.25003   0.97266   0.00000  Uiso   1.00
C421   C     0.06789   0.24996   0.73748   0.00000  Uiso   1.00
C422   C     0.26545   0.25008   0.76251   0.00000  Uiso   1.00
C423   C     0.01251   0.24995   0.73066   0.00000  Uiso   1.00
C424   C     0.32083   0.25013   0.76933   0.00000  Uiso   1.00
C425   C     0.18024   0.04821   0.79466   0.00000  Uiso   1.00
C426   C     0.18910   0.45190   0.71427   0.00000  Uiso   1.00
C427   C     0.17913   0.09409   0.79432   0.00000  Uiso   1.00
C428   C     0.18780   0.40602   0.71379   0.00000  Uiso   1.00
C429   C     0.16833   0.11663   0.75020   0.00000  Uiso   1.00
C430   C     0.16811   0.38314   0.75076   0.00000  Uiso   1.00
C431   C     0.15882   0.09263   0.70651   0.00000  Uiso   1.00
C432   C     0.14964   0.40655   0.78822   0.00000  Uiso   1.00
C433   C     0.15896   0.04676   0.70686   0.00000  Uiso   1.00
C434   C     0.15003   0.45247   0.78823   0.00000  Uiso   1.00
C435   C     0.16978   0.02413   0.75094   0.00000  Uiso   1.00
C436   C     0.16981   0.47554   0.75126   0.00000  Uiso   1.00
Cu437  Cu    0.16667   0.25000   0.79821   0.00000  Uiso   1.00
Cu438  Cu    0.16667   0.25001   0.70178   0.00000  Uiso   1.00
H439   H     0.32560   0.24979   0.69366   0.00000  Uiso   1.00
H440   H     0.00774   0.25029   0.80633   0.00000  Uiso   1.00
H441   H     0.18973   0.03164   0.82909   0.00000  Uiso   1.00
H442   H     0.20559   0.46882   0.68592   0.00000  Uiso   1.00
H443   H     0.18723   0.11188   0.82856   0.00000  Uiso   1.00
H444   H     0.20286   0.38844   0.68488   0.00000  Uiso   1.00
H445   H     0.15076   0.10924   0.67212   0.00000  Uiso   1.00
H446   H     0.13402   0.38938   0.81694   0.00000  Uiso   1.00
H447   H     0.14994   0.02907   0.67265   0.00000  Uiso   1.00
H448   H     0.13408   0.46984   0.81671   0.00000  Uiso   1.00
H449   H     0.23975   0.28632   0.54700   0.00000  Uiso   1.00
H450   H     0.11917   0.19095   0.95662   0.00000  Uiso   1.00
H451   H     0.23615   0.28736   0.63438   0.00000  Uiso   1.00
H452   H     0.11784   0.19365   0.86860   0.00000  Uiso   1.00
H453   H     0.09458   0.21535   0.52481   0.00000  Uiso   1.00
H454   H     0.21465   0.30872   0.97129   0.00000  Uiso   1.00
N455   N     0.16667   0.25001   0.62934   0.00000  Uiso   1.00
N456   N     0.16667   0.24999   0.87065   0.00000  Uiso   1.00
O457   O     0.16667   0.18573   0.79071   0.00000  Uiso   1.00
O458   O     0.16666   0.31428   0.70928   0.00000  Uiso   1.00
O459   O     0.16667   0.18573   0.70928   0.00000  Uiso   1.00
O460   O     0.16666   0.31427   0.79072   0.00000  Uiso   1.00
O461   O     0.09161   0.25000   0.78132   0.00000  Uiso   1.00
O462   O     0.24172   0.25001   0.71868   0.00000  Uiso   1.00
O463   O     0.09161   0.25000   0.69988   0.00000  Uiso   1.00
O464   O     0.24172   0.25000   0.80011   0.00000  Uiso   1.00
N465   N     0.08843   0.20560   0.61797   0.00000  Uiso   1.00
H466   H     0.05428   0.22277   0.61417   0.00000  Uiso   1.00
C467   C     0.08064   0.15988   0.60285   0.00000  Uiso   1.00
H468   H     0.05627   0.15760   0.56671   0.00000  Uiso   1.00
H469   H     0.06064   0.14208   0.62959   0.00000  Uiso   1.00
H470   H     0.11811   0.14365   0.60074   0.00000  Uiso   1.00
N471   N     0.22503   0.31278   0.87851   0.00000  Uiso   1.00
H472   H     0.21356   0.34471   0.88385   0.00000  Uiso   1.00
C473   C     0.28025   0.30795   0.89141   0.00000  Uiso   1.00
H474   H     0.29245   0.31711   0.93017   0.00000  Uiso   1.00
H475   H     0.30045   0.33005   0.86847   0.00000  Uiso   1.00
H476   H     0.29186   0.27341   0.88524   0.00000  Uiso   1.00
C477   C     0.50043   0.16493   0.74995   0.00000  Uiso   1.00
C478   C     0.50035   0.33498   0.75023   0.00000  Uiso   1.00
C479   C     0.54040   0.27075   0.55991   0.00000  Uiso   1.00
C480   C     0.47314   0.21755   0.94198   0.00000  Uiso   1.00
C481   C     0.53891   0.27084   0.61037   0.00000  Uiso   1.00
C482   C     0.47284   0.21855   0.89133   0.00000  Uiso   1.00
C483   C     0.46155   0.22868   0.59869   0.00000  Uiso   1.00
C484   C     0.52825   0.28111   0.89953   0.00000  Uiso   1.00
C485   C     0.46050   0.23009   0.54785   0.00000  Uiso   1.00
C486   C     0.52737   0.28232   0.95014   0.00000  Uiso   1.00
C487   C     0.50055   0.25036   0.52731   0.00000  Uiso   1.00
C488   C     0.50033   0.25003   0.97266   0.00000  Uiso   1.00
C489   C     0.40122   0.24996   0.73748   0.00000  Uiso   1.00
C490   C     0.59878   0.25008   0.76251   0.00000  Uiso   1.00
C491   C     0.34584   0.24995   0.73066   0.00000  Uiso   1.00
C492   C     0.65416   0.25013   0.76933   0.00000  Uiso   1.00
C493   C     0.51358   0.04821   0.79466   0.00000  Uiso   1.00
C494   C     0.52244   0.45190   0.71427   0.00000  Uiso   1.00
C495   C     0.51247   0.09409   0.79432   0.00000  Uiso   1.00
C496   C     0.52114   0.40602   0.71379   0.00000  Uiso   1.00
C497   C     0.50167   0.11663   0.75020   0.00000  Uiso   1.00
C498   C     0.50144   0.38314   0.75076   0.00000  Uiso   1.00
C499   C     0.49216   0.09263   0.70651   0.00000  Uiso   1.00
C500   C     0.48298   0.40655   0.78822   0.00000  Uiso   1.00
C501   C     0.49230   0.04676   0.70686   0.00000  Uiso   1.00
C502   C     0.48336   0.45247   0.78823   0.00000  Uiso   1.00
C503   C     0.50311   0.02413   0.75094   0.00000  Uiso   1.00
C504   C     0.50314   0.47554   0.75126   0.00000  Uiso   1.00
Cu505  Cu    0.50000   0.25000   0.79821   0.00000  Uiso   1.00
Cu506  Cu    0.50000   0.25001   0.70178   0.00000  Uiso   1.00
H507   H     0.65893   0.24979   0.69366   0.00000  Uiso   1.00
H508   H     0.34108   0.25029   0.80633   0.00000  Uiso   1.00
H509   H     0.52307   0.03164   0.82909   0.00000  Uiso   1.00
H510   H     0.53892   0.46882   0.68592   0.00000  Uiso   1.00
H511   H     0.52056   0.11188   0.82856   0.00000  Uiso   1.00
H512   H     0.53620   0.38844   0.68488   0.00000  Uiso   1.00
H513   H     0.48409   0.10924   0.67212   0.00000  Uiso   1.00
H514   H     0.46735   0.38938   0.81694   0.00000  Uiso   1.00
H515   H     0.48327   0.02907   0.67265   0.00000  Uiso   1.00
H516   H     0.46741   0.46984   0.81671   0.00000  Uiso   1.00
H517   H     0.57308   0.28632   0.54700   0.00000  Uiso   1.00
H518   H     0.45250   0.19095   0.95662   0.00000  Uiso   1.00
H519   H     0.56948   0.28736   0.63438   0.00000  Uiso   1.00
H520   H     0.45117   0.19365   0.86860   0.00000  Uiso   1.00
H521   H     0.42791   0.21535   0.52481   0.00000  Uiso   1.00
H522   H     0.54798   0.30872   0.97129   0.00000  Uiso   1.00
N523   N     0.50000   0.25001   0.62934   0.00000  Uiso   1.00
N524   N     0.50000   0.24999   0.87065   0.00000  Uiso   1.00
O525   O     0.50000   0.18573   0.79071   0.00000  Uiso   1.00
O526   O     0.50000   0.31428   0.70928   0.00000  Uiso   1.00
O527   O     0.50000   0.18573   0.70928   0.00000  Uiso   1.00
O528   O     0.50000   0.31427   0.79072   0.00000  Uiso   1.00
O529   O     0.42495   0.25000   0.78132   0.00000  Uiso   1.00
O530   O     0.57505   0.25001   0.71868   0.00000  Uiso   1.00
O531   O     0.42495   0.25000   0.69988   0.00000  Uiso   1.00
O532   O     0.57505   0.25000   0.80011   0.00000  Uiso   1.00
N533   N     0.42177   0.20560   0.61797   0.00000  Uiso   1.00
H534   H     0.38761   0.22277   0.61417   0.00000  Uiso   1.00
C535   C     0.41397   0.15988   0.60285   0.00000  Uiso   1.00
H536   H     0.38961   0.15760   0.56671   0.00000  Uiso   1.00
H537   H     0.39397   0.14208   0.62959   0.00000  Uiso   1.00
H538   H     0.45145   0.14365   0.60074   0.00000  Uiso   1.00
N539   N     0.55837   0.31278   0.87851   0.00000  Uiso   1.00
H540   H     0.54690   0.34471   0.88385   0.00000  Uiso   1.00
C541   C     0.61359   0.30795   0.89141   0.00000  Uiso   1.00
H542   H     0.62579   0.31711   0.93017   0.00000  Uiso   1.00
H543   H     0.63378   0.33005   0.86847   0.00000  Uiso   1.00
H544   H     0.62519   0.27341   0.88524   0.00000  Uiso   1.00
C545   C     0.83376   0.16493   0.74995   0.00000  Uiso   1.00
C546   C     0.83368   0.33498   0.75023   0.00000  Uiso   1.00
C547   C     0.87373   0.27075   0.55991   0.00000  Uiso   1.00
C548   C     0.80647   0.21755   0.94198   0.00000  Uiso   1.00
C549   C     0.87224   0.27084   0.61037   0.00000  Uiso   1.00
C550   C     0.80617   0.21855   0.89133   0.00000  Uiso   1.00
C551   C     0.79488   0.22868   0.59869   0.00000  Uiso   1.00
C552   C     0.86158   0.28111   0.89953   0.00000  Uiso   1.00
C553   C     0.79383   0.23009   0.54785   0.00000  Uiso   1.00
C554   C     0.86070   0.28232   0.95014   0.00000  Uiso   1.00
C555   C     0.83388   0.25036   0.52731   0.00000  Uiso   1.00
C556   C     0.83366   0.25003   0.97266   0.00000  Uiso   1.00
C557   C     0.73455   0.24996   0.73748   0.00000  Uiso   1.00
C558   C     0.93211   0.25008   0.76251   0.00000  Uiso   1.00
C559   C     0.67917   0.24995   0.73066   0.00000  Uiso   1.00
C560   C     0.98749   0.25013   0.76933   0.00000  Uiso   1.00
C561   C     0.84691   0.04821   0.79466   0.00000  Uiso   1.00
C562   C     0.85577   0.45190   0.71427   0.00000  Uiso   1.00
C563   C     0.84580   0.09409   0.79432   0.00000  Uiso   1.00
C564   C     0.85447   0.40602   0.71379   0.00000  Uiso   1.00
C565   C     0.83500   0.11663   0.75020   0.00000  Uiso   1.00
C566   C     0.83478   0.38314   0.75076   0.00000  Uiso   1.00
C567   C     0.82549   0.09263   0.70651   0.00000  Uiso   1.00
C568   C     0.81631   0.40655   0.78822   0.00000  Uiso   1.00
C569   C     0.82563   0.04676   0.70686   0.00000  Uiso   1.00
C570   C     0.81669   0.45247   0.78823   0.00000  Uiso   1.00
C571   C     0.83644   0.02413   0.75094   0.00000  Uiso   1.00
C572   C     0.83647   0.47554   0.75126   0.00000  Uiso   1.00
Cu573  Cu    0.83333   0.25000   0.79821   0.00000  Uiso   1.00
Cu574  Cu    0.83333   0.25001   0.70178   0.00000  Uiso   1.00
H575   H     0.99227   0.24979   0.69366   0.00000  Uiso   1.00
H576   H     0.67441   0.25029   0.80633   0.00000  Uiso   1.00
H577   H     0.85640   0.03164   0.82909   0.00000  Uiso   1.00
H578   H     0.87226   0.46882   0.68592   0.00000  Uiso   1.00
H579   H     0.85390   0.11188   0.82856   0.00000  Uiso   1.00
H580   H     0.86953   0.38844   0.68488   0.00000  Uiso   1.00
H581   H     0.81742   0.10924   0.67212   0.00000  Uiso   1.00
H582   H     0.80068   0.38938   0.81694   0.00000  Uiso   1.00
H583   H     0.81660   0.02907   0.67265   0.00000  Uiso   1.00
H584   H     0.80074   0.46984   0.81671   0.00000  Uiso   1.00
H585   H     0.90642   0.28632   0.54700   0.00000  Uiso   1.00
H586   H     0.78584   0.19095   0.95662   0.00000  Uiso   1.00
H587   H     0.90281   0.28736   0.63438   0.00000  Uiso   1.00
H588   H     0.78451   0.19365   0.86860   0.00000  Uiso   1.00
H589   H     0.76125   0.21535   0.52481   0.00000  Uiso   1.00
H590   H     0.88132   0.30872   0.97129   0.00000  Uiso   1.00
N591   N     0.83333   0.25001   0.62934   0.00000  Uiso   1.00
N592   N     0.83333   0.24999   0.87065   0.00000  Uiso   1.00
O593   O     0.83334   0.18573   0.79071   0.00000  Uiso   1.00
O594   O     0.83333   0.31428   0.70928   0.00000  Uiso   1.00
O595   O     0.83334   0.18573   0.70928   0.00000  Uiso   1.00
O596   O     0.83333   0.31427   0.79072   0.00000  Uiso   1.00
O597   O     0.75828   0.25000   0.78132   0.00000  Uiso   1.00
O598   O     0.90839   0.25001   0.71868   0.00000  Uiso   1.00
O599   O     0.75828   0.25000   0.69988   0.00000  Uiso   1.00
O600   O     0.90839   0.25000   0.80011   0.00000  Uiso   1.00
N601   N     0.75510   0.20560   0.61797   0.00000  Uiso   1.00
H602   H     0.72094   0.22277   0.61417   0.00000  Uiso   1.00
C603   C     0.74730   0.15988   0.60285   0.00000  Uiso   1.00
H604   H     0.72294   0.15760   0.56671   0.00000  Uiso   1.00
H605   H     0.72731   0.14208   0.62959   0.00000  Uiso   1.00
H606   H     0.78478   0.14365   0.60074   0.00000  Uiso   1.00
N607   N     0.89170   0.31278   0.87851   0.00000  Uiso   1.00
H608   H     0.88023   0.34471   0.88385   0.00000  Uiso   1.00
C609   C     0.94692   0.30795   0.89141   0.00000  Uiso   1.00
H610   H     0.95912   0.31711   0.93017   0.00000  Uiso   1.00
H611   H     0.96711   0.33005   0.86847   0.00000  Uiso   1.00
H612   H     0.95853   0.27341   0.88524   0.00000  Uiso   1.00
C613   C     0.16709   0.66493   0.74995   0.00000  Uiso   1.00
C614   C     0.16702   0.83498   0.75023   0.00000  Uiso   1.00
C615   C     0.20706   0.77075   0.55991   0.00000  Uiso   1.00
C616   C     0.13981   0.71755   0.94198   0.00000  Uiso   1.00
C617   C     0.20557   0.77084   0.61037   0.00000  Uiso   1.00
C618   C     0.13950   0.71855   0.89133   0.00000  Uiso   1.00
C619   C     0.12821   0.72868   0.59869   0.00000  Uiso   1.00
C620   C     0.19491   0.78111   0.89953   0.00000  Uiso   1.00
C621   C     0.12716   0.73009   0.54785   0.00000  Uiso   1.00
C622   C     0.19403   0.78232   0.95014   0.00000  Uiso   1.00
C623   C     0.16721   0.75036   0.52731   0.00000  Uiso   1.00
C624   C     0.16700   0.75003   0.97266   0.00000  Uiso   1.00
C625   C     0.06789   0.74996   0.73748   0.00000  Uiso   1.00
C626   C     0.26545   0.75008   0.76251   0.00000  Uiso   1.00
C627   C     0.01251   0.74995   0.73066   0.00000  Uiso   1.00
C628   C     0.32083   0.75013   0.76933   0.00000  Uiso   1.00
C629   C     0.18024   0.54821   0.79466   0.00000  Uiso   1.00
C630   C     0.18910   0.95190   0.71427   0.00000  Uiso   1.00
C631   C     0.17913   0.59409   0.79432   0.00000  Uiso   1.00
C632   C     0.18780   0.90602   0.71379   0.00000  Uiso   1.00
C633   C     0.16833   0.61663   0.75020   0.00000  Uiso   1.00
C634   C     0.16811   0.88314   0.75076   0.00000  Uiso   1.00
C635   C     0.15882   0.59263   0.70651   0.00000  Uiso   1.00
C636   C     0.14964   0.90655   0.78822   0.00000  Uiso   1.00
C637   C     0.15896   0.54676   0.70686   0.00000  Uiso   1.00
C638   C     0.15003   0.95247   0.78823   0.00000  Uiso   1.00
C639   C     0.16978   0.52413   0.75094   0.00000  Uiso   1.00
C640   C     0.16981   0.97554   0.75126   0.00000  Uiso   1.00
Cu641  Cu    0.16667   0.75000   0.79821   0.00000  Uiso   1.00
Cu642  Cu    0.16667   0.75001   0.70178   0.00000  Uiso   1.00
H643   H     0.32560   0.74979   0.69366   0.00000  Uiso   1.00
H644   H     0.00774   0.75029   0.80633   0.00000  Uiso   1.00
H645   H     0.18973   0.53164   0.82909   0.00000  Uiso   1.00
H646   H     0.20559   0.96882   0.68592   0.00000  Uiso   1.00
H647   H     0.18723   0.61188   0.82856   0.00000  Uiso   1.00
H648   H     0.20286   0.88844   0.68488   0.00000  Uiso   1.00
H649   H     0.15076   0.60924   0.67212   0.00000  Uiso   1.00
H650   H     0.13402   0.88938   0.81694   0.00000  Uiso   1.00
H651   H     0.14994   0.52907   0.67265   0.00000  Uiso   1.00
H652   H     0.13408   0.96984   0.81671   0.00000  Uiso   1.00
H653   H     0.23975   0.78632   0.54700   0.00000  Uiso   1.00
H654   H     0.11917   0.69095   0.95662   0.00000  Uiso   1.00
H655   H     0.23615   0.78736   0.63438   0.00000  Uiso   1.00
H656   H     0.11784   0.69365   0.86860   0.00000  Uiso   1.00
H657   H     0.09458   0.71535   0.52481   0.00000  Uiso   1.00
H658   H     0.21465   0.80872   0.97129   0.00000  Uiso   1.00
N659   N     0.16667   0.75001   0.62934   0.00000  Uiso   1.00
N660   N     0.16667   0.74999   0.87065   0.00000  Uiso   1.00
O661   O     0.16667   0.68573   0.79071   0.00000  Uiso   1.00
O662   O     0.16666   0.81428   0.70928   0.00000  Uiso   1.00
O663   O     0.16667   0.68573   0.70928   0.00000  Uiso   1.00
O664   O     0.16666   0.81427   0.79072   0.00000  Uiso   1.00
O665   O     0.09161   0.75000   0.78132   0.00000  Uiso   1.00
O666   O     0.24172   0.75001   0.71868   0.00000  Uiso   1.00
O667   O     0.09161   0.75000   0.69988   0.00000  Uiso   1.00
O668   O     0.24172   0.75000   0.80011   0.00000  Uiso   1.00
N669   N     0.08843   0.70560   0.61797   0.00000  Uiso   1.00
H670   H     0.05428   0.72277   0.61417   0.00000  Uiso   1.00
C671   C     0.08064   0.65988   0.60285   0.00000  Uiso   1.00
H672   H     0.05627   0.65760   0.56671   0.00000  Uiso   1.00
H673   H     0.06064   0.64208   0.62959   0.00000  Uiso   1.00
H674   H     0.11811   0.64365   0.60074   0.00000  Uiso   1.00
N675   N     0.22503   0.81278   0.87851   0.00000  Uiso   1.00
H676   H     0.21356   0.84471   0.88385   0.00000  Uiso   1.00
C677   C     0.28025   0.80795   0.89141   0.00000  Uiso   1.00
H678   H     0.29245   0.81711   0.93017   0.00000  Uiso   1.00
H679   H     0.30045   0.83005   0.86847   0.00000  Uiso   1.00
H680   H     0.29186   0.77341   0.88524   0.00000  Uiso   1.00
C681   C     0.50043   0.66493   0.74995   0.00000  Uiso   1.00
C682   C     0.50035   0.83498   0.75023   0.00000  Uiso   1.00
C683   C     0.54040   0.77075   0.55991   0.00000  Uiso   1.00
C684   C     0.47314   0.71755   0.94198   0.00000  Uiso   1.00
C685   C     0.53891   0.77084   0.61037   0.00000  Uiso   1.00
C686   C     0.47284   0.71855   0.89133   0.00000  Uiso   1.00
C687   C     0.46155   0.72868   0.59869   0.00000  Uiso   1.00
C688   C     0.52825   0.78111   0.89953   0.00000  Uiso   1.00
C689   C     0.46050   0.73009   0.54785   0.00000  Uiso   1.00
C690   C     0.52737   0.78232   0.95014   0.00000  Uiso   1.00
C691   C     0.50055   0.75036   0.52731   0.00000  Uiso   1.00
C692   C     0.50033   0.75003   0.97266   0.00000  Uiso   1.00
C693   C     0.40122   0.74996   0.73748   0.00000  Uiso   1.00
C694   C     0.59878   0.75008   0.76251   0.00000  Uiso   1.00
C695   C     0.34584   0.74995   0.73066   0.00000  Uiso   1.00
C696   C     0.65416   0.75013   0.76933   0.00000  Uiso   1.00
C697   C     0.51358   0.54821   0.79466   0.00000  Uiso   1.00
C698   C     0.52244   0.95190   0.71427   0.00000  Uiso   1.00
C699   C     0.51247   0.59409   0.79432   0.00000  Uiso   1.00
C700   C     0.52114   0.90602   0.71379   0.00000  Uiso   1.00
C701   C     0.50167   0.61663   0.75020   0.00000  Uiso   1.00
C702   C     0.50144   0.88314   0.75076   0.00000  Uiso   1.00
C703   C     0.49216   0.59263   0.70651   0.00000  Uiso   1.00
C704   C     0.48298   0.90655   0.78822   0.00000  Uiso   1.00
C705   C     0.49230   0.54676   0.70686   0.00000  Uiso   1.00
C706   C     0.48336   0.95247   0.78823   0.00000  Uiso   1.00
C707   C     0.50311   0.52413   0.75094   0.00000  Uiso   1.00
C708   C     0.50314   0.97554   0.75126   0.00000  Uiso   1.00
Cu709  Cu    0.50000   0.75000   0.79821   0.00000  Uiso   1.00
Cu710  Cu    0.50000   0.75001   0.70178   0.00000  Uiso   1.00
H711   H     0.65893   0.74979   0.69366   0.00000  Uiso   1.00
H712   H     0.34108   0.75029   0.80633   0.00000  Uiso   1.00
H713   H     0.52307   0.53164   0.82909   0.00000  Uiso   1.00
H714   H     0.53892   0.96882   0.68592   0.00000  Uiso   1.00
H715   H     0.52056   0.61188   0.82856   0.00000  Uiso   1.00
H716   H     0.53620   0.88844   0.68488   0.00000  Uiso   1.00
H717   H     0.48409   0.60924   0.67212   0.00000  Uiso   1.00
H718   H     0.46735   0.88938   0.81694   0.00000  Uiso   1.00
H719   H     0.48327   0.52907   0.67265   0.00000  Uiso   1.00
H720   H     0.46741   0.96984   0.81671   0.00000  Uiso   1.00
H721   H     0.57308   0.78632   0.54700   0.00000  Uiso   1.00
H722   H     0.45250   0.69095   0.95662   0.00000  Uiso   1.00
H723   H     0.56948   0.78736   0.63438   0.00000  Uiso   1.00
H724   H     0.45117   0.69365   0.86860   0.00000  Uiso   1.00
H725   H     0.42791   0.71535   0.52481   0.00000  Uiso   1.00
H726   H     0.54798   0.80872   0.97129   0.00000  Uiso   1.00
N727   N     0.50000   0.75001   0.62934   0.00000  Uiso   1.00
N728   N     0.50000   0.74999   0.87065   0.00000  Uiso   1.00
O729   O     0.50000   0.68573   0.79071   0.00000  Uiso   1.00
O730   O     0.50000   0.81428   0.70928   0.00000  Uiso   1.00
O731   O     0.50000   0.68573   0.70928   0.00000  Uiso   1.00
O732   O     0.50000   0.81427   0.79072   0.00000  Uiso   1.00
O733   O     0.42495   0.75000   0.78132   0.00000  Uiso   1.00
O734   O     0.57505   0.75001   0.71868   0.00000  Uiso   1.00
O735   O     0.42495   0.75000   0.69988   0.00000  Uiso   1.00
O736   O     0.57505   0.75000   0.80011   0.00000  Uiso   1.00
N737   N     0.42177   0.70560   0.61797   0.00000  Uiso   1.00
H738   H     0.38761   0.72277   0.61417   0.00000  Uiso   1.00
C739   C     0.41397   0.65988   0.60285   0.00000  Uiso   1.00
H740   H     0.38961   0.65760   0.56671   0.00000  Uiso   1.00
H741   H     0.39397   0.64208   0.62959   0.00000  Uiso   1.00
H742   H     0.45145   0.64365   0.60074   0.00000  Uiso   1.00
N743   N     0.55837   0.81278   0.87851   0.00000  Uiso   1.00
H744   H     0.54690   0.84471   0.88385   0.00000  Uiso   1.00
C745   C     0.61359   0.80795   0.89141   0.00000  Uiso   1.00
H746   H     0.62579   0.81711   0.93017   0.00000  Uiso   1.00
H747   H     0.63378   0.83005   0.86847   0.00000  Uiso   1.00
H748   H     0.62519   0.77341   0.88524   0.00000  Uiso   1.00
C749   C     0.83376   0.66493   0.74995   0.00000  Uiso   1.00
C750   C     0.83368   0.83498   0.75023   0.00000  Uiso   1.00
C751   C     0.87373   0.77075   0.55991   0.00000  Uiso   1.00
C752   C     0.80647   0.71755   0.94198   0.00000  Uiso   1.00
C753   C     0.87224   0.77084   0.61037   0.00000  Uiso   1.00
C754   C     0.80617   0.71855   0.89133   0.00000  Uiso   1.00
C755   C     0.79488   0.72868   0.59869   0.00000  Uiso   1.00
C756   C     0.86158   0.78111   0.89953   0.00000  Uiso   1.00
C757   C     0.79383   0.73009   0.54785   0.00000  Uiso   1.00
C758   C     0.86070   0.78232   0.95014   0.00000  Uiso   1.00
C759   C     0.83388   0.75036   0.52731   0.00000  Uiso   1.00
C760   C     0.83366   0.75003   0.97266   0.00000  Uiso   1.00
C761   C     0.73455   0.74996   0.73748   0.00000  Uiso   1.00
C762   C     0.93211   0.75008   0.76251   0.00000  Uiso   1.00
C763   C     0.67917   0.74995   0.73066   0.00000  Uiso   1.00
C764   C     0.98749   0.75013   0.76933   0.00000  Uiso   1.00
C765   C     0.84691   0.54821   0.79466   0.00000  Uiso   1.00
C766   C     0.85577   0.95190   0.71427   0.00000  Uiso   1.00
C767   C     0.84580   0.59409   0.79432   0.00000  Uiso   1.00
C768   C     0.85447   0.90602   0.71379   0.00000  Uiso   1.00
C769   C     0.83500   0.61663   0.75020   0.00000  Uiso   1.00
C770   C     0.83478   0.88314   0.75076   0.00000  Uiso   1.00
C771   C     0.82549   0.59263   0.70651   0.00000  Uiso   1.00
C772   C     0.81631   0.90655   0.78822   0.00000  Uiso   1.00
C773   C     0.82563   0.54676   0.70686   0.00000  Uiso   1.00
C774   C     0.81669   0.95247   0.78823   0.00000  Uiso   1.00
C775   C     0.83644   0.52413   0.75094   0.00000  Uiso   1.00
C776   C     0.83647   0.97554   0.75126   0.00000  Uiso   1.00
Cu777  Cu    0.83333   0.75000   0.79821   0.00000  Uiso   1.00
Cu778  Cu    0.83333   0.75001   0.70178   0.00000  Uiso   1.00
H779   H     0.99227   0.74979   0.69366   0.00000  Uiso   1.00
H780   H     0.67441   0.75029   0.80633   0.00000  Uiso   1.00
H781   H     0.85640   0.53164   0.82909   0.00000  Uiso   1.00
H782   H     0.87226   0.96882   0.68592   0.00000  Uiso   1.00
H783   H     0.85390   0.61188   0.82856   0.00000  Uiso   1.00
H784   H     0.86953   0.88844   0.68488   0.00000  Uiso   1.00
H785   H     0.81742   0.60924   0.67212   0.00000  Uiso   1.00
H786   H     0.80068   0.88938   0.81694   0.00000  Uiso   1.00
H787   H     0.81660   0.52907   0.67265   0.00000  Uiso   1.00
H788   H     0.80074   0.96984   0.81671   0.00000  Uiso   1.00
H789   H     0.90642   0.78632   0.54700   0.00000  Uiso   1.00
H790   H     0.78584   0.69095   0.95662   0.00000  Uiso   1.00
H791   H     0.90281   0.78736   0.63438   0.00000  Uiso   1.00
H792   H     0.78451   0.69365   0.86860   0.00000  Uiso   1.00
H793   H     0.76125   0.71535   0.52481   0.00000  Uiso   1.00
H794   H     0.88132   0.80872   0.97129   0.00000  Uiso   1.00
N795   N     0.83333   0.75001   0.62934   0.00000  Uiso   1.00
N796   N     0.83333   0.74999   0.87065   0.00000  Uiso   1.00
O797   O     0.83334   0.68573   0.79071   0.00000  Uiso   1.00
O798   O     0.83333   0.81428   0.70928   0.00000  Uiso   1.00
O799   O     0.83334   0.68573   0.70928   0.00000  Uiso   1.00
O800   O     0.83333   0.81427   0.79072   0.00000  Uiso   1.00
O801   O     0.75828   0.75000   0.78132   0.00000  Uiso   1.00
O802   O     0.90839   0.75001   0.71868   0.00000  Uiso   1.00
O803   O     0.75828   0.75000   0.69988   0.00000  Uiso   1.00
O804   O     0.90839   0.75000   0.80011   0.00000  Uiso   1.00
N805   N     0.75510   0.70560   0.61797   0.00000  Uiso   1.00
H806   H     0.72094   0.72277   0.61417   0.00000  Uiso   1.00
C807   C     0.74730   0.65988   0.60285   0.00000  Uiso   1.00
H808   H     0.72294   0.65760   0.56671   0.00000  Uiso   1.00
H809   H     0.72731   0.64208   0.62959   0.00000  Uiso   1.00
H810   H     0.78478   0.64365   0.60074   0.00000  Uiso   1.00
N811   N     0.89170   0.81278   0.87851   0.00000  Uiso   1.00
H812   H     0.88023   0.84471   0.88385   0.00000  Uiso   1.00
C813   C     0.94692   0.80795   0.89141   0.00000  Uiso   1.00
H814   H     0.95912   0.81711   0.93017   0.00000  Uiso   1.00
H815   H     0.96711   0.83005   0.86847   0.00000  Uiso   1.00
H816   H     0.95853   0.77341   0.88524   0.00000  Uiso   1.00
loop_
_geom_bond_atom_site_label_1
_geom_bond_atom_site_label_2
_geom_bond_distance
_geom_bond_site_symmetry_2
_ccdc_geom_bond_type
C1     C21     1.464   .     S
C1     O51     1.298   .     A
C1     O49     1.294   .     A
C2     C22     1.458   .     S
C2     O52     1.295   .     A
C2     O50     1.294   .     A
C3     C5      1.410   .     A
C3     C11     1.413   .     A
C3     H41     1.081   .     S
C4     H42     1.081   .     S
C4     C6      1.408   .     A
C4     C12     1.414   .     A
C5     H43     1.081   .     S
C5     N47     1.365   .     A
C6     N48     1.363   .     A
C6     H44     1.082   .     S
C7     N47     1.374   .     A
C7     C9      1.411   .     A
C7     N57     1.420   .     S
C8     N48     1.372   .     A
C8     N63     1.419   .     S
C8     C10     1.411   .     A
C9     H45     1.080   .     S
C9     C11     1.404   .     A
C10    H46     1.081   .     S
C10    C12     1.405   .     A
C11    C420    1.519   1_554 S
C12    C419    1.519   .     S
C13    O53     1.286   .     A
C13    C15     1.435   .     S
C13    O55     1.292   .     A
C14    O56     1.292   .     A
C14    O54     1.286   .     A
C14    C16     1.435   .     S
C15    C152    1.338   1_455 S
C15    H167    1.087   1_455 S
C16    C83     1.338   .     S
C16    H100    1.087   .     S
C17    H33     1.083   .     S
C17    C27     1.404   .     A
C17    C19     1.390   .     A
C18    H34     1.083   .     S
C18    C20     1.389   .     A
C18    C28     1.404   .     A
C19    C21     1.403   .     A
C19    H35     1.083   .     S
C20    C22     1.401   .     A
C20    H36     1.083   .     S
C21    C23     1.400   .     A
C22    C24     1.401   .     A
C23    H37     1.079   .     S
C23    C25     1.389   .     A
C24    C26     1.390   .     A
C24    H38     1.083   .     S
C25    H39     1.083   .     S
C25    C27     1.404   .     A
C26    H40     1.083   .     S
C26    C28     1.405   .     A
C27    C232    1.472   1_545 S
C28    C231    1.472   .     S
Cu29   Cu30    2.682   .     S
Cu29   O56     1.958   .     S
Cu29   N48     2.015   .     S
Cu29   O49     1.956   .     S
Cu29   O53     1.953   .     S
Cu29   O52     1.959   .     S
Cu30   O51     1.959   .     S
Cu30   O55     1.958   .     S
Cu30   O50     1.956   .     S
Cu30   O54     1.953   .     S
Cu30   N47     2.015   .     S
H31    C83     1.087   .     S
H32    C152    1.087   1_455 S
N57    H58     1.031   .     S
N57    C59     1.448   .     S
C59    H60     1.111   .     S
C59    H61     1.110   .     S
C59    H62     1.111   .     S
N63    C65     1.448   .     S
N63    H64     1.032   .     S
C65    H68     1.111   .     S
C65    H66     1.111   .     S
C65    H67     1.110   .     S
C69    C89     1.464   .     S
C69    O119    1.298   .     A
C69    O117    1.294   .     A
C70    C90     1.458   .     S
C70    O120    1.295   .     A
C70    O118    1.294   .     A
C71    C73     1.410   .     A
C71    C79     1.413   .     A
C71    H109    1.081   .     S
C72    H110    1.081   .     S
C72    C74     1.408   .     A
C72    C80     1.414   .     A
C73    H111    1.081   .     S
C73    N115    1.365   .     A
C74    N116    1.363   .     A
C74    H112    1.082   .     S
C75    N115    1.374   .     A
C75    C77     1.411   .     A
C75    N125    1.420   .     S
C76    N116    1.372   .     A
C76    N131    1.419   .     S
C76    C78     1.411   .     A
C77    H113    1.080   .     S
C77    C79     1.404   .     A
C78    H114    1.081   .     S
C78    C80     1.405   .     A
C79    C488    1.519   1_554 S
C80    C487    1.519   .     S
C81    O121    1.286   .     A
C81    C83     1.435   .     S
C81    O123    1.292   .     A
C82    O124    1.292   .     A
C82    O122    1.286   .     A
C82    C84     1.435   .     S
C84    C151    1.338   .     S
C84    H168    1.087   .     S
C85    H101    1.083   .     S
C85    C95     1.404   .     A
C85    C87     1.390   .     A
C86    H102    1.083   .     S
C86    C88     1.389   .     A
C86    C96     1.404   .     A
C87    C89     1.403   .     A
C87    H103    1.083   .     S
C88    C90     1.401   .     A
C88    H104    1.083   .     S
C89    C91     1.400   .     A
C90    C92     1.401   .     A
C91    H105    1.079   .     S
C91    C93     1.389   .     A
C92    C94     1.390   .     A
C92    H106    1.083   .     S
C93    H107    1.083   .     S
C93    C95     1.404   .     A
C94    H108    1.083   .     S
C94    C96     1.405   .     A
C95    C300    1.472   1_545 S
C96    C299    1.472   .     S
Cu97   Cu98    2.682   .     S
Cu97   O124    1.958   .     S
Cu97   N116    2.015   .     S
Cu97   O117    1.956   .     S
Cu97   O121    1.953   .     S
Cu97   O120    1.959   .     S
Cu98   O119    1.959   .     S
Cu98   O123    1.958   .     S
Cu98   O118    1.956   .     S
Cu98   O122    1.953   .     S
Cu98   N115    2.015   .     S
H99    C151    1.087   .     S
N125   H126    1.031   .     S
N125   C127    1.448   .     S
C127   H128    1.111   .     S
C127   H129    1.110   .     S
C127   H130    1.111   .     S
N131   C133    1.448   .     S
N131   H132    1.032   .     S
C133   H136    1.111   .     S
C133   H134    1.111   .     S
C133   H135    1.110   .     S
C137   C157    1.464   .     S
C137   O187    1.298   .     A
C137   O185    1.294   .     A
C138   C158    1.458   .     S
C138   O188    1.295   .     A
C138   O186    1.294   .     A
C139   C141    1.410   .     A
C139   C147    1.413   .     A
C139   H177    1.081   .     S
C140   H178    1.081   .     S
C140   C142    1.408   .     A
C140   C148    1.414   .     A
C141   H179    1.081   .     S
C141   N183    1.365   .     A
C142   N184    1.363   .     A
C142   H180    1.082   .     S
C143   N183    1.374   .     A
C143   C145    1.411   .     A
C143   N193    1.420   .     S
C144   N184    1.372   .     A
C144   N199    1.419   .     S
C144   C146    1.411   .     A
C145   H181    1.080   .     S
C145   C147    1.404   .     A
C146   H182    1.081   .     S
C146   C148    1.405   .     A
C147   C556    1.519   1_554 S
C148   C555    1.519   .     S
C149   O189    1.286   .     A
C149   C151    1.435   .     S
C149   O191    1.292   .     A
C150   O192    1.292   .     A
C150   O190    1.286   .     A
C150   C152    1.435   .     S
C152   C15     1.338   1_655 S
C152   H32     1.087   1_655 S
C153   H169    1.083   .     S
C153   C163    1.404   .     A
C153   C155    1.390   .     A
C154   H170    1.083   .     S
C154   C156    1.389   .     A
C154   C164    1.404   .     A
C155   C157    1.403   .     A
C155   H171    1.083   .     S
C156   C158    1.401   .     A
C156   H172    1.083   .     S
C157   C159    1.400   .     A
C158   C160    1.401   .     A
C159   H173    1.079   .     S
C159   C161    1.389   .     A
C160   C162    1.390   .     A
C160   H174    1.083   .     S
C161   H175    1.083   .     S
C161   C163    1.404   .     A
C162   H176    1.083   .     S
C162   C164    1.405   .     A
C163   C368    1.472   1_545 S
C164   C367    1.472   .     S
Cu165  Cu166   2.682   .     S
Cu165  O192    1.958   .     S
Cu165  N184    2.015   .     S
Cu165  O185    1.956   .     S
Cu165  O189    1.953   .     S
Cu165  O188    1.959   .     S
Cu166  O187    1.959   .     S
Cu166  O191    1.958   .     S
Cu166  O186    1.956   .     S
Cu166  O190    1.953   .     S
Cu166  N183    2.015   .     S
H167   C15     1.087   1_655 S
N193   H194    1.031   .     S
N193   C195    1.448   .     S
C195   H196    1.111   .     S
C195   H197    1.110   .     S
C195   H198    1.111   .     S
N199   C201    1.448   .     S
N199   H200    1.032   .     S
C201   H204    1.111   .     S
C201   H202    1.111   .     S
C201   H203    1.110   .     S
C205   C225    1.464   .     S
C205   O255    1.298   .     A
C205   O253    1.294   .     A
C206   C226    1.458   .     S
C206   O256    1.295   .     A
C206   O254    1.294   .     A
C207   C209    1.410   .     A
C207   C215    1.413   .     A
C207   H245    1.081   .     S
C208   H246    1.081   .     S
C208   C210    1.408   .     A
C208   C216    1.414   .     A
C209   H247    1.081   .     S
C209   N251    1.365   .     A
C210   N252    1.363   .     A
C210   H248    1.082   .     S
C211   N251    1.374   .     A
C211   C213    1.411   .     A
C211   N261    1.420   .     S
C212   N252    1.372   .     A
C212   N267    1.419   .     S
C212   C214    1.411   .     A
C213   H249    1.080   .     S
C213   C215    1.404   .     A
C214   H250    1.081   .     S
C214   C216    1.405   .     A
C215   C624    1.519   1_554 S
C216   C623    1.519   .     S
C217   O257    1.286   .     A
C217   C219    1.435   .     S
C217   O259    1.292   .     A
C218   O260    1.292   .     A
C218   O258    1.286   .     A
C218   C220    1.435   .     S
C219   C356    1.338   1_455 S
C219   H371    1.087   1_455 S
C220   C287    1.338   .     S
C220   H304    1.087   .     S
C221   H237    1.083   .     S
C221   C231    1.404   .     A
C221   C223    1.390   .     A
C222   H238    1.083   .     S
C222   C224    1.389   .     A
C222   C232    1.404   .     A
C223   C225    1.403   .     A
C223   H239    1.083   .     S
C224   C226    1.401   .     A
C224   H240    1.083   .     S
C225   C227    1.400   .     A
C226   C228    1.401   .     A
C227   H241    1.079   .     S
C227   C229    1.389   .     A
C228   C230    1.390   .     A
C228   H242    1.083   .     S
C229   H243    1.083   .     S
C229   C231    1.404   .     A
C230   H244    1.083   .     S
C230   C232    1.405   .     A
C232   C27     1.472   1_565 S
Cu233  Cu234   2.682   .     S
Cu233  O260    1.958   .     S
Cu233  N252    2.015   .     S
Cu233  O253    1.956   .     S
Cu233  O257    1.953   .     S
Cu233  O256    1.959   .     S
Cu234  O255    1.959   .     S
Cu234  O259    1.958   .     S
Cu234  O254    1.956   .     S
Cu234  O258    1.953   .     S
Cu234  N251    2.015   .     S
H235   C287    1.087   .     S
H236   C356    1.087   1_455 S
N261   H262    1.031   .     S
N261   C263    1.448   .     S
C263   H264    1.111   .     S
C263   H265    1.110   .     S
C263   H266    1.111   .     S
N267   C269    1.448   .     S
N267   H268    1.032   .     S
C269   H272    1.111   .     S
C269   H270    1.111   .     S
C269   H271    1.110   .     S
C273   C293    1.464   .     S
C273   O323    1.298   .     A
C273   O321    1.294   .     A
C274   C294    1.458   .     S
C274   O324    1.295   .     A
C274   O322    1.294   .     A
C275   C277    1.410   .     A
C275   C283    1.413   .     A
C275   H313    1.081   .     S
C276   H314    1.081   .     S
C276   C278    1.408   .     A
C276   C284    1.414   .     A
C277   H315    1.081   .     S
C277   N319    1.365   .     A
C278   N320    1.363   .     A
C278   H316    1.082   .     S
C279   N319    1.374   .     A
C279   C281    1.411   .     A
C279   N329    1.420   .     S
C280   N320    1.372   .     A
C280   N335    1.419   .     S
C280   C282    1.411   .     A
C281   H317    1.080   .     S
C281   C283    1.404   .     A
C282   H318    1.081   .     S
C282   C284    1.405   .     A
C283   C692    1.519   1_554 S
C284   C691    1.519   .     S
C285   O325    1.286   .     A
C285   C287    1.435   .     S
C285   O327    1.292   .     A
C286   O328    1.292   .     A
C286   O326    1.286   .     A
C286   C288    1.435   .     S
C288   C355    1.338   .     S
C288   H372    1.087   .     S
C289   H305    1.083   .     S
C289   C299    1.404   .     A
C289   C291    1.390   .     A
C290   H306    1.083   .     S
C290   C292    1.389   .     A
C290   C300    1.404   .     A
C291   C293    1.403   .     A
C291   H307    1.083   .     S
C292   C294    1.401   .     A
C292   H308    1.083   .     S
C293   C295    1.400   .     A
C294   C296    1.401   .     A
C295   H309    1.079   .     S
C295   C297    1.389   .     A
C296   C298    1.390   .     A
C296   H310    1.083   .     S
C297   H311    1.083   .     S
C297   C299    1.404   .     A
C298   H312    1.083   .     S
C298   C300    1.405   .     A
C300   C95     1.472   1_565 S
Cu301  Cu302   2.682   .     S
Cu301  O328    1.958   .     S
Cu301  N320    2.015   .     S
Cu301  O321    1.956   .     S
Cu301  O325    1.953   .     S
Cu301  O324    1.959   .     S
Cu302  O323    1.959   .     S
Cu302  O327    1.958   .     S
Cu302  O322    1.956   .     S
Cu302  O326    1.953   .     S
Cu302  N319    2.015   .     S
H303   C355    1.087   .     S
N329   H330    1.031   .     S
N329   C331    1.448   .     S
C331   H332    1.111   .     S
C331   H333    1.110   .     S
C331   H334    1.111   .     S
N335   C337    1.448   .     S
N335   H336    1.032   .     S
C337   H340    1.111   .     S
C337   H338    1.111   .     S
C337   H339    1.110   .     S
C341   C361    1.464   .     S
C341   O391    1.298   .     A
C341   O389    1.294   .     A
C342   C362    1.458   .     S
C342   O392    1.295   .     A
C342   O390    1.294   .     A
C343   C345    1.410   .     A
C343   C351    1.413   .     A
C343   H381    1.081   .     S
C344   H382    1.081   .     S
C344   C346    1.408   .     A
C344   C352    1.414   .     A
C345   H383    1.081   .     S
C345   N387    1.365   .     A
C346   N388    1.363   .     A
C346   H384    1.082   .     S
C347   N387    1.374   .     A
C347   C349    1.411   .     A
C347   N397    1.420   .     S
C348   N388    1.372   .     A
C348   N403    1.419   .     S
C348   C350    1.411   .     A
C349   H385    1.080   .     S
C349   C351    1.404   .     A
C350   H386    1.081   .     S
C350   C352    1.405   .     A
C351   C760    1.519   1_554 S
C352   C759    1.519   .     S
C353   O393    1.286   .     A
C353   C355    1.435   .     S
C353   O395    1.292   .     A
C354   O396    1.292   .     A
C354   O394    1.286   .     A
C354   C356    1.435   .     S
C356   C219    1.338   1_655 S
C356   H236    1.087   1_655 S
C357   H373    1.083   .     S
C357   C367    1.404   .     A
C357   C359    1.390   .     A
C358   H374    1.083   .     S
C358   C360    1.389   .     A
C358   C368    1.404   .     A
C359   C361    1.403   .     A
C359   H375    1.083   .     S
C360   C362    1.401   .     A
C360   H376    1.083   .     S
C361   C363    1.400   .     A
C362   C364    1.401   .     A
C363   H377    1.079   .     S
C363   C365    1.389   .     A
C364   C366    1.390   .     A
C364   H378    1.083   .     S
C365   H379    1.083   .     S
C365   C367    1.404   .     A
C366   H380    1.083   .     S
C366   C368    1.405   .     A
C368   C163    1.472   1_565 S
Cu369  Cu370   2.682   .     S
Cu369  O396    1.958   .     S
Cu369  N388    2.015   .     S
Cu369  O389    1.956   .     S
Cu369  O393    1.953   .     S
Cu369  O392    1.959   .     S
Cu370  O391    1.959   .     S
Cu370  O395    1.958   .     S
Cu370  O390    1.956   .     S
Cu370  O394    1.953   .     S
Cu370  N387    2.015   .     S
H371   C219    1.087   1_655 S
N397   H398    1.031   .     S
N397   C399    1.448   .     S
C399   H400    1.111   .     S
C399   H401    1.110   .     S
C399   H402    1.111   .     S
N403   C405    1.448   .     S
N403   H404    1.032   .     S
C405   H408    1.111   .     S
C405   H406    1.111   .     S
C405   H407    1.110   .     S
C409   C429    1.464   .     S
C409   O459    1.298   .     A
C409   O457    1.294   .     A
C410   C430    1.458   .     S
C410   O460    1.295   .     A
C410   O458    1.294   .     A
C411   C413    1.410   .     A
C411   C419    1.413   .     A
C411   H449    1.081   .     S
C412   H450    1.081   .     S
C412   C414    1.408   .     A
C412   C420    1.414   .     A
C413   H451    1.081   .     S
C413   N455    1.365   .     A
C414   N456    1.363   .     A
C414   H452    1.082   .     S
C415   N455    1.374   .     A
C415   C417    1.411   .     A
C415   N465    1.420   .     S
C416   N456    1.372   .     A
C416   N471    1.419   .     S
C416   C418    1.411   .     A
C417   H453    1.080   .     S
C417   C419    1.404   .     A
C418   H454    1.081   .     S
C418   C420    1.405   .     A
C420   C11     1.519   1_556 S
C421   O461    1.286   .     A
C421   C423    1.435   .     S
C421   O463    1.292   .     A
C422   O464    1.292   .     A
C422   O462    1.286   .     A
C422   C424    1.435   .     S
C423   C560    1.338   1_455 S
C423   H575    1.087   1_455 S
C424   C491    1.338   .     S
C424   H508    1.087   .     S
C425   H441    1.083   .     S
C425   C435    1.404   .     A
C425   C427    1.390   .     A
C426   H442    1.083   .     S
C426   C428    1.389   .     A
C426   C436    1.404   .     A
C427   C429    1.403   .     A
C427   H443    1.083   .     S
C428   C430    1.401   .     A
C428   H444    1.083   .     S
C429   C431    1.400   .     A
C430   C432    1.401   .     A
C431   H445    1.079   .     S
C431   C433    1.389   .     A
C432   C434    1.390   .     A
C432   H446    1.083   .     S
C433   H447    1.083   .     S
C433   C435    1.404   .     A
C434   H448    1.083   .     S
C434   C436    1.405   .     A
C435   C640    1.472   1_545 S
C436   C639    1.472   .     S
Cu437  Cu438   2.682   .     S
Cu437  O464    1.958   .     S
Cu437  N456    2.015   .     S
Cu437  O457    1.956   .     S
Cu437  O461    1.953   .     S
Cu437  O460    1.959   .     S
Cu438  O459    1.959   .     S
Cu438  O463    1.958   .     S
Cu438  O458    1.956   .     S
Cu438  O462    1.953   .     S
Cu438  N455    2.015   .     S
H439   C491    1.087   .     S
H440   C560    1.087   1_455 S
N465   H466    1.031   .     S
N465   C467    1.448   .     S
C467   H468    1.111   .     S
C467   H469    1.110   .     S
C467   H470    1.111   .     S
N471   C473    1.448   .     S
N471   H472    1.032   .     S
C473   H476    1.111   .     S
C473   H474    1.111   .     S
C473   H475    1.110   .     S
C477   C497    1.464   .     S
C477   O527    1.298   .     A
C477   O525    1.294   .     A
C478   C498    1.458   .     S
C478   O528    1.295   .     A
C478   O526    1.294   .     A
C479   C481    1.410   .     A
C479   C487    1.413   .     A
C479   H517    1.081   .     S
C480   H518    1.081   .     S
C480   C482    1.408   .     A
C480   C488    1.414   .     A
C481   H519    1.081   .     S
C481   N523    1.365   .     A
C482   N524    1.363   .     A
C482   H520    1.082   .     S
C483   N523    1.374   .     A
C483   C485    1.411   .     A
C483   N533    1.420   .     S
C484   N524    1.372   .     A
C484   N539    1.419   .     S
C484   C486    1.411   .     A
C485   H521    1.080   .     S
C485   C487    1.404   .     A
C486   H522    1.081   .     S
C486   C488    1.405   .     A
C488   C79     1.519   1_556 S
C489   O529    1.286   .     A
C489   C491    1.435   .     S
C489   O531    1.292   .     A
C490   O532    1.292   .     A
C490   O530    1.286   .     A
C490   C492    1.435   .     S
C492   C559    1.338   .     S
C492   H576    1.087   .     S
C493   H509    1.083   .     S
C493   C503    1.404   .     A
C493   C495    1.390   .     A
C494   H510    1.083   .     S
C494   C496    1.389   .     A
C494   C504    1.404   .     A
C495   C497    1.403   .     A
C495   H511    1.083   .     S
C496   C498    1.401   .     A
C496   H512    1.083   .     S
C497   C499    1.400   .     A
C498   C500    1.401   .     A
C499   H513    1.079   .     S
C499   C501    1.389   .     A
C500   C502    1.390   .     A
C500   H514    1.083   .     S
C501   H515    1.083   .     S
C501   C503    1.404   .     A
C502   H516    1.083   .     S
C502   C504    1.405   .     A
C503   C708    1.472   1_545 S
C504   C707    1.472   .     S
Cu505  Cu506   2.682   .     S
Cu505  O532    1.958   .     S
Cu505  N524    2.015   .     S
Cu505  O525    1.956   .     S
Cu505  O529    1.953   .     S
Cu505  O528    1.959   .     S
Cu506  O527    1.959   .     S
Cu506  O531    1.958   .     S
Cu506  O526    1.956   .     S
Cu506  O530    1.953   .     S
Cu506  N523    2.015   .     S
H507   C559    1.087   .     S
N533   H534    1.031   .     S
N533   C535    1.448   .     S
C535   H536    1.111   .     S
C535   H537    1.110   .     S
C535   H538    1.111   .     S
N539   C541    1.448   .     S
N539   H540    1.032   .     S
C541   H544    1.111   .     S
C541   H542    1.111   .     S
C541   H543    1.110   .     S
C545   C565    1.464   .     S
C545   O595    1.298   .     A
C545   O593    1.294   .     A
C546   C566    1.458   .     S
C546   O596    1.295   .     A
C546   O594    1.294   .     A
C547   C549    1.410   .     A
C547   C555    1.413   .     A
C547   H585    1.081   .     S
C548   H586    1.081   .     S
C548   C550    1.408   .     A
C548   C556    1.414   .     A
C549   H587    1.081   .     S
C549   N591    1.365   .     A
C550   N592    1.363   .     A
C550   H588    1.082   .     S
C551   N591    1.374   .     A
C551   C553    1.411   .     A
C551   N601    1.420   .     S
C552   N592    1.372   .     A
C552   N607    1.419   .     S
C552   C554    1.411   .     A
C553   H589    1.080   .     S
C553   C555    1.404   .     A
C554   H590    1.081   .     S
C554   C556    1.405   .     A
C556   C147    1.519   1_556 S
C557   O597    1.286   .     A
C557   C559    1.435   .     S
C557   O599    1.292   .     A
C558   O600    1.292   .     A
C558   O598    1.286   .     A
C558   C560    1.435   .     S
C560   C423    1.338   1_655 S
C560   H440    1.087   1_655 S
C561   H577    1.083   .     S
C561   C571    1.404   .     A
C561   C563    1.390   .     A
C562   H578    1.083   .     S
C562   C564    1.389   .     A
C562   C572    1.404   .     A
C563   C565    1.403   .     A
C563   H579    1.083   .     S
C564   C566    1.401   .     A
C564   H580    1.083   .     S
C565   C567    1.400   .     A
C566   C568    1.401   .     A
C567   H581    1.079   .     S
C567   C569    1.389   .     A
C568   C570    1.390   .     A
C568   H582    1.083   .     S
C569   H583    1.083   .     S
C569   C571    1.404   .     A
C570   H584    1.083   .     S
C570   C572    1.405   .     A
C571   C776    1.472   1_545 S
C572   C775    1.472   .     S
Cu573  Cu574   2.682   .     S
Cu573  O600    1.958   .     S
Cu573  N592    2.015   .     S
Cu573  O593    1.956   .     S
Cu573  O597    1.953   .     S
Cu573  O596    1.959   .     S
Cu574  O595    1.959   .     S
Cu574  O599    1.958   .     S
Cu574  O594    1.956   .     S
Cu574  O598    1.953   .     S
Cu574  N591    2.015   .     S
H575   C423    1.087   1_655 S
N601   H602    1.031   .     S
N601   C603    1.448   .     S
C603   H604    1.111   .     S
C603   H605    1.110   .     S
C603   H606    1.111   .     S
N607   C609    1.448   .     S
N607   H608    1.032   .     S
C609   H612    1.111   .     S
C609   H610    1.111   .     S
C609   H611    1.110   .     S
C613   C633    1.464   .     S
C613   O663    1.298   .     A
C613   O661    1.294   .     A
C614   C634    1.458   .     S
C614   O664    1.295   .     A
C614   O662    1.294   .     A
C615   C617    1.410   .     A
C615   C623    1.413   .     A
C615   H653    1.081   .     S
C616   H654    1.081   .     S
C616   C618    1.408   .     A
C616   C624    1.414   .     A
C617   H655    1.081   .     S
C617   N659    1.365   .     A
C618   N660    1.363   .     A
C618   H656    1.082   .     S
C619   N659    1.374   .     A
C619   C621    1.411   .     A
C619   N669    1.420   .     S
C620   N660    1.372   .     A
C620   N675    1.419   .     S
C620   C622    1.411   .     A
C621   H657    1.080   .     S
C621   C623    1.404   .     A
C622   H658    1.081   .     S
C622   C624    1.405   .     A
C624   C215    1.519   1_556 S
C625   O665    1.286   .     A
C625   C627    1.435   .     S
C625   O667    1.292   .     A
C626   O668    1.292   .     A
C626   O666    1.286   .     A
C626   C628    1.435   .     S
C627   C764    1.338   1_455 S
C627   H779    1.087   1_455 S
C628   C695    1.338   .     S
C628   H712    1.087   .     S
C629   H645    1.083   .     S
C629   C639    1.404   .     A
C629   C631    1.390   .     A
C630   H646    1.083   .     S
C630   C632    1.389   .     A
C630   C640    1.404   .     A
C631   C633    1.403   .     A
C631   H647    1.083   .     S
C632   C634    1.401   .     A
C632   H648    1.083   .     S
C633   C635    1.400   .     A
C634   C636    1.401   .     A
C635   H649    1.079   .     S
C635   C637    1.389   .     A
C636   C638    1.390   .     A
C636   H650    1.083   .     S
C637   H651    1.083   .     S
C637   C639    1.404   .     A
C638   H652    1.083   .     S
C638   C640    1.405   .     A
C640   C435    1.472   1_565 S
Cu641  Cu642   2.682   .     S
Cu641  O668    1.958   .     S
Cu641  N660    2.015   .     S
Cu641  O661    1.956   .     S
Cu641  O665    1.953   .     S
Cu641  O664    1.959   .     S
Cu642  O663    1.959   .     S
Cu642  O667    1.958   .     S
Cu642  O662    1.956   .     S
Cu642  O666    1.953   .     S
Cu642  N659    2.015   .     S
H643   C695    1.087   .     S
H644   C764    1.087   1_455 S
N669   H670    1.031   .     S
N669   C671    1.448   .     S
C671   H672    1.111   .     S
C671   H673    1.110   .     S
C671   H674    1.111   .     S
N675   C677    1.448   .     S
N675   H676    1.032   .     S
C677   H680    1.111   .     S
C677   H678    1.111   .     S
C677   H679    1.110   .     S
C681   C701    1.464   .     S
C681   O731    1.298   .     A
C681   O729    1.294   .     A
C682   C702    1.458   .     S
C682   O732    1.295   .     A
C682   O730    1.294   .     A
C683   C685    1.410   .     A
C683   C691    1.413   .     A
C683   H721    1.081   .     S
C684   H722    1.081   .     S
C684   C686    1.408   .     A
C684   C692    1.414   .     A
C685   H723    1.081   .     S
C685   N727    1.365   .     A
C686   N728    1.363   .     A
C686   H724    1.082   .     S
C687   N727    1.374   .     A
C687   C689    1.411   .     A
C687   N737    1.420   .     S
C688   N728    1.372   .     A
C688   N743    1.419   .     S
C688   C690    1.411   .     A
C689   H725    1.080   .     S
C689   C691    1.404   .     A
C690   H726    1.081   .     S
C690   C692    1.405   .     A
C692   C283    1.519   1_556 S
C693   O733    1.286   .     A
C693   C695    1.435   .     S
C693   O735    1.292   .     A
C694   O736    1.292   .     A
C694   O734    1.286   .     A
C694   C696    1.435   .     S
C696   C763    1.338   .     S
C696   H780    1.087   .     S
C697   H713    1.083   .     S
C697   C707    1.404   .     A
C697   C699    1.390   .     A
C698   H714    1.083   .     S
C698   C700    1.389   .     A
C698   C708    1.404   .     A
C699   C701    1.403   .     A
C699   H715    1.083   .     S
C700   C702    1.401   .     A
C700   H716    1.083   .     S
C701   C703    1.400   .     A
C702   C704    1.401   .     A
C703   H717    1.079   .     S
C703   C705    1.389   .     A
C704   C706    1.390   .     A
C704   H718    1.083   .     S
C705   H719    1.083   .     S
C705   C707    1.404   .     A
C706   H720    1.083   .     S
C706   C708    1.405   .     A
C708   C503    1.472   1_565 S
Cu709  Cu710   2.682   .     S
Cu709  O736    1.958   .     S
Cu709  N728    2.015   .     S
Cu709  O729    1.956   .     S
Cu709  O733    1.953   .     S
Cu709  O732    1.959   .     S
Cu710  O731    1.959   .     S
Cu710  O735    1.958   .     S
Cu710  O730    1.956   .     S
Cu710  O734    1.953   .     S
Cu710  N727    2.015   .     S
H711   C763    1.087   .     S
N737   H738    1.031   .     S
N737   C739    1.448   .     S
C739   H740    1.111   .     S
C739   H741    1.110   .     S
C739   H742    1.111   .     S
N743   C745    1.448   .     S
N743   H744    1.032   .     S
C745   H748    1.111   .     S
C745   H746    1.111   .     S
C745   H747    1.110   .     S
C749   C769    1.464   .     S
C749   O799    1.298   .     A
C749   O797    1.294   .     A
C750   C770    1.458   .     S
C750   O800    1.295   .     A
C750   O798    1.294   .     A
C751   C753    1.410   .     A
C751   C759    1.413   .     A
C751   H789    1.081   .     S
C752   H790    1.081   .     S
C752   C754    1.408   .     A
C752   C760    1.414   .     A
C753   H791    1.081   .     S
C753   N795    1.365   .     A
C754   N796    1.363   .     A
C754   H792    1.082   .     S
C755   N795    1.374   .     A
C755   C757    1.411   .     A
C755   N805    1.420   .     S
C756   N796    1.372   .     A
C756   N811    1.419   .     S
C756   C758    1.411   .     A
C757   H793    1.080   .     S
C757   C759    1.404   .     A
C758   H794    1.081   .     S
C758   C760    1.405   .     A
C760   C351    1.519   1_556 S
C761   O801    1.286   .     A
C761   C763    1.435   .     S
C761   O803    1.292   .     A
C762   O804    1.292   .     A
C762   O802    1.286   .     A
C762   C764    1.435   .     S
C764   C627    1.338   1_655 S
C764   H644    1.087   1_655 S
C765   H781    1.083   .     S
C765   C775    1.404   .     A
C765   C767    1.390   .     A
C766   H782    1.083   .     S
C766   C768    1.389   .     A
C766   C776    1.404   .     A
C767   C769    1.403   .     A
C767   H783    1.083   .     S
C768   C770    1.401   .     A
C768   H784    1.083   .     S
C769   C771    1.400   .     A
C770   C772    1.401   .     A
C771   H785    1.079   .     S
C771   C773    1.389   .     A
C772   C774    1.390   .     A
C772   H786    1.083   .     S
C773   H787    1.083   .     S
C773   C775    1.404   .     A
C774   H788    1.083   .     S
C774   C776    1.405   .     A
C776   C571    1.472   1_565 S
Cu777  Cu778   2.682   .     S
Cu777  O804    1.958   .     S
Cu777  N796    2.015   .     S
Cu777  O797    1.956   .     S
Cu777  O801    1.953   .     S
Cu777  O800    1.959   .     S
Cu778  O799    1.959   .     S
Cu778  O803    1.958   .     S
Cu778  O798    1.956   .     S
Cu778  O802    1.953   .     S
Cu778  N795    2.015   .     S
H779   C627    1.087   1_655 S
N805   H806    1.031   .     S
N805   C807    1.448   .     S
C807   H808    1.111   .     S
C807   H809    1.110   .     S
C807   H810    1.111   .     S
N811   C813    1.448   .     S
N811   H812    1.032   .     S
C813   H816    1.111   .     S
C813   H814    1.111   .     S
C813   H815    1.110   .     S
