data_str_m3_o1_o16_pcu_sym.257
_audit_creation_date              2020-01-03
_audit_creation_method            'Materials Studio'
_symmetry_space_group_name_H-M    'P1'
_symmetry_Int_Tables_number       1
_symmetry_cell_setting            triclinic
loop_
_symmetry_equiv_pos_as_xyz
  x,y,z
_cell_length_a                    29.5419
_cell_length_b                    32.2878
_cell_length_c                    26.3108
_cell_angle_alpha                 89.7266
_cell_angle_beta                  69.3033
_cell_angle_gamma                 89.1767
loop_
_atom_site_label
_atom_site_type_symbol
_atom_site_fract_x
_atom_site_fract_y
_atom_site_fract_z
_atom_site_U_iso_or_equiv
_atom_site_adp_type
_atom_site_occupancy
C1     C     0.16631   0.24662   0.25035   0.00000  Uiso   1.00
C2     C     0.14684   0.17449   0.48930   0.00000  Uiso   1.00
C3     C     0.15050   0.15475   0.44041   0.00000  Uiso   1.00
C4     C     0.18281   0.16563   0.01202   0.00000  Uiso   1.00
C5     C     0.22453   0.14172   0.48273   0.00000  Uiso   1.00
C6     C     0.22273   0.11661   0.43976   0.00000  Uiso   1.00
C7     C     0.18414   0.12177   0.42066   0.00000  Uiso   1.00
C8     C     0.17689   0.17777   0.06456   0.00000  Uiso   1.00
C9     C     0.25820   0.15471   0.05375   0.00000  Uiso   1.00
C10    C     0.12148   0.16933   0.41140   0.00000  Uiso   1.00
C11    C     0.20360   0.31051   0.26093   0.00000  Uiso   1.00
C12    C     0.13958   0.16609   0.35230   0.00000  Uiso   1.00
C13    C     0.20496   0.01965   0.26087   0.00000  Uiso   1.00
C14    C     0.16738   0.04219   0.25146   0.00000  Uiso   1.00
C15    C     0.12920   0.02179   0.24267   0.00000  Uiso   1.00
C16    C     0.12842   0.31267   0.24268   0.00000  Uiso   1.00
C17    C     0.16583   0.29058   0.25145   0.00000  Uiso   1.00
C18    C     0.31854   0.13657   0.22268   0.00000  Uiso   1.00
C19    C     0.03328   0.13686   0.22275   0.00000  Uiso   1.00
C20    C     0.01481   0.19637   0.27754   0.00000  Uiso   1.00
C21    C     0.30024   0.19640   0.27748   0.00000  Uiso   1.00
C22    C     0.16690   0.08653   0.25050   0.00000  Uiso   1.00
C23    C     0.19388   0.16786   0.14740   0.00000  Uiso   1.00
C24    C     0.26492   0.14137   0.00032   0.00000  Uiso   1.00
C25    C     0.21143   0.16808   0.08759   0.00000  Uiso   1.00
C26    C     0.08275   0.19669   0.43573   0.00000  Uiso   1.00
C27    C     0.07601   0.21393   0.48629   0.00000  Uiso   1.00
C28    C     0.10894   0.20400   0.01203   0.00000  Uiso   1.00
H29    H     0.10011   0.03852   0.23520   0.00000  Uiso   1.00
H30    H     0.09900   0.29727   0.23524   0.00000  Uiso   1.00
H31    H     0.05913   0.11320   0.20113   0.00000  Uiso   1.00
H32    H     0.02561   0.22012   0.29964   0.00000  Uiso   1.00
H33    H     0.27480   0.22016   0.29954   0.00000  Uiso   1.00
H34    H     0.14295   0.19095   0.09053   0.00000  Uiso   1.00
H35    H     0.06049   0.20758   0.41316   0.00000  Uiso   1.00
H36    H     0.10542   0.22121   0.04824   0.00000  Uiso   1.00
H37    H     0.23242   0.29329   0.26838   0.00000  Uiso   1.00
N38    N     0.04760   0.16668   0.25002   0.00000  Uiso   1.00
N39    N     0.28573   0.16665   0.25000   0.00000  Uiso   1.00
O40    O     0.12846   0.22775   0.25001   0.00000  Uiso   1.00
O41    O     0.20490   0.22774   0.25001   0.00000  Uiso   1.00
O42    O     0.10947   0.16666   0.32681   0.00000  Uiso   1.00
O43    O     0.18591   0.16665   0.32681   0.00000  Uiso   1.00
O44    O     0.12843   0.10559   0.25000   0.00000  Uiso   1.00
O45    O     0.20488   0.10558   0.24999   0.00000  Uiso   1.00
O46    O     0.14742   0.16668   0.17319   0.00000  Uiso   1.00
O47    O     0.22387   0.16667   0.17319   0.00000  Uiso   1.00
Zn48   Zn    0.11562   0.16667   0.25000   0.00000  Uiso   1.00
Zn49   Zn    0.21771   0.16666   0.25000   0.00000  Uiso   1.00
C50    C     0.30005   0.15613   0.07237   0.00000  Uiso   1.00
H51    H     0.32682   0.13130   0.06241   0.00000  Uiso   1.00
O52    O     0.30601   0.18597   0.09749   0.00000  Uiso   1.00
N53    N     0.24450   0.03913   0.27041   0.00000  Uiso   1.00
H54    H     0.24511   0.02889   0.30794   0.00000  Uiso   1.00
H55    H     0.27661   0.02873   0.24069   0.00000  Uiso   1.00
N56    N     0.30385   0.10436   0.19491   0.00000  Uiso   1.00
H57    H     0.33259   0.08374   0.17664   0.00000  Uiso   1.00
H58    H     0.29520   0.11798   0.16357   0.00000  Uiso   1.00
N59    N     0.25732   0.08349   0.41922   0.00000  Uiso   1.00
H60    H     0.27425   0.08713   0.37727   0.00000  Uiso   1.00
H61    H     0.23928   0.05527   0.42684   0.00000  Uiso   1.00
C62    C     0.31454   0.13125   0.46185   0.00000  Uiso   1.00
H63    H     0.00735   0.11539   0.47557   0.00000  Uiso   1.00
O64    O     0.32719   0.14196   0.41433   0.00000  Uiso   1.00
C65    C     0.03701   0.24519   0.00920   0.00000  Uiso   1.00
H66    H     0.01220   0.25249   0.48819   0.00000  Uiso   1.00
O67    O     0.03202   0.26313   0.05163   0.00000  Uiso   1.00
N68    N     0.17777   0.09287   0.38255   0.00000  Uiso   1.00
H69    H     0.20918   0.09259   0.34816   0.00000  Uiso   1.00
H70    H     0.17280   0.06334   0.39992   0.00000  Uiso   1.00
C71    C     0.49964   0.24662   0.25035   0.00000  Uiso   1.00
C72    C     0.48017   0.17449   0.48930   0.00000  Uiso   1.00
C73    C     0.48383   0.15475   0.44041   0.00000  Uiso   1.00
C74    C     0.51614   0.16563   0.01202   0.00000  Uiso   1.00
C75    C     0.55786   0.14172   0.48273   0.00000  Uiso   1.00
C76    C     0.55606   0.11661   0.43976   0.00000  Uiso   1.00
C77    C     0.51747   0.12177   0.42066   0.00000  Uiso   1.00
C78    C     0.51023   0.17777   0.06456   0.00000  Uiso   1.00
C79    C     0.59153   0.15471   0.05375   0.00000  Uiso   1.00
C80    C     0.45481   0.16933   0.41140   0.00000  Uiso   1.00
C81    C     0.53693   0.31051   0.26093   0.00000  Uiso   1.00
C82    C     0.47291   0.16609   0.35230   0.00000  Uiso   1.00
C83    C     0.53829   0.01965   0.26087   0.00000  Uiso   1.00
C84    C     0.50071   0.04219   0.25146   0.00000  Uiso   1.00
C85    C     0.46253   0.02179   0.24267   0.00000  Uiso   1.00
C86    C     0.46175   0.31267   0.24268   0.00000  Uiso   1.00
C87    C     0.49917   0.29058   0.25145   0.00000  Uiso   1.00
C88    C     0.65187   0.13657   0.22268   0.00000  Uiso   1.00
C89    C     0.36661   0.13686   0.22275   0.00000  Uiso   1.00
C90    C     0.34814   0.19637   0.27754   0.00000  Uiso   1.00
C91    C     0.63357   0.19640   0.27748   0.00000  Uiso   1.00
C92    C     0.50024   0.08653   0.25050   0.00000  Uiso   1.00
C93    C     0.52721   0.16786   0.14740   0.00000  Uiso   1.00
C94    C     0.59826   0.14137   0.00032   0.00000  Uiso   1.00
C95    C     0.54477   0.16808   0.08759   0.00000  Uiso   1.00
C96    C     0.41609   0.19669   0.43573   0.00000  Uiso   1.00
C97    C     0.40934   0.21393   0.48629   0.00000  Uiso   1.00
C98    C     0.44227   0.20400   0.01203   0.00000  Uiso   1.00
H99    H     0.43344   0.03852   0.23520   0.00000  Uiso   1.00
H100   H     0.43234   0.29727   0.23524   0.00000  Uiso   1.00
H101   H     0.39246   0.11320   0.20113   0.00000  Uiso   1.00
H102   H     0.35895   0.22012   0.29964   0.00000  Uiso   1.00
H103   H     0.60813   0.22016   0.29954   0.00000  Uiso   1.00
H104   H     0.47628   0.19095   0.09053   0.00000  Uiso   1.00
H105   H     0.39382   0.20758   0.41316   0.00000  Uiso   1.00
H106   H     0.43876   0.22121   0.04824   0.00000  Uiso   1.00
H107   H     0.56576   0.29329   0.26838   0.00000  Uiso   1.00
N108   N     0.38093   0.16668   0.25002   0.00000  Uiso   1.00
N109   N     0.61906   0.16665   0.25000   0.00000  Uiso   1.00
O110   O     0.46179   0.22775   0.25001   0.00000  Uiso   1.00
O111   O     0.53823   0.22774   0.25001   0.00000  Uiso   1.00
O112   O     0.44280   0.16666   0.32681   0.00000  Uiso   1.00
O113   O     0.51924   0.16665   0.32681   0.00000  Uiso   1.00
O114   O     0.46177   0.10559   0.25000   0.00000  Uiso   1.00
O115   O     0.53821   0.10558   0.24999   0.00000  Uiso   1.00
O116   O     0.48076   0.16668   0.17319   0.00000  Uiso   1.00
O117   O     0.55720   0.16667   0.17319   0.00000  Uiso   1.00
Zn118  Zn    0.44896   0.16667   0.25000   0.00000  Uiso   1.00
Zn119  Zn    0.55104   0.16666   0.25000   0.00000  Uiso   1.00
C120   C     0.63339   0.15613   0.07237   0.00000  Uiso   1.00
H121   H     0.66015   0.13130   0.06241   0.00000  Uiso   1.00
O122   O     0.63934   0.18597   0.09749   0.00000  Uiso   1.00
N123   N     0.57783   0.03913   0.27041   0.00000  Uiso   1.00
H124   H     0.57845   0.02889   0.30794   0.00000  Uiso   1.00
H125   H     0.60995   0.02873   0.24069   0.00000  Uiso   1.00
N126   N     0.63719   0.10436   0.19491   0.00000  Uiso   1.00
H127   H     0.66592   0.08374   0.17664   0.00000  Uiso   1.00
H128   H     0.62854   0.11798   0.16357   0.00000  Uiso   1.00
N129   N     0.59066   0.08349   0.41922   0.00000  Uiso   1.00
H130   H     0.60758   0.08713   0.37727   0.00000  Uiso   1.00
H131   H     0.57262   0.05527   0.42684   0.00000  Uiso   1.00
C132   C     0.64787   0.13125   0.46185   0.00000  Uiso   1.00
H133   H     0.34069   0.11539   0.47557   0.00000  Uiso   1.00
O134   O     0.66052   0.14196   0.41433   0.00000  Uiso   1.00
C135   C     0.37034   0.24519   0.00920   0.00000  Uiso   1.00
H136   H     0.34553   0.25249   0.48819   0.00000  Uiso   1.00
O137   O     0.36535   0.26313   0.05163   0.00000  Uiso   1.00
N138   N     0.51110   0.09287   0.38255   0.00000  Uiso   1.00
H139   H     0.54251   0.09259   0.34816   0.00000  Uiso   1.00
H140   H     0.50614   0.06334   0.39992   0.00000  Uiso   1.00
C141   C     0.83298   0.24662   0.25035   0.00000  Uiso   1.00
C142   C     0.81351   0.17449   0.48930   0.00000  Uiso   1.00
C143   C     0.81716   0.15475   0.44041   0.00000  Uiso   1.00
C144   C     0.84948   0.16563   0.01202   0.00000  Uiso   1.00
C145   C     0.89119   0.14172   0.48273   0.00000  Uiso   1.00
C146   C     0.88939   0.11661   0.43976   0.00000  Uiso   1.00
C147   C     0.85080   0.12177   0.42066   0.00000  Uiso   1.00
C148   C     0.84356   0.17777   0.06456   0.00000  Uiso   1.00
C149   C     0.92487   0.15471   0.05375   0.00000  Uiso   1.00
C150   C     0.78814   0.16933   0.41140   0.00000  Uiso   1.00
C151   C     0.87026   0.31051   0.26093   0.00000  Uiso   1.00
C152   C     0.80624   0.16609   0.35230   0.00000  Uiso   1.00
C153   C     0.87163   0.01965   0.26087   0.00000  Uiso   1.00
C154   C     0.83404   0.04219   0.25146   0.00000  Uiso   1.00
C155   C     0.79587   0.02179   0.24267   0.00000  Uiso   1.00
C156   C     0.79509   0.31267   0.24268   0.00000  Uiso   1.00
C157   C     0.83250   0.29058   0.25145   0.00000  Uiso   1.00
C158   C     0.98521   0.13657   0.22268   0.00000  Uiso   1.00
C159   C     0.69994   0.13686   0.22275   0.00000  Uiso   1.00
C160   C     0.68148   0.19637   0.27754   0.00000  Uiso   1.00
C161   C     0.96690   0.19640   0.27748   0.00000  Uiso   1.00
C162   C     0.83357   0.08653   0.25050   0.00000  Uiso   1.00
C163   C     0.86054   0.16786   0.14740   0.00000  Uiso   1.00
C164   C     0.93159   0.14137   0.00032   0.00000  Uiso   1.00
C165   C     0.87810   0.16808   0.08759   0.00000  Uiso   1.00
C166   C     0.74942   0.19669   0.43573   0.00000  Uiso   1.00
C167   C     0.74268   0.21393   0.48629   0.00000  Uiso   1.00
C168   C     0.77561   0.20400   0.01203   0.00000  Uiso   1.00
H169   H     0.76677   0.03852   0.23520   0.00000  Uiso   1.00
H170   H     0.76567   0.29727   0.23524   0.00000  Uiso   1.00
H171   H     0.72580   0.11320   0.20113   0.00000  Uiso   1.00
H172   H     0.69228   0.22012   0.29964   0.00000  Uiso   1.00
H173   H     0.94146   0.22016   0.29954   0.00000  Uiso   1.00
H174   H     0.80962   0.19095   0.09053   0.00000  Uiso   1.00
H175   H     0.72715   0.20758   0.41316   0.00000  Uiso   1.00
H176   H     0.77209   0.22121   0.04824   0.00000  Uiso   1.00
H177   H     0.89909   0.29329   0.26838   0.00000  Uiso   1.00
N178   N     0.71426   0.16668   0.25002   0.00000  Uiso   1.00
N179   N     0.95239   0.16665   0.25000   0.00000  Uiso   1.00
O180   O     0.79512   0.22775   0.25001   0.00000  Uiso   1.00
O181   O     0.87157   0.22774   0.25001   0.00000  Uiso   1.00
O182   O     0.77613   0.16666   0.32681   0.00000  Uiso   1.00
O183   O     0.85258   0.16665   0.32681   0.00000  Uiso   1.00
O184   O     0.79510   0.10559   0.25000   0.00000  Uiso   1.00
O185   O     0.87154   0.10558   0.24999   0.00000  Uiso   1.00
O186   O     0.81409   0.16668   0.17319   0.00000  Uiso   1.00
O187   O     0.89053   0.16667   0.17319   0.00000  Uiso   1.00
Zn188  Zn    0.78229   0.16667   0.25000   0.00000  Uiso   1.00
Zn189  Zn    0.88438   0.16666   0.25000   0.00000  Uiso   1.00
C190   C     0.96672   0.15613   0.07237   0.00000  Uiso   1.00
H191   H     0.99349   0.13130   0.06241   0.00000  Uiso   1.00
O192   O     0.97268   0.18597   0.09749   0.00000  Uiso   1.00
N193   N     0.91117   0.03913   0.27041   0.00000  Uiso   1.00
H194   H     0.91178   0.02889   0.30794   0.00000  Uiso   1.00
H195   H     0.94328   0.02873   0.24069   0.00000  Uiso   1.00
N196   N     0.97052   0.10436   0.19491   0.00000  Uiso   1.00
H197   H     0.99926   0.08374   0.17664   0.00000  Uiso   1.00
H198   H     0.96187   0.11798   0.16357   0.00000  Uiso   1.00
N199   N     0.92399   0.08349   0.41922   0.00000  Uiso   1.00
H200   H     0.94092   0.08713   0.37727   0.00000  Uiso   1.00
H201   H     0.90595   0.05527   0.42684   0.00000  Uiso   1.00
C202   C     0.98121   0.13125   0.46185   0.00000  Uiso   1.00
H203   H     0.67402   0.11539   0.47557   0.00000  Uiso   1.00
O204   O     0.99385   0.14196   0.41433   0.00000  Uiso   1.00
C205   C     0.70368   0.24519   0.00920   0.00000  Uiso   1.00
H206   H     0.67886   0.25249   0.48819   0.00000  Uiso   1.00
O207   O     0.69869   0.26313   0.05163   0.00000  Uiso   1.00
N208   N     0.84444   0.09287   0.38255   0.00000  Uiso   1.00
H209   H     0.87584   0.09259   0.34816   0.00000  Uiso   1.00
H210   H     0.83947   0.06334   0.39992   0.00000  Uiso   1.00
C211   C     0.16631   0.57995   0.25035   0.00000  Uiso   1.00
C212   C     0.14684   0.50783   0.48930   0.00000  Uiso   1.00
C213   C     0.15050   0.48809   0.44041   0.00000  Uiso   1.00
C214   C     0.18281   0.49896   0.01202   0.00000  Uiso   1.00
C215   C     0.22453   0.47506   0.48273   0.00000  Uiso   1.00
C216   C     0.22273   0.44994   0.43976   0.00000  Uiso   1.00
C217   C     0.18414   0.45510   0.42066   0.00000  Uiso   1.00
C218   C     0.17689   0.51110   0.06456   0.00000  Uiso   1.00
C219   C     0.25820   0.48804   0.05375   0.00000  Uiso   1.00
C220   C     0.12148   0.50266   0.41140   0.00000  Uiso   1.00
C221   C     0.20360   0.64384   0.26093   0.00000  Uiso   1.00
C222   C     0.13958   0.49942   0.35230   0.00000  Uiso   1.00
C223   C     0.20496   0.35298   0.26087   0.00000  Uiso   1.00
C224   C     0.16738   0.37552   0.25146   0.00000  Uiso   1.00
C225   C     0.12920   0.35513   0.24267   0.00000  Uiso   1.00
C226   C     0.12842   0.64600   0.24268   0.00000  Uiso   1.00
C227   C     0.16583   0.62391   0.25145   0.00000  Uiso   1.00
C228   C     0.31854   0.46990   0.22268   0.00000  Uiso   1.00
C229   C     0.03328   0.47019   0.22275   0.00000  Uiso   1.00
C230   C     0.01481   0.52971   0.27754   0.00000  Uiso   1.00
C231   C     0.30024   0.52973   0.27748   0.00000  Uiso   1.00
C232   C     0.16690   0.41987   0.25050   0.00000  Uiso   1.00
C233   C     0.19388   0.50119   0.14740   0.00000  Uiso   1.00
C234   C     0.26492   0.47470   0.00032   0.00000  Uiso   1.00
C235   C     0.21143   0.50142   0.08759   0.00000  Uiso   1.00
C236   C     0.08275   0.53003   0.43573   0.00000  Uiso   1.00
C237   C     0.07601   0.54726   0.48629   0.00000  Uiso   1.00
C238   C     0.10894   0.53734   0.01203   0.00000  Uiso   1.00
H239   H     0.10011   0.37186   0.23520   0.00000  Uiso   1.00
H240   H     0.09900   0.63061   0.23524   0.00000  Uiso   1.00
H241   H     0.05913   0.44653   0.20113   0.00000  Uiso   1.00
H242   H     0.02561   0.55345   0.29964   0.00000  Uiso   1.00
H243   H     0.27480   0.55350   0.29954   0.00000  Uiso   1.00
H244   H     0.14295   0.52429   0.09053   0.00000  Uiso   1.00
H245   H     0.06049   0.54091   0.41316   0.00000  Uiso   1.00
H246   H     0.10542   0.55454   0.04824   0.00000  Uiso   1.00
H247   H     0.23242   0.62662   0.26838   0.00000  Uiso   1.00
N248   N     0.04760   0.50001   0.25002   0.00000  Uiso   1.00
N249   N     0.28573   0.49998   0.25000   0.00000  Uiso   1.00
O250   O     0.12846   0.56108   0.25001   0.00000  Uiso   1.00
O251   O     0.20490   0.56107   0.25001   0.00000  Uiso   1.00
O252   O     0.10947   0.50000   0.32681   0.00000  Uiso   1.00
O253   O     0.18591   0.49999   0.32681   0.00000  Uiso   1.00
O254   O     0.12843   0.43893   0.25000   0.00000  Uiso   1.00
O255   O     0.20488   0.43892   0.24999   0.00000  Uiso   1.00
O256   O     0.14742   0.50001   0.17319   0.00000  Uiso   1.00
O257   O     0.22387   0.50000   0.17319   0.00000  Uiso   1.00
Zn258  Zn    0.11562   0.50001   0.25000   0.00000  Uiso   1.00
Zn259  Zn    0.21771   0.49999   0.25000   0.00000  Uiso   1.00
C260   C     0.30005   0.48946   0.07237   0.00000  Uiso   1.00
H261   H     0.32682   0.46463   0.06241   0.00000  Uiso   1.00
O262   O     0.30601   0.51930   0.09749   0.00000  Uiso   1.00
N263   N     0.24450   0.37247   0.27041   0.00000  Uiso   1.00
H264   H     0.24511   0.36222   0.30794   0.00000  Uiso   1.00
H265   H     0.27661   0.36206   0.24069   0.00000  Uiso   1.00
N266   N     0.30385   0.43769   0.19491   0.00000  Uiso   1.00
H267   H     0.33259   0.41707   0.17664   0.00000  Uiso   1.00
H268   H     0.29520   0.45131   0.16357   0.00000  Uiso   1.00
N269   N     0.25732   0.41683   0.41922   0.00000  Uiso   1.00
H270   H     0.27425   0.42046   0.37727   0.00000  Uiso   1.00
H271   H     0.23928   0.38860   0.42684   0.00000  Uiso   1.00
C272   C     0.31454   0.46459   0.46185   0.00000  Uiso   1.00
H273   H     0.00735   0.44872   0.47557   0.00000  Uiso   1.00
O274   O     0.32719   0.47529   0.41433   0.00000  Uiso   1.00
C275   C     0.03701   0.57852   0.00920   0.00000  Uiso   1.00
H276   H     0.01220   0.58582   0.48819   0.00000  Uiso   1.00
O277   O     0.03202   0.59646   0.05163   0.00000  Uiso   1.00
N278   N     0.17777   0.42620   0.38255   0.00000  Uiso   1.00
H279   H     0.20918   0.42592   0.34816   0.00000  Uiso   1.00
H280   H     0.17280   0.39668   0.39992   0.00000  Uiso   1.00
C281   C     0.49964   0.57995   0.25035   0.00000  Uiso   1.00
C282   C     0.48017   0.50783   0.48930   0.00000  Uiso   1.00
C283   C     0.48383   0.48809   0.44041   0.00000  Uiso   1.00
C284   C     0.51614   0.49896   0.01202   0.00000  Uiso   1.00
C285   C     0.55786   0.47506   0.48273   0.00000  Uiso   1.00
C286   C     0.55606   0.44994   0.43976   0.00000  Uiso   1.00
C287   C     0.51747   0.45510   0.42066   0.00000  Uiso   1.00
C288   C     0.51023   0.51110   0.06456   0.00000  Uiso   1.00
C289   C     0.59153   0.48804   0.05375   0.00000  Uiso   1.00
C290   C     0.45481   0.50266   0.41140   0.00000  Uiso   1.00
C291   C     0.53693   0.64384   0.26093   0.00000  Uiso   1.00
C292   C     0.47291   0.49942   0.35230   0.00000  Uiso   1.00
C293   C     0.53829   0.35298   0.26087   0.00000  Uiso   1.00
C294   C     0.50071   0.37552   0.25146   0.00000  Uiso   1.00
C295   C     0.46253   0.35513   0.24267   0.00000  Uiso   1.00
C296   C     0.46175   0.64600   0.24268   0.00000  Uiso   1.00
C297   C     0.49917   0.62391   0.25145   0.00000  Uiso   1.00
C298   C     0.65187   0.46990   0.22268   0.00000  Uiso   1.00
C299   C     0.36661   0.47019   0.22275   0.00000  Uiso   1.00
C300   C     0.34814   0.52971   0.27754   0.00000  Uiso   1.00
C301   C     0.63357   0.52973   0.27748   0.00000  Uiso   1.00
C302   C     0.50024   0.41987   0.25050   0.00000  Uiso   1.00
C303   C     0.52721   0.50119   0.14740   0.00000  Uiso   1.00
C304   C     0.59826   0.47470   0.00032   0.00000  Uiso   1.00
C305   C     0.54477   0.50142   0.08759   0.00000  Uiso   1.00
C306   C     0.41609   0.53003   0.43573   0.00000  Uiso   1.00
C307   C     0.40934   0.54726   0.48629   0.00000  Uiso   1.00
C308   C     0.44227   0.53734   0.01203   0.00000  Uiso   1.00
H309   H     0.43344   0.37186   0.23520   0.00000  Uiso   1.00
H310   H     0.43234   0.63061   0.23524   0.00000  Uiso   1.00
H311   H     0.39246   0.44653   0.20113   0.00000  Uiso   1.00
H312   H     0.35895   0.55345   0.29964   0.00000  Uiso   1.00
H313   H     0.60813   0.55350   0.29954   0.00000  Uiso   1.00
H314   H     0.47628   0.52429   0.09053   0.00000  Uiso   1.00
H315   H     0.39382   0.54091   0.41316   0.00000  Uiso   1.00
H316   H     0.43876   0.55454   0.04824   0.00000  Uiso   1.00
H317   H     0.56576   0.62662   0.26838   0.00000  Uiso   1.00
N318   N     0.38093   0.50001   0.25002   0.00000  Uiso   1.00
N319   N     0.61906   0.49998   0.25000   0.00000  Uiso   1.00
O320   O     0.46179   0.56108   0.25001   0.00000  Uiso   1.00
O321   O     0.53823   0.56107   0.25001   0.00000  Uiso   1.00
O322   O     0.44280   0.50000   0.32681   0.00000  Uiso   1.00
O323   O     0.51924   0.49999   0.32681   0.00000  Uiso   1.00
O324   O     0.46177   0.43893   0.25000   0.00000  Uiso   1.00
O325   O     0.53821   0.43892   0.24999   0.00000  Uiso   1.00
O326   O     0.48076   0.50001   0.17319   0.00000  Uiso   1.00
O327   O     0.55720   0.50000   0.17319   0.00000  Uiso   1.00
Zn328  Zn    0.44896   0.50001   0.25000   0.00000  Uiso   1.00
Zn329  Zn    0.55104   0.49999   0.25000   0.00000  Uiso   1.00
C330   C     0.63339   0.48946   0.07237   0.00000  Uiso   1.00
H331   H     0.66015   0.46463   0.06241   0.00000  Uiso   1.00
O332   O     0.63934   0.51930   0.09749   0.00000  Uiso   1.00
N333   N     0.57783   0.37247   0.27041   0.00000  Uiso   1.00
H334   H     0.57845   0.36222   0.30794   0.00000  Uiso   1.00
H335   H     0.60995   0.36206   0.24069   0.00000  Uiso   1.00
N336   N     0.63719   0.43769   0.19491   0.00000  Uiso   1.00
H337   H     0.66592   0.41707   0.17664   0.00000  Uiso   1.00
H338   H     0.62854   0.45131   0.16357   0.00000  Uiso   1.00
N339   N     0.59066   0.41683   0.41922   0.00000  Uiso   1.00
H340   H     0.60758   0.42046   0.37727   0.00000  Uiso   1.00
H341   H     0.57262   0.38860   0.42684   0.00000  Uiso   1.00
C342   C     0.64787   0.46459   0.46185   0.00000  Uiso   1.00
H343   H     0.34069   0.44872   0.47557   0.00000  Uiso   1.00
O344   O     0.66052   0.47529   0.41433   0.00000  Uiso   1.00
C345   C     0.37034   0.57852   0.00920   0.00000  Uiso   1.00
H346   H     0.34553   0.58582   0.48819   0.00000  Uiso   1.00
O347   O     0.36535   0.59646   0.05163   0.00000  Uiso   1.00
N348   N     0.51110   0.42620   0.38255   0.00000  Uiso   1.00
H349   H     0.54251   0.42592   0.34816   0.00000  Uiso   1.00
H350   H     0.50614   0.39668   0.39992   0.00000  Uiso   1.00
C351   C     0.83298   0.57995   0.25035   0.00000  Uiso   1.00
C352   C     0.81351   0.50783   0.48930   0.00000  Uiso   1.00
C353   C     0.81716   0.48809   0.44041   0.00000  Uiso   1.00
C354   C     0.84948   0.49896   0.01202   0.00000  Uiso   1.00
C355   C     0.89119   0.47506   0.48273   0.00000  Uiso   1.00
C356   C     0.88939   0.44994   0.43976   0.00000  Uiso   1.00
C357   C     0.85080   0.45510   0.42066   0.00000  Uiso   1.00
C358   C     0.84356   0.51110   0.06456   0.00000  Uiso   1.00
C359   C     0.92487   0.48804   0.05375   0.00000  Uiso   1.00
C360   C     0.78814   0.50266   0.41140   0.00000  Uiso   1.00
C361   C     0.87026   0.64384   0.26093   0.00000  Uiso   1.00
C362   C     0.80624   0.49942   0.35230   0.00000  Uiso   1.00
C363   C     0.87163   0.35298   0.26087   0.00000  Uiso   1.00
C364   C     0.83404   0.37552   0.25146   0.00000  Uiso   1.00
C365   C     0.79587   0.35513   0.24267   0.00000  Uiso   1.00
C366   C     0.79509   0.64600   0.24268   0.00000  Uiso   1.00
C367   C     0.83250   0.62391   0.25145   0.00000  Uiso   1.00
C368   C     0.98521   0.46990   0.22268   0.00000  Uiso   1.00
C369   C     0.69994   0.47019   0.22275   0.00000  Uiso   1.00
C370   C     0.68148   0.52971   0.27754   0.00000  Uiso   1.00
C371   C     0.96690   0.52973   0.27748   0.00000  Uiso   1.00
C372   C     0.83357   0.41987   0.25050   0.00000  Uiso   1.00
C373   C     0.86054   0.50119   0.14740   0.00000  Uiso   1.00
C374   C     0.93159   0.47470   0.00032   0.00000  Uiso   1.00
C375   C     0.87810   0.50142   0.08759   0.00000  Uiso   1.00
C376   C     0.74942   0.53003   0.43573   0.00000  Uiso   1.00
C377   C     0.74268   0.54726   0.48629   0.00000  Uiso   1.00
C378   C     0.77561   0.53734   0.01203   0.00000  Uiso   1.00
H379   H     0.76677   0.37186   0.23520   0.00000  Uiso   1.00
H380   H     0.76567   0.63061   0.23524   0.00000  Uiso   1.00
H381   H     0.72580   0.44653   0.20113   0.00000  Uiso   1.00
H382   H     0.69228   0.55345   0.29964   0.00000  Uiso   1.00
H383   H     0.94146   0.55350   0.29954   0.00000  Uiso   1.00
H384   H     0.80962   0.52429   0.09053   0.00000  Uiso   1.00
H385   H     0.72715   0.54091   0.41316   0.00000  Uiso   1.00
H386   H     0.77209   0.55454   0.04824   0.00000  Uiso   1.00
H387   H     0.89909   0.62662   0.26838   0.00000  Uiso   1.00
N388   N     0.71426   0.50001   0.25002   0.00000  Uiso   1.00
N389   N     0.95239   0.49998   0.25000   0.00000  Uiso   1.00
O390   O     0.79512   0.56108   0.25001   0.00000  Uiso   1.00
O391   O     0.87157   0.56107   0.25001   0.00000  Uiso   1.00
O392   O     0.77613   0.50000   0.32681   0.00000  Uiso   1.00
O393   O     0.85258   0.49999   0.32681   0.00000  Uiso   1.00
O394   O     0.79510   0.43893   0.25000   0.00000  Uiso   1.00
O395   O     0.87154   0.43892   0.24999   0.00000  Uiso   1.00
O396   O     0.81409   0.50001   0.17319   0.00000  Uiso   1.00
O397   O     0.89053   0.50000   0.17319   0.00000  Uiso   1.00
Zn398  Zn    0.78229   0.50001   0.25000   0.00000  Uiso   1.00
Zn399  Zn    0.88438   0.49999   0.25000   0.00000  Uiso   1.00
C400   C     0.96672   0.48946   0.07237   0.00000  Uiso   1.00
H401   H     0.99349   0.46463   0.06241   0.00000  Uiso   1.00
O402   O     0.97268   0.51930   0.09749   0.00000  Uiso   1.00
N403   N     0.91117   0.37247   0.27041   0.00000  Uiso   1.00
H404   H     0.91178   0.36222   0.30794   0.00000  Uiso   1.00
H405   H     0.94328   0.36206   0.24069   0.00000  Uiso   1.00
N406   N     0.97052   0.43769   0.19491   0.00000  Uiso   1.00
H407   H     0.99926   0.41707   0.17664   0.00000  Uiso   1.00
H408   H     0.96187   0.45131   0.16357   0.00000  Uiso   1.00
N409   N     0.92399   0.41683   0.41922   0.00000  Uiso   1.00
H410   H     0.94092   0.42046   0.37727   0.00000  Uiso   1.00
H411   H     0.90595   0.38860   0.42684   0.00000  Uiso   1.00
C412   C     0.98121   0.46459   0.46185   0.00000  Uiso   1.00
H413   H     0.67402   0.44872   0.47557   0.00000  Uiso   1.00
O414   O     0.99385   0.47529   0.41433   0.00000  Uiso   1.00
C415   C     0.70368   0.57852   0.00920   0.00000  Uiso   1.00
H416   H     0.67886   0.58582   0.48819   0.00000  Uiso   1.00
O417   O     0.69869   0.59646   0.05163   0.00000  Uiso   1.00
N418   N     0.84444   0.42620   0.38255   0.00000  Uiso   1.00
H419   H     0.87584   0.42592   0.34816   0.00000  Uiso   1.00
H420   H     0.83947   0.39668   0.39992   0.00000  Uiso   1.00
C421   C     0.16631   0.91329   0.25035   0.00000  Uiso   1.00
C422   C     0.14684   0.84116   0.48930   0.00000  Uiso   1.00
C423   C     0.15050   0.82142   0.44041   0.00000  Uiso   1.00
C424   C     0.18281   0.83229   0.01202   0.00000  Uiso   1.00
C425   C     0.22453   0.80839   0.48273   0.00000  Uiso   1.00
C426   C     0.22273   0.78328   0.43976   0.00000  Uiso   1.00
C427   C     0.18414   0.78843   0.42066   0.00000  Uiso   1.00
C428   C     0.17689   0.84443   0.06456   0.00000  Uiso   1.00
C429   C     0.25820   0.82137   0.05375   0.00000  Uiso   1.00
C430   C     0.12148   0.83599   0.41140   0.00000  Uiso   1.00
C431   C     0.20360   0.97718   0.26093   0.00000  Uiso   1.00
C432   C     0.13958   0.83275   0.35230   0.00000  Uiso   1.00
C433   C     0.20496   0.68631   0.26087   0.00000  Uiso   1.00
C434   C     0.16738   0.70885   0.25146   0.00000  Uiso   1.00
C435   C     0.12920   0.68846   0.24267   0.00000  Uiso   1.00
C436   C     0.12842   0.97934   0.24268   0.00000  Uiso   1.00
C437   C     0.16583   0.95724   0.25145   0.00000  Uiso   1.00
C438   C     0.31854   0.80324   0.22268   0.00000  Uiso   1.00
C439   C     0.03328   0.80353   0.22275   0.00000  Uiso   1.00
C440   C     0.01481   0.86304   0.27754   0.00000  Uiso   1.00
C441   C     0.30024   0.86306   0.27748   0.00000  Uiso   1.00
C442   C     0.16690   0.75320   0.25050   0.00000  Uiso   1.00
C443   C     0.19388   0.83452   0.14740   0.00000  Uiso   1.00
C444   C     0.26492   0.80803   0.00032   0.00000  Uiso   1.00
C445   C     0.21143   0.83475   0.08759   0.00000  Uiso   1.00
C446   C     0.08275   0.86336   0.43573   0.00000  Uiso   1.00
C447   C     0.07601   0.88059   0.48629   0.00000  Uiso   1.00
C448   C     0.10894   0.87067   0.01203   0.00000  Uiso   1.00
H449   H     0.10011   0.70519   0.23520   0.00000  Uiso   1.00
H450   H     0.09900   0.96394   0.23524   0.00000  Uiso   1.00
H451   H     0.05913   0.77987   0.20113   0.00000  Uiso   1.00
H452   H     0.02561   0.88679   0.29964   0.00000  Uiso   1.00
H453   H     0.27480   0.88683   0.29954   0.00000  Uiso   1.00
H454   H     0.14295   0.85762   0.09053   0.00000  Uiso   1.00
H455   H     0.06049   0.87424   0.41316   0.00000  Uiso   1.00
H456   H     0.10542   0.88787   0.04824   0.00000  Uiso   1.00
H457   H     0.23242   0.95995   0.26838   0.00000  Uiso   1.00
N458   N     0.04760   0.83334   0.25002   0.00000  Uiso   1.00
N459   N     0.28573   0.83331   0.25000   0.00000  Uiso   1.00
O460   O     0.12846   0.89442   0.25001   0.00000  Uiso   1.00
O461   O     0.20490   0.89441   0.25001   0.00000  Uiso   1.00
O462   O     0.10947   0.83333   0.32681   0.00000  Uiso   1.00
O463   O     0.18591   0.83332   0.32681   0.00000  Uiso   1.00
O464   O     0.12843   0.77226   0.25000   0.00000  Uiso   1.00
O465   O     0.20488   0.77225   0.24999   0.00000  Uiso   1.00
O466   O     0.14742   0.83335   0.17319   0.00000  Uiso   1.00
O467   O     0.22387   0.83334   0.17319   0.00000  Uiso   1.00
Zn468  Zn    0.11562   0.83334   0.25000   0.00000  Uiso   1.00
Zn469  Zn    0.21771   0.83333   0.25000   0.00000  Uiso   1.00
C470   C     0.30005   0.82279   0.07237   0.00000  Uiso   1.00
H471   H     0.32682   0.79796   0.06241   0.00000  Uiso   1.00
O472   O     0.30601   0.85263   0.09749   0.00000  Uiso   1.00
N473   N     0.24450   0.70580   0.27041   0.00000  Uiso   1.00
H474   H     0.24511   0.69555   0.30794   0.00000  Uiso   1.00
H475   H     0.27661   0.69539   0.24069   0.00000  Uiso   1.00
N476   N     0.30385   0.77103   0.19491   0.00000  Uiso   1.00
H477   H     0.33259   0.75041   0.17664   0.00000  Uiso   1.00
H478   H     0.29520   0.78464   0.16357   0.00000  Uiso   1.00
N479   N     0.25732   0.75016   0.41922   0.00000  Uiso   1.00
H480   H     0.27425   0.75380   0.37727   0.00000  Uiso   1.00
H481   H     0.23928   0.72194   0.42684   0.00000  Uiso   1.00
C482   C     0.31454   0.79792   0.46185   0.00000  Uiso   1.00
H483   H     0.00735   0.78205   0.47557   0.00000  Uiso   1.00
O484   O     0.32719   0.80862   0.41433   0.00000  Uiso   1.00
C485   C     0.03701   0.91185   0.00920   0.00000  Uiso   1.00
H486   H     0.01220   0.91915   0.48819   0.00000  Uiso   1.00
O487   O     0.03202   0.92980   0.05163   0.00000  Uiso   1.00
N488   N     0.17777   0.75954   0.38255   0.00000  Uiso   1.00
H489   H     0.20918   0.75926   0.34816   0.00000  Uiso   1.00
H490   H     0.17280   0.73001   0.39992   0.00000  Uiso   1.00
C491   C     0.49964   0.91329   0.25035   0.00000  Uiso   1.00
C492   C     0.48017   0.84116   0.48930   0.00000  Uiso   1.00
C493   C     0.48383   0.82142   0.44041   0.00000  Uiso   1.00
C494   C     0.51614   0.83229   0.01202   0.00000  Uiso   1.00
C495   C     0.55786   0.80839   0.48273   0.00000  Uiso   1.00
C496   C     0.55606   0.78328   0.43976   0.00000  Uiso   1.00
C497   C     0.51747   0.78843   0.42066   0.00000  Uiso   1.00
C498   C     0.51023   0.84443   0.06456   0.00000  Uiso   1.00
C499   C     0.59153   0.82137   0.05375   0.00000  Uiso   1.00
C500   C     0.45481   0.83599   0.41140   0.00000  Uiso   1.00
C501   C     0.53693   0.97718   0.26093   0.00000  Uiso   1.00
C502   C     0.47291   0.83275   0.35230   0.00000  Uiso   1.00
C503   C     0.53829   0.68631   0.26087   0.00000  Uiso   1.00
C504   C     0.50071   0.70885   0.25146   0.00000  Uiso   1.00
C505   C     0.46253   0.68846   0.24267   0.00000  Uiso   1.00
C506   C     0.46175   0.97934   0.24268   0.00000  Uiso   1.00
C507   C     0.49917   0.95724   0.25145   0.00000  Uiso   1.00
C508   C     0.65187   0.80324   0.22268   0.00000  Uiso   1.00
C509   C     0.36661   0.80353   0.22275   0.00000  Uiso   1.00
C510   C     0.34814   0.86304   0.27754   0.00000  Uiso   1.00
C511   C     0.63357   0.86306   0.27748   0.00000  Uiso   1.00
C512   C     0.50024   0.75320   0.25050   0.00000  Uiso   1.00
C513   C     0.52721   0.83452   0.14740   0.00000  Uiso   1.00
C514   C     0.59826   0.80803   0.00032   0.00000  Uiso   1.00
C515   C     0.54477   0.83475   0.08759   0.00000  Uiso   1.00
C516   C     0.41609   0.86336   0.43573   0.00000  Uiso   1.00
C517   C     0.40934   0.88059   0.48629   0.00000  Uiso   1.00
C518   C     0.44227   0.87067   0.01203   0.00000  Uiso   1.00
H519   H     0.43344   0.70519   0.23520   0.00000  Uiso   1.00
H520   H     0.43234   0.96394   0.23524   0.00000  Uiso   1.00
H521   H     0.39246   0.77987   0.20113   0.00000  Uiso   1.00
H522   H     0.35895   0.88679   0.29964   0.00000  Uiso   1.00
H523   H     0.60813   0.88683   0.29954   0.00000  Uiso   1.00
H524   H     0.47628   0.85762   0.09053   0.00000  Uiso   1.00
H525   H     0.39382   0.87424   0.41316   0.00000  Uiso   1.00
H526   H     0.43876   0.88787   0.04824   0.00000  Uiso   1.00
H527   H     0.56576   0.95995   0.26838   0.00000  Uiso   1.00
N528   N     0.38093   0.83334   0.25002   0.00000  Uiso   1.00
N529   N     0.61906   0.83331   0.25000   0.00000  Uiso   1.00
O530   O     0.46179   0.89442   0.25001   0.00000  Uiso   1.00
O531   O     0.53823   0.89441   0.25001   0.00000  Uiso   1.00
O532   O     0.44280   0.83333   0.32681   0.00000  Uiso   1.00
O533   O     0.51924   0.83332   0.32681   0.00000  Uiso   1.00
O534   O     0.46177   0.77226   0.25000   0.00000  Uiso   1.00
O535   O     0.53821   0.77225   0.24999   0.00000  Uiso   1.00
O536   O     0.48076   0.83335   0.17319   0.00000  Uiso   1.00
O537   O     0.55720   0.83334   0.17319   0.00000  Uiso   1.00
Zn538  Zn    0.44896   0.83334   0.25000   0.00000  Uiso   1.00
Zn539  Zn    0.55104   0.83333   0.25000   0.00000  Uiso   1.00
C540   C     0.63339   0.82279   0.07237   0.00000  Uiso   1.00
H541   H     0.66015   0.79796   0.06241   0.00000  Uiso   1.00
O542   O     0.63934   0.85263   0.09749   0.00000  Uiso   1.00
N543   N     0.57783   0.70580   0.27041   0.00000  Uiso   1.00
H544   H     0.57845   0.69555   0.30794   0.00000  Uiso   1.00
H545   H     0.60995   0.69539   0.24069   0.00000  Uiso   1.00
N546   N     0.63719   0.77103   0.19491   0.00000  Uiso   1.00
H547   H     0.66592   0.75041   0.17664   0.00000  Uiso   1.00
H548   H     0.62854   0.78464   0.16357   0.00000  Uiso   1.00
N549   N     0.59066   0.75016   0.41922   0.00000  Uiso   1.00
H550   H     0.60758   0.75380   0.37727   0.00000  Uiso   1.00
H551   H     0.57262   0.72194   0.42684   0.00000  Uiso   1.00
C552   C     0.64787   0.79792   0.46185   0.00000  Uiso   1.00
H553   H     0.34069   0.78205   0.47557   0.00000  Uiso   1.00
O554   O     0.66052   0.80862   0.41433   0.00000  Uiso   1.00
C555   C     0.37034   0.91185   0.00920   0.00000  Uiso   1.00
H556   H     0.34553   0.91915   0.48819   0.00000  Uiso   1.00
O557   O     0.36535   0.92980   0.05163   0.00000  Uiso   1.00
N558   N     0.51110   0.75954   0.38255   0.00000  Uiso   1.00
H559   H     0.54251   0.75926   0.34816   0.00000  Uiso   1.00
H560   H     0.50614   0.73001   0.39992   0.00000  Uiso   1.00
C561   C     0.83298   0.91329   0.25035   0.00000  Uiso   1.00
C562   C     0.81351   0.84116   0.48930   0.00000  Uiso   1.00
C563   C     0.81716   0.82142   0.44041   0.00000  Uiso   1.00
C564   C     0.84948   0.83229   0.01202   0.00000  Uiso   1.00
C565   C     0.89119   0.80839   0.48273   0.00000  Uiso   1.00
C566   C     0.88939   0.78328   0.43976   0.00000  Uiso   1.00
C567   C     0.85080   0.78843   0.42066   0.00000  Uiso   1.00
C568   C     0.84356   0.84443   0.06456   0.00000  Uiso   1.00
C569   C     0.92487   0.82137   0.05375   0.00000  Uiso   1.00
C570   C     0.78814   0.83599   0.41140   0.00000  Uiso   1.00
C571   C     0.87026   0.97718   0.26093   0.00000  Uiso   1.00
C572   C     0.80624   0.83275   0.35230   0.00000  Uiso   1.00
C573   C     0.87163   0.68631   0.26087   0.00000  Uiso   1.00
C574   C     0.83404   0.70885   0.25146   0.00000  Uiso   1.00
C575   C     0.79587   0.68846   0.24267   0.00000  Uiso   1.00
C576   C     0.79509   0.97934   0.24268   0.00000  Uiso   1.00
C577   C     0.83250   0.95724   0.25145   0.00000  Uiso   1.00
C578   C     0.98521   0.80324   0.22268   0.00000  Uiso   1.00
C579   C     0.69994   0.80353   0.22275   0.00000  Uiso   1.00
C580   C     0.68148   0.86304   0.27754   0.00000  Uiso   1.00
C581   C     0.96690   0.86306   0.27748   0.00000  Uiso   1.00
C582   C     0.83357   0.75320   0.25050   0.00000  Uiso   1.00
C583   C     0.86054   0.83452   0.14740   0.00000  Uiso   1.00
C584   C     0.93159   0.80803   0.00032   0.00000  Uiso   1.00
C585   C     0.87810   0.83475   0.08759   0.00000  Uiso   1.00
C586   C     0.74942   0.86336   0.43573   0.00000  Uiso   1.00
C587   C     0.74268   0.88059   0.48629   0.00000  Uiso   1.00
C588   C     0.77561   0.87067   0.01203   0.00000  Uiso   1.00
H589   H     0.76677   0.70519   0.23520   0.00000  Uiso   1.00
H590   H     0.76567   0.96394   0.23524   0.00000  Uiso   1.00
H591   H     0.72580   0.77987   0.20113   0.00000  Uiso   1.00
H592   H     0.69228   0.88679   0.29964   0.00000  Uiso   1.00
H593   H     0.94146   0.88683   0.29954   0.00000  Uiso   1.00
H594   H     0.80962   0.85762   0.09053   0.00000  Uiso   1.00
H595   H     0.72715   0.87424   0.41316   0.00000  Uiso   1.00
H596   H     0.77209   0.88787   0.04824   0.00000  Uiso   1.00
H597   H     0.89909   0.95995   0.26838   0.00000  Uiso   1.00
N598   N     0.71426   0.83334   0.25002   0.00000  Uiso   1.00
N599   N     0.95239   0.83331   0.25000   0.00000  Uiso   1.00
O600   O     0.79512   0.89442   0.25001   0.00000  Uiso   1.00
O601   O     0.87157   0.89441   0.25001   0.00000  Uiso   1.00
O602   O     0.77613   0.83333   0.32681   0.00000  Uiso   1.00
O603   O     0.85258   0.83332   0.32681   0.00000  Uiso   1.00
O604   O     0.79510   0.77226   0.25000   0.00000  Uiso   1.00
O605   O     0.87154   0.77225   0.24999   0.00000  Uiso   1.00
O606   O     0.81409   0.83335   0.17319   0.00000  Uiso   1.00
O607   O     0.89053   0.83334   0.17319   0.00000  Uiso   1.00
Zn608  Zn    0.78229   0.83334   0.25000   0.00000  Uiso   1.00
Zn609  Zn    0.88438   0.83333   0.25000   0.00000  Uiso   1.00
C610   C     0.96672   0.82279   0.07237   0.00000  Uiso   1.00
H611   H     0.99349   0.79796   0.06241   0.00000  Uiso   1.00
O612   O     0.97268   0.85263   0.09749   0.00000  Uiso   1.00
N613   N     0.91117   0.70580   0.27041   0.00000  Uiso   1.00
H614   H     0.91178   0.69555   0.30794   0.00000  Uiso   1.00
H615   H     0.94328   0.69539   0.24069   0.00000  Uiso   1.00
N616   N     0.97052   0.77103   0.19491   0.00000  Uiso   1.00
H617   H     0.99926   0.75041   0.17664   0.00000  Uiso   1.00
H618   H     0.96187   0.78464   0.16357   0.00000  Uiso   1.00
N619   N     0.92399   0.75016   0.41922   0.00000  Uiso   1.00
H620   H     0.94092   0.75380   0.37727   0.00000  Uiso   1.00
H621   H     0.90595   0.72194   0.42684   0.00000  Uiso   1.00
C622   C     0.98121   0.79792   0.46185   0.00000  Uiso   1.00
H623   H     0.67402   0.78205   0.47557   0.00000  Uiso   1.00
O624   O     0.99385   0.80862   0.41433   0.00000  Uiso   1.00
C625   C     0.70368   0.91185   0.00920   0.00000  Uiso   1.00
H626   H     0.67886   0.91915   0.48819   0.00000  Uiso   1.00
O627   O     0.69869   0.92980   0.05163   0.00000  Uiso   1.00
N628   N     0.84444   0.75954   0.38255   0.00000  Uiso   1.00
H629   H     0.87584   0.75926   0.34816   0.00000  Uiso   1.00
H630   H     0.83947   0.73001   0.39992   0.00000  Uiso   1.00
C631   C     0.16631   0.24662   0.75035   0.00000  Uiso   1.00
C632   C     0.14684   0.17449   0.98930   0.00000  Uiso   1.00
C633   C     0.15050   0.15475   0.94041   0.00000  Uiso   1.00
C634   C     0.18281   0.16563   0.51202   0.00000  Uiso   1.00
C635   C     0.22453   0.14172   0.98273   0.00000  Uiso   1.00
C636   C     0.22273   0.11661   0.93976   0.00000  Uiso   1.00
C637   C     0.18414   0.12177   0.92066   0.00000  Uiso   1.00
C638   C     0.17689   0.17777   0.56456   0.00000  Uiso   1.00
C639   C     0.25820   0.15471   0.55375   0.00000  Uiso   1.00
C640   C     0.12148   0.16933   0.91140   0.00000  Uiso   1.00
C641   C     0.20360   0.31051   0.76093   0.00000  Uiso   1.00
C642   C     0.13958   0.16609   0.85230   0.00000  Uiso   1.00
C643   C     0.20496   0.01965   0.76087   0.00000  Uiso   1.00
C644   C     0.16738   0.04219   0.75146   0.00000  Uiso   1.00
C645   C     0.12920   0.02179   0.74267   0.00000  Uiso   1.00
C646   C     0.12842   0.31267   0.74268   0.00000  Uiso   1.00
C647   C     0.16583   0.29058   0.75145   0.00000  Uiso   1.00
C648   C     0.31854   0.13657   0.72268   0.00000  Uiso   1.00
C649   C     0.03328   0.13686   0.72275   0.00000  Uiso   1.00
C650   C     0.01481   0.19637   0.77754   0.00000  Uiso   1.00
C651   C     0.30024   0.19640   0.77748   0.00000  Uiso   1.00
C652   C     0.16690   0.08653   0.75050   0.00000  Uiso   1.00
C653   C     0.19388   0.16786   0.64740   0.00000  Uiso   1.00
C654   C     0.26492   0.14137   0.50032   0.00000  Uiso   1.00
C655   C     0.21143   0.16808   0.58759   0.00000  Uiso   1.00
C656   C     0.08275   0.19669   0.93573   0.00000  Uiso   1.00
C657   C     0.07601   0.21393   0.98629   0.00000  Uiso   1.00
C658   C     0.10894   0.20400   0.51203   0.00000  Uiso   1.00
H659   H     0.10011   0.03852   0.73520   0.00000  Uiso   1.00
H660   H     0.09900   0.29727   0.73524   0.00000  Uiso   1.00
H661   H     0.05913   0.11320   0.70113   0.00000  Uiso   1.00
H662   H     0.02561   0.22012   0.79964   0.00000  Uiso   1.00
H663   H     0.27480   0.22016   0.79954   0.00000  Uiso   1.00
H664   H     0.14295   0.19095   0.59053   0.00000  Uiso   1.00
H665   H     0.06049   0.20758   0.91316   0.00000  Uiso   1.00
H666   H     0.10542   0.22121   0.54824   0.00000  Uiso   1.00
H667   H     0.23242   0.29329   0.76838   0.00000  Uiso   1.00
N668   N     0.04760   0.16668   0.75002   0.00000  Uiso   1.00
N669   N     0.28573   0.16665   0.75000   0.00000  Uiso   1.00
O670   O     0.12846   0.22775   0.75001   0.00000  Uiso   1.00
O671   O     0.20490   0.22774   0.75001   0.00000  Uiso   1.00
O672   O     0.10947   0.16666   0.82681   0.00000  Uiso   1.00
O673   O     0.18591   0.16665   0.82681   0.00000  Uiso   1.00
O674   O     0.12843   0.10559   0.75000   0.00000  Uiso   1.00
O675   O     0.20488   0.10558   0.74999   0.00000  Uiso   1.00
O676   O     0.14742   0.16668   0.67319   0.00000  Uiso   1.00
O677   O     0.22387   0.16667   0.67319   0.00000  Uiso   1.00
Zn678  Zn    0.11562   0.16667   0.75000   0.00000  Uiso   1.00
Zn679  Zn    0.21771   0.16666   0.75000   0.00000  Uiso   1.00
C680   C     0.30005   0.15613   0.57237   0.00000  Uiso   1.00
H681   H     0.32682   0.13130   0.56241   0.00000  Uiso   1.00
O682   O     0.30601   0.18597   0.59749   0.00000  Uiso   1.00
N683   N     0.24450   0.03913   0.77041   0.00000  Uiso   1.00
H684   H     0.24511   0.02889   0.80794   0.00000  Uiso   1.00
H685   H     0.27661   0.02873   0.74069   0.00000  Uiso   1.00
N686   N     0.30385   0.10436   0.69491   0.00000  Uiso   1.00
H687   H     0.33259   0.08374   0.67664   0.00000  Uiso   1.00
H688   H     0.29520   0.11798   0.66357   0.00000  Uiso   1.00
N689   N     0.25732   0.08349   0.91922   0.00000  Uiso   1.00
H690   H     0.27425   0.08713   0.87727   0.00000  Uiso   1.00
H691   H     0.23928   0.05527   0.92684   0.00000  Uiso   1.00
C692   C     0.31454   0.13125   0.96185   0.00000  Uiso   1.00
H693   H     0.00735   0.11539   0.97557   0.00000  Uiso   1.00
O694   O     0.32719   0.14196   0.91433   0.00000  Uiso   1.00
C695   C     0.03701   0.24519   0.50920   0.00000  Uiso   1.00
H696   H     0.01220   0.25249   0.98819   0.00000  Uiso   1.00
O697   O     0.03202   0.26313   0.55163   0.00000  Uiso   1.00
N698   N     0.17777   0.09287   0.88255   0.00000  Uiso   1.00
H699   H     0.20918   0.09259   0.84816   0.00000  Uiso   1.00
H700   H     0.17280   0.06334   0.89992   0.00000  Uiso   1.00
C701   C     0.49964   0.24662   0.75035   0.00000  Uiso   1.00
C702   C     0.48017   0.17449   0.98930   0.00000  Uiso   1.00
C703   C     0.48383   0.15475   0.94041   0.00000  Uiso   1.00
C704   C     0.51614   0.16563   0.51202   0.00000  Uiso   1.00
C705   C     0.55786   0.14172   0.98273   0.00000  Uiso   1.00
C706   C     0.55606   0.11661   0.93976   0.00000  Uiso   1.00
C707   C     0.51747   0.12177   0.92066   0.00000  Uiso   1.00
C708   C     0.51023   0.17777   0.56456   0.00000  Uiso   1.00
C709   C     0.59153   0.15471   0.55375   0.00000  Uiso   1.00
C710   C     0.45481   0.16933   0.91140   0.00000  Uiso   1.00
C711   C     0.53693   0.31051   0.76093   0.00000  Uiso   1.00
C712   C     0.47291   0.16609   0.85230   0.00000  Uiso   1.00
C713   C     0.53829   0.01965   0.76087   0.00000  Uiso   1.00
C714   C     0.50071   0.04219   0.75146   0.00000  Uiso   1.00
C715   C     0.46253   0.02179   0.74267   0.00000  Uiso   1.00
C716   C     0.46175   0.31267   0.74268   0.00000  Uiso   1.00
C717   C     0.49917   0.29058   0.75145   0.00000  Uiso   1.00
C718   C     0.65187   0.13657   0.72268   0.00000  Uiso   1.00
C719   C     0.36661   0.13686   0.72275   0.00000  Uiso   1.00
C720   C     0.34814   0.19637   0.77754   0.00000  Uiso   1.00
C721   C     0.63357   0.19640   0.77748   0.00000  Uiso   1.00
C722   C     0.50024   0.08653   0.75050   0.00000  Uiso   1.00
C723   C     0.52721   0.16786   0.64740   0.00000  Uiso   1.00
C724   C     0.59826   0.14137   0.50032   0.00000  Uiso   1.00
C725   C     0.54477   0.16808   0.58759   0.00000  Uiso   1.00
C726   C     0.41609   0.19669   0.93573   0.00000  Uiso   1.00
C727   C     0.40934   0.21393   0.98629   0.00000  Uiso   1.00
C728   C     0.44227   0.20400   0.51203   0.00000  Uiso   1.00
H729   H     0.43344   0.03852   0.73520   0.00000  Uiso   1.00
H730   H     0.43234   0.29727   0.73524   0.00000  Uiso   1.00
H731   H     0.39246   0.11320   0.70113   0.00000  Uiso   1.00
H732   H     0.35895   0.22012   0.79964   0.00000  Uiso   1.00
H733   H     0.60813   0.22016   0.79954   0.00000  Uiso   1.00
H734   H     0.47628   0.19095   0.59053   0.00000  Uiso   1.00
H735   H     0.39382   0.20758   0.91316   0.00000  Uiso   1.00
H736   H     0.43876   0.22121   0.54824   0.00000  Uiso   1.00
H737   H     0.56576   0.29329   0.76838   0.00000  Uiso   1.00
N738   N     0.38093   0.16668   0.75002   0.00000  Uiso   1.00
N739   N     0.61906   0.16665   0.75000   0.00000  Uiso   1.00
O740   O     0.46179   0.22775   0.75001   0.00000  Uiso   1.00
O741   O     0.53823   0.22774   0.75001   0.00000  Uiso   1.00
O742   O     0.44280   0.16666   0.82681   0.00000  Uiso   1.00
O743   O     0.51924   0.16665   0.82681   0.00000  Uiso   1.00
O744   O     0.46177   0.10559   0.75000   0.00000  Uiso   1.00
O745   O     0.53821   0.10558   0.74999   0.00000  Uiso   1.00
O746   O     0.48076   0.16668   0.67319   0.00000  Uiso   1.00
O747   O     0.55720   0.16667   0.67319   0.00000  Uiso   1.00
Zn748  Zn    0.44896   0.16667   0.75000   0.00000  Uiso   1.00
Zn749  Zn    0.55104   0.16666   0.75000   0.00000  Uiso   1.00
C750   C     0.63339   0.15613   0.57237   0.00000  Uiso   1.00
H751   H     0.66015   0.13130   0.56241   0.00000  Uiso   1.00
O752   O     0.63934   0.18597   0.59749   0.00000  Uiso   1.00
N753   N     0.57783   0.03913   0.77041   0.00000  Uiso   1.00
H754   H     0.57845   0.02889   0.80794   0.00000  Uiso   1.00
H755   H     0.60995   0.02873   0.74069   0.00000  Uiso   1.00
N756   N     0.63719   0.10436   0.69491   0.00000  Uiso   1.00
H757   H     0.66592   0.08374   0.67664   0.00000  Uiso   1.00
H758   H     0.62854   0.11798   0.66357   0.00000  Uiso   1.00
N759   N     0.59066   0.08349   0.91922   0.00000  Uiso   1.00
H760   H     0.60758   0.08713   0.87727   0.00000  Uiso   1.00
H761   H     0.57262   0.05527   0.92684   0.00000  Uiso   1.00
C762   C     0.64787   0.13125   0.96185   0.00000  Uiso   1.00
H763   H     0.34069   0.11539   0.97557   0.00000  Uiso   1.00
O764   O     0.66052   0.14196   0.91433   0.00000  Uiso   1.00
C765   C     0.37034   0.24519   0.50920   0.00000  Uiso   1.00
H766   H     0.34553   0.25249   0.98819   0.00000  Uiso   1.00
O767   O     0.36535   0.26313   0.55163   0.00000  Uiso   1.00
N768   N     0.51110   0.09287   0.88255   0.00000  Uiso   1.00
H769   H     0.54251   0.09259   0.84816   0.00000  Uiso   1.00
H770   H     0.50614   0.06334   0.89992   0.00000  Uiso   1.00
C771   C     0.83298   0.24662   0.75035   0.00000  Uiso   1.00
C772   C     0.81351   0.17449   0.98930   0.00000  Uiso   1.00
C773   C     0.81716   0.15475   0.94041   0.00000  Uiso   1.00
C774   C     0.84948   0.16563   0.51202   0.00000  Uiso   1.00
C775   C     0.89119   0.14172   0.98273   0.00000  Uiso   1.00
C776   C     0.88939   0.11661   0.93976   0.00000  Uiso   1.00
C777   C     0.85080   0.12177   0.92066   0.00000  Uiso   1.00
C778   C     0.84356   0.17777   0.56456   0.00000  Uiso   1.00
C779   C     0.92487   0.15471   0.55375   0.00000  Uiso   1.00
C780   C     0.78814   0.16933   0.91140   0.00000  Uiso   1.00
C781   C     0.87026   0.31051   0.76093   0.00000  Uiso   1.00
C782   C     0.80624   0.16609   0.85230   0.00000  Uiso   1.00
C783   C     0.87163   0.01965   0.76087   0.00000  Uiso   1.00
C784   C     0.83404   0.04219   0.75146   0.00000  Uiso   1.00
C785   C     0.79587   0.02179   0.74267   0.00000  Uiso   1.00
C786   C     0.79509   0.31267   0.74268   0.00000  Uiso   1.00
C787   C     0.83250   0.29058   0.75145   0.00000  Uiso   1.00
C788   C     0.98521   0.13657   0.72268   0.00000  Uiso   1.00
C789   C     0.69994   0.13686   0.72275   0.00000  Uiso   1.00
C790   C     0.68148   0.19637   0.77754   0.00000  Uiso   1.00
C791   C     0.96690   0.19640   0.77748   0.00000  Uiso   1.00
C792   C     0.83357   0.08653   0.75050   0.00000  Uiso   1.00
C793   C     0.86054   0.16786   0.64740   0.00000  Uiso   1.00
C794   C     0.93159   0.14137   0.50032   0.00000  Uiso   1.00
C795   C     0.87810   0.16808   0.58759   0.00000  Uiso   1.00
C796   C     0.74942   0.19669   0.93573   0.00000  Uiso   1.00
C797   C     0.74268   0.21393   0.98629   0.00000  Uiso   1.00
C798   C     0.77561   0.20400   0.51203   0.00000  Uiso   1.00
H799   H     0.76677   0.03852   0.73520   0.00000  Uiso   1.00
H800   H     0.76567   0.29727   0.73524   0.00000  Uiso   1.00
H801   H     0.72580   0.11320   0.70113   0.00000  Uiso   1.00
H802   H     0.69228   0.22012   0.79964   0.00000  Uiso   1.00
H803   H     0.94146   0.22016   0.79954   0.00000  Uiso   1.00
H804   H     0.80962   0.19095   0.59053   0.00000  Uiso   1.00
H805   H     0.72715   0.20758   0.91316   0.00000  Uiso   1.00
H806   H     0.77209   0.22121   0.54824   0.00000  Uiso   1.00
H807   H     0.89909   0.29329   0.76838   0.00000  Uiso   1.00
N808   N     0.71426   0.16668   0.75002   0.00000  Uiso   1.00
N809   N     0.95239   0.16665   0.75000   0.00000  Uiso   1.00
O810   O     0.79512   0.22775   0.75001   0.00000  Uiso   1.00
O811   O     0.87157   0.22774   0.75001   0.00000  Uiso   1.00
O812   O     0.77613   0.16666   0.82681   0.00000  Uiso   1.00
O813   O     0.85258   0.16665   0.82681   0.00000  Uiso   1.00
O814   O     0.79510   0.10559   0.75000   0.00000  Uiso   1.00
O815   O     0.87154   0.10558   0.74999   0.00000  Uiso   1.00
O816   O     0.81409   0.16668   0.67319   0.00000  Uiso   1.00
O817   O     0.89053   0.16667   0.67319   0.00000  Uiso   1.00
Zn818  Zn    0.78229   0.16667   0.75000   0.00000  Uiso   1.00
Zn819  Zn    0.88438   0.16666   0.75000   0.00000  Uiso   1.00
C820   C     0.96672   0.15613   0.57237   0.00000  Uiso   1.00
H821   H     0.99349   0.13130   0.56241   0.00000  Uiso   1.00
O822   O     0.97268   0.18597   0.59749   0.00000  Uiso   1.00
N823   N     0.91117   0.03913   0.77041   0.00000  Uiso   1.00
H824   H     0.91178   0.02889   0.80794   0.00000  Uiso   1.00
H825   H     0.94328   0.02873   0.74069   0.00000  Uiso   1.00
N826   N     0.97052   0.10436   0.69491   0.00000  Uiso   1.00
H827   H     0.99926   0.08374   0.67664   0.00000  Uiso   1.00
H828   H     0.96187   0.11798   0.66357   0.00000  Uiso   1.00
N829   N     0.92399   0.08349   0.91922   0.00000  Uiso   1.00
H830   H     0.94092   0.08713   0.87727   0.00000  Uiso   1.00
H831   H     0.90595   0.05527   0.92684   0.00000  Uiso   1.00
C832   C     0.98121   0.13125   0.96185   0.00000  Uiso   1.00
H833   H     0.67402   0.11539   0.97557   0.00000  Uiso   1.00
O834   O     0.99385   0.14196   0.91433   0.00000  Uiso   1.00
C835   C     0.70368   0.24519   0.50920   0.00000  Uiso   1.00
H836   H     0.67886   0.25249   0.98819   0.00000  Uiso   1.00
O837   O     0.69869   0.26313   0.55163   0.00000  Uiso   1.00
N838   N     0.84444   0.09287   0.88255   0.00000  Uiso   1.00
H839   H     0.87584   0.09259   0.84816   0.00000  Uiso   1.00
H840   H     0.83947   0.06334   0.89992   0.00000  Uiso   1.00
C841   C     0.16631   0.57995   0.75035   0.00000  Uiso   1.00
C842   C     0.14684   0.50783   0.98930   0.00000  Uiso   1.00
C843   C     0.15050   0.48809   0.94041   0.00000  Uiso   1.00
C844   C     0.18281   0.49896   0.51202   0.00000  Uiso   1.00
C845   C     0.22453   0.47506   0.98273   0.00000  Uiso   1.00
C846   C     0.22273   0.44994   0.93976   0.00000  Uiso   1.00
C847   C     0.18414   0.45510   0.92066   0.00000  Uiso   1.00
C848   C     0.17689   0.51110   0.56456   0.00000  Uiso   1.00
C849   C     0.25820   0.48804   0.55375   0.00000  Uiso   1.00
C850   C     0.12148   0.50266   0.91140   0.00000  Uiso   1.00
C851   C     0.20360   0.64384   0.76093   0.00000  Uiso   1.00
C852   C     0.13958   0.49942   0.85230   0.00000  Uiso   1.00
C853   C     0.20496   0.35298   0.76087   0.00000  Uiso   1.00
C854   C     0.16738   0.37552   0.75146   0.00000  Uiso   1.00
C855   C     0.12920   0.35513   0.74267   0.00000  Uiso   1.00
C856   C     0.12842   0.64600   0.74268   0.00000  Uiso   1.00
C857   C     0.16583   0.62391   0.75145   0.00000  Uiso   1.00
C858   C     0.31854   0.46990   0.72268   0.00000  Uiso   1.00
C859   C     0.03328   0.47019   0.72275   0.00000  Uiso   1.00
C860   C     0.01481   0.52971   0.77754   0.00000  Uiso   1.00
C861   C     0.30024   0.52973   0.77748   0.00000  Uiso   1.00
C862   C     0.16690   0.41987   0.75050   0.00000  Uiso   1.00
C863   C     0.19388   0.50119   0.64740   0.00000  Uiso   1.00
C864   C     0.26492   0.47470   0.50032   0.00000  Uiso   1.00
C865   C     0.21143   0.50142   0.58759   0.00000  Uiso   1.00
C866   C     0.08275   0.53003   0.93573   0.00000  Uiso   1.00
C867   C     0.07601   0.54726   0.98629   0.00000  Uiso   1.00
C868   C     0.10894   0.53734   0.51203   0.00000  Uiso   1.00
H869   H     0.10011   0.37186   0.73520   0.00000  Uiso   1.00
H870   H     0.09900   0.63061   0.73524   0.00000  Uiso   1.00
H871   H     0.05913   0.44653   0.70113   0.00000  Uiso   1.00
H872   H     0.02561   0.55345   0.79964   0.00000  Uiso   1.00
H873   H     0.27480   0.55350   0.79954   0.00000  Uiso   1.00
H874   H     0.14295   0.52429   0.59053   0.00000  Uiso   1.00
H875   H     0.06049   0.54091   0.91316   0.00000  Uiso   1.00
H876   H     0.10542   0.55454   0.54824   0.00000  Uiso   1.00
H877   H     0.23242   0.62662   0.76838   0.00000  Uiso   1.00
N878   N     0.04760   0.50001   0.75002   0.00000  Uiso   1.00
N879   N     0.28573   0.49998   0.75000   0.00000  Uiso   1.00
O880   O     0.12846   0.56108   0.75001   0.00000  Uiso   1.00
O881   O     0.20490   0.56107   0.75001   0.00000  Uiso   1.00
O882   O     0.10947   0.50000   0.82681   0.00000  Uiso   1.00
O883   O     0.18591   0.49999   0.82681   0.00000  Uiso   1.00
O884   O     0.12843   0.43893   0.75000   0.00000  Uiso   1.00
O885   O     0.20488   0.43892   0.74999   0.00000  Uiso   1.00
O886   O     0.14742   0.50001   0.67319   0.00000  Uiso   1.00
O887   O     0.22387   0.50000   0.67319   0.00000  Uiso   1.00
Zn888  Zn    0.11562   0.50001   0.75000   0.00000  Uiso   1.00
Zn889  Zn    0.21771   0.49999   0.75000   0.00000  Uiso   1.00
C890   C     0.30005   0.48946   0.57237   0.00000  Uiso   1.00
H891   H     0.32682   0.46463   0.56241   0.00000  Uiso   1.00
O892   O     0.30601   0.51930   0.59749   0.00000  Uiso   1.00
N893   N     0.24450   0.37247   0.77041   0.00000  Uiso   1.00
H894   H     0.24511   0.36222   0.80794   0.00000  Uiso   1.00
H895   H     0.27661   0.36206   0.74069   0.00000  Uiso   1.00
N896   N     0.30385   0.43769   0.69491   0.00000  Uiso   1.00
H897   H     0.33259   0.41707   0.67664   0.00000  Uiso   1.00
H898   H     0.29520   0.45131   0.66357   0.00000  Uiso   1.00
N899   N     0.25732   0.41683   0.91922   0.00000  Uiso   1.00
H900   H     0.27425   0.42046   0.87727   0.00000  Uiso   1.00
H901   H     0.23928   0.38860   0.92684   0.00000  Uiso   1.00
C902   C     0.31454   0.46459   0.96185   0.00000  Uiso   1.00
H903   H     0.00735   0.44872   0.97557   0.00000  Uiso   1.00
O904   O     0.32719   0.47529   0.91433   0.00000  Uiso   1.00
C905   C     0.03701   0.57852   0.50920   0.00000  Uiso   1.00
H906   H     0.01220   0.58582   0.98819   0.00000  Uiso   1.00
O907   O     0.03202   0.59646   0.55163   0.00000  Uiso   1.00
N908   N     0.17777   0.42620   0.88255   0.00000  Uiso   1.00
H909   H     0.20918   0.42592   0.84816   0.00000  Uiso   1.00
H910   H     0.17280   0.39668   0.89992   0.00000  Uiso   1.00
C911   C     0.49964   0.57995   0.75035   0.00000  Uiso   1.00
C912   C     0.48017   0.50783   0.98930   0.00000  Uiso   1.00
C913   C     0.48383   0.48809   0.94041   0.00000  Uiso   1.00
C914   C     0.51614   0.49896   0.51202   0.00000  Uiso   1.00
C915   C     0.55786   0.47506   0.98273   0.00000  Uiso   1.00
C916   C     0.55606   0.44994   0.93976   0.00000  Uiso   1.00
C917   C     0.51747   0.45510   0.92066   0.00000  Uiso   1.00
C918   C     0.51023   0.51110   0.56456   0.00000  Uiso   1.00
C919   C     0.59153   0.48804   0.55375   0.00000  Uiso   1.00
C920   C     0.45481   0.50266   0.91140   0.00000  Uiso   1.00
C921   C     0.53693   0.64384   0.76093   0.00000  Uiso   1.00
C922   C     0.47291   0.49942   0.85230   0.00000  Uiso   1.00
C923   C     0.53829   0.35298   0.76087   0.00000  Uiso   1.00
C924   C     0.50071   0.37552   0.75146   0.00000  Uiso   1.00
C925   C     0.46253   0.35513   0.74267   0.00000  Uiso   1.00
C926   C     0.46175   0.64600   0.74268   0.00000  Uiso   1.00
C927   C     0.49917   0.62391   0.75145   0.00000  Uiso   1.00
C928   C     0.65187   0.46990   0.72268   0.00000  Uiso   1.00
C929   C     0.36661   0.47019   0.72275   0.00000  Uiso   1.00
C930   C     0.34814   0.52971   0.77754   0.00000  Uiso   1.00
C931   C     0.63357   0.52973   0.77748   0.00000  Uiso   1.00
C932   C     0.50024   0.41987   0.75050   0.00000  Uiso   1.00
C933   C     0.52721   0.50119   0.64740   0.00000  Uiso   1.00
C934   C     0.59826   0.47470   0.50032   0.00000  Uiso   1.00
C935   C     0.54477   0.50142   0.58759   0.00000  Uiso   1.00
C936   C     0.41609   0.53003   0.93573   0.00000  Uiso   1.00
C937   C     0.40934   0.54726   0.98629   0.00000  Uiso   1.00
C938   C     0.44227   0.53734   0.51203   0.00000  Uiso   1.00
H939   H     0.43344   0.37186   0.73520   0.00000  Uiso   1.00
H940   H     0.43234   0.63061   0.73524   0.00000  Uiso   1.00
H941   H     0.39246   0.44653   0.70113   0.00000  Uiso   1.00
H942   H     0.35895   0.55345   0.79964   0.00000  Uiso   1.00
H943   H     0.60813   0.55350   0.79954   0.00000  Uiso   1.00
H944   H     0.47628   0.52429   0.59053   0.00000  Uiso   1.00
H945   H     0.39382   0.54091   0.91316   0.00000  Uiso   1.00
H946   H     0.43876   0.55454   0.54824   0.00000  Uiso   1.00
H947   H     0.56576   0.62662   0.76838   0.00000  Uiso   1.00
N948   N     0.38093   0.50001   0.75002   0.00000  Uiso   1.00
N949   N     0.61906   0.49998   0.75000   0.00000  Uiso   1.00
O950   O     0.46179   0.56108   0.75001   0.00000  Uiso   1.00
O951   O     0.53823   0.56107   0.75001   0.00000  Uiso   1.00
O952   O     0.44280   0.50000   0.82681   0.00000  Uiso   1.00
O953   O     0.51924   0.49999   0.82681   0.00000  Uiso   1.00
O954   O     0.46177   0.43893   0.75000   0.00000  Uiso   1.00
O955   O     0.53821   0.43892   0.74999   0.00000  Uiso   1.00
O956   O     0.48076   0.50001   0.67319   0.00000  Uiso   1.00
O957   O     0.55720   0.50000   0.67319   0.00000  Uiso   1.00
Zn958  Zn    0.44896   0.50001   0.75000   0.00000  Uiso   1.00
Zn959  Zn    0.55104   0.49999   0.75000   0.00000  Uiso   1.00
C960   C     0.63339   0.48946   0.57237   0.00000  Uiso   1.00
H961   H     0.66015   0.46463   0.56241   0.00000  Uiso   1.00
O962   O     0.63934   0.51930   0.59749   0.00000  Uiso   1.00
N963   N     0.57783   0.37247   0.77041   0.00000  Uiso   1.00
H964   H     0.57845   0.36222   0.80794   0.00000  Uiso   1.00
H965   H     0.60995   0.36206   0.74069   0.00000  Uiso   1.00
N966   N     0.63719   0.43769   0.69491   0.00000  Uiso   1.00
H967   H     0.66592   0.41707   0.67664   0.00000  Uiso   1.00
H968   H     0.62854   0.45131   0.66357   0.00000  Uiso   1.00
N969   N     0.59066   0.41683   0.91922   0.00000  Uiso   1.00
H970   H     0.60758   0.42046   0.87727   0.00000  Uiso   1.00
H971   H     0.57262   0.38860   0.92684   0.00000  Uiso   1.00
C972   C     0.64787   0.46459   0.96185   0.00000  Uiso   1.00
H973   H     0.34069   0.44872   0.97557   0.00000  Uiso   1.00
O974   O     0.66052   0.47529   0.91433   0.00000  Uiso   1.00
C975   C     0.37034   0.57852   0.50920   0.00000  Uiso   1.00
H976   H     0.34553   0.58582   0.98819   0.00000  Uiso   1.00
O977   O     0.36535   0.59646   0.55163   0.00000  Uiso   1.00
N978   N     0.51110   0.42620   0.88255   0.00000  Uiso   1.00
H979   H     0.54251   0.42592   0.84816   0.00000  Uiso   1.00
H980   H     0.50614   0.39668   0.89992   0.00000  Uiso   1.00
C981   C     0.83298   0.57995   0.75035   0.00000  Uiso   1.00
C982   C     0.81351   0.50783   0.98930   0.00000  Uiso   1.00
C983   C     0.81716   0.48809   0.94041   0.00000  Uiso   1.00
C984   C     0.84948   0.49896   0.51202   0.00000  Uiso   1.00
C985   C     0.89119   0.47506   0.98273   0.00000  Uiso   1.00
C986   C     0.88939   0.44994   0.93976   0.00000  Uiso   1.00
C987   C     0.85080   0.45510   0.92066   0.00000  Uiso   1.00
C988   C     0.84356   0.51110   0.56456   0.00000  Uiso   1.00
C989   C     0.92487   0.48804   0.55375   0.00000  Uiso   1.00
C990   C     0.78814   0.50266   0.91140   0.00000  Uiso   1.00
C991   C     0.87026   0.64384   0.76093   0.00000  Uiso   1.00
C992   C     0.80624   0.49942   0.85230   0.00000  Uiso   1.00
C993   C     0.87163   0.35298   0.76087   0.00000  Uiso   1.00
C994   C     0.83404   0.37552   0.75146   0.00000  Uiso   1.00
C995   C     0.79587   0.35513   0.74267   0.00000  Uiso   1.00
C996   C     0.79509   0.64600   0.74268   0.00000  Uiso   1.00
C997   C     0.83250   0.62391   0.75145   0.00000  Uiso   1.00
C998   C     0.98521   0.46990   0.72268   0.00000  Uiso   1.00
C999   C     0.69994   0.47019   0.72275   0.00000  Uiso   1.00
C1000  C     0.68148   0.52971   0.77754   0.00000  Uiso   1.00
C1001  C     0.96690   0.52973   0.77748   0.00000  Uiso   1.00
C1002  C     0.83357   0.41987   0.75050   0.00000  Uiso   1.00
C1003  C     0.86054   0.50119   0.64740   0.00000  Uiso   1.00
C1004  C     0.93159   0.47470   0.50032   0.00000  Uiso   1.00
C1005  C     0.87810   0.50142   0.58759   0.00000  Uiso   1.00
C1006  C     0.74942   0.53003   0.93573   0.00000  Uiso   1.00
C1007  C     0.74268   0.54726   0.98629   0.00000  Uiso   1.00
C1008  C     0.77561   0.53734   0.51203   0.00000  Uiso   1.00
H1009  H     0.76677   0.37186   0.73520   0.00000  Uiso   1.00
H1010  H     0.76567   0.63061   0.73524   0.00000  Uiso   1.00
H1011  H     0.72580   0.44653   0.70113   0.00000  Uiso   1.00
H1012  H     0.69228   0.55345   0.79964   0.00000  Uiso   1.00
H1013  H     0.94146   0.55350   0.79954   0.00000  Uiso   1.00
H1014  H     0.80962   0.52429   0.59053   0.00000  Uiso   1.00
H1015  H     0.72715   0.54091   0.91316   0.00000  Uiso   1.00
H1016  H     0.77209   0.55454   0.54824   0.00000  Uiso   1.00
H1017  H     0.89909   0.62662   0.76838   0.00000  Uiso   1.00
N1018  N     0.71426   0.50001   0.75002   0.00000  Uiso   1.00
N1019  N     0.95239   0.49998   0.75000   0.00000  Uiso   1.00
O1020  O     0.79512   0.56108   0.75001   0.00000  Uiso   1.00
O1021  O     0.87157   0.56107   0.75001   0.00000  Uiso   1.00
O1022  O     0.77613   0.50000   0.82681   0.00000  Uiso   1.00
O1023  O     0.85258   0.49999   0.82681   0.00000  Uiso   1.00
O1024  O     0.79510   0.43893   0.75000   0.00000  Uiso   1.00
O1025  O     0.87154   0.43892   0.74999   0.00000  Uiso   1.00
O1026  O     0.81409   0.50001   0.67319   0.00000  Uiso   1.00
O1027  O     0.89053   0.50000   0.67319   0.00000  Uiso   1.00
Zn1028 Zn    0.78229   0.50001   0.75000   0.00000  Uiso   1.00
Zn1029 Zn    0.88438   0.49999   0.75000   0.00000  Uiso   1.00
C1030  C     0.96672   0.48946   0.57237   0.00000  Uiso   1.00
H1031  H     0.99349   0.46463   0.56241   0.00000  Uiso   1.00
O1032  O     0.97268   0.51930   0.59749   0.00000  Uiso   1.00
N1033  N     0.91117   0.37247   0.77041   0.00000  Uiso   1.00
H1034  H     0.91178   0.36222   0.80794   0.00000  Uiso   1.00
H1035  H     0.94328   0.36206   0.74069   0.00000  Uiso   1.00
N1036  N     0.97052   0.43769   0.69491   0.00000  Uiso   1.00
H1037  H     0.99926   0.41707   0.67664   0.00000  Uiso   1.00
H1038  H     0.96187   0.45131   0.66357   0.00000  Uiso   1.00
N1039  N     0.92399   0.41683   0.91922   0.00000  Uiso   1.00
H1040  H     0.94092   0.42046   0.87727   0.00000  Uiso   1.00
H1041  H     0.90595   0.38860   0.92684   0.00000  Uiso   1.00
C1042  C     0.98121   0.46459   0.96185   0.00000  Uiso   1.00
H1043  H     0.67402   0.44872   0.97557   0.00000  Uiso   1.00
O1044  O     0.99385   0.47529   0.91433   0.00000  Uiso   1.00
C1045  C     0.70368   0.57852   0.50920   0.00000  Uiso   1.00
H1046  H     0.67886   0.58582   0.98819   0.00000  Uiso   1.00
O1047  O     0.69869   0.59646   0.55163   0.00000  Uiso   1.00
N1048  N     0.84444   0.42620   0.88255   0.00000  Uiso   1.00
H1049  H     0.87584   0.42592   0.84816   0.00000  Uiso   1.00
H1050  H     0.83947   0.39668   0.89992   0.00000  Uiso   1.00
C1051  C     0.16631   0.91329   0.75035   0.00000  Uiso   1.00
C1052  C     0.14684   0.84116   0.98930   0.00000  Uiso   1.00
C1053  C     0.15050   0.82142   0.94041   0.00000  Uiso   1.00
C1054  C     0.18281   0.83229   0.51202   0.00000  Uiso   1.00
C1055  C     0.22453   0.80839   0.98273   0.00000  Uiso   1.00
C1056  C     0.22273   0.78328   0.93976   0.00000  Uiso   1.00
C1057  C     0.18414   0.78843   0.92066   0.00000  Uiso   1.00
C1058  C     0.17689   0.84443   0.56456   0.00000  Uiso   1.00
C1059  C     0.25820   0.82137   0.55375   0.00000  Uiso   1.00
C1060  C     0.12148   0.83599   0.91140   0.00000  Uiso   1.00
C1061  C     0.20360   0.97718   0.76093   0.00000  Uiso   1.00
C1062  C     0.13958   0.83275   0.85230   0.00000  Uiso   1.00
C1063  C     0.20496   0.68631   0.76087   0.00000  Uiso   1.00
C1064  C     0.16738   0.70885   0.75146   0.00000  Uiso   1.00
C1065  C     0.12920   0.68846   0.74267   0.00000  Uiso   1.00
C1066  C     0.12842   0.97934   0.74268   0.00000  Uiso   1.00
C1067  C     0.16583   0.95724   0.75145   0.00000  Uiso   1.00
C1068  C     0.31854   0.80324   0.72268   0.00000  Uiso   1.00
C1069  C     0.03328   0.80353   0.72275   0.00000  Uiso   1.00
C1070  C     0.01481   0.86304   0.77754   0.00000  Uiso   1.00
C1071  C     0.30024   0.86306   0.77748   0.00000  Uiso   1.00
C1072  C     0.16690   0.75320   0.75050   0.00000  Uiso   1.00
C1073  C     0.19388   0.83452   0.64740   0.00000  Uiso   1.00
C1074  C     0.26492   0.80803   0.50032   0.00000  Uiso   1.00
C1075  C     0.21143   0.83475   0.58759   0.00000  Uiso   1.00
C1076  C     0.08275   0.86336   0.93573   0.00000  Uiso   1.00
C1077  C     0.07601   0.88059   0.98629   0.00000  Uiso   1.00
C1078  C     0.10894   0.87067   0.51203   0.00000  Uiso   1.00
H1079  H     0.10011   0.70519   0.73520   0.00000  Uiso   1.00
H1080  H     0.09900   0.96394   0.73524   0.00000  Uiso   1.00
H1081  H     0.05913   0.77987   0.70113   0.00000  Uiso   1.00
H1082  H     0.02561   0.88679   0.79964   0.00000  Uiso   1.00
H1083  H     0.27480   0.88683   0.79954   0.00000  Uiso   1.00
H1084  H     0.14295   0.85762   0.59053   0.00000  Uiso   1.00
H1085  H     0.06049   0.87424   0.91316   0.00000  Uiso   1.00
H1086  H     0.10542   0.88787   0.54824   0.00000  Uiso   1.00
H1087  H     0.23242   0.95995   0.76838   0.00000  Uiso   1.00
N1088  N     0.04760   0.83334   0.75002   0.00000  Uiso   1.00
N1089  N     0.28573   0.83331   0.75000   0.00000  Uiso   1.00
O1090  O     0.12846   0.89442   0.75001   0.00000  Uiso   1.00
O1091  O     0.20490   0.89441   0.75001   0.00000  Uiso   1.00
O1092  O     0.10947   0.83333   0.82681   0.00000  Uiso   1.00
O1093  O     0.18591   0.83332   0.82681   0.00000  Uiso   1.00
O1094  O     0.12843   0.77226   0.75000   0.00000  Uiso   1.00
O1095  O     0.20488   0.77225   0.74999   0.00000  Uiso   1.00
O1096  O     0.14742   0.83335   0.67319   0.00000  Uiso   1.00
O1097  O     0.22387   0.83334   0.67319   0.00000  Uiso   1.00
Zn1098 Zn    0.11562   0.83334   0.75000   0.00000  Uiso   1.00
Zn1099 Zn    0.21771   0.83333   0.75000   0.00000  Uiso   1.00
C1100  C     0.30005   0.82279   0.57237   0.00000  Uiso   1.00
H1101  H     0.32682   0.79796   0.56241   0.00000  Uiso   1.00
O1102  O     0.30601   0.85263   0.59749   0.00000  Uiso   1.00
N1103  N     0.24450   0.70580   0.77041   0.00000  Uiso   1.00
H1104  H     0.24511   0.69555   0.80794   0.00000  Uiso   1.00
H1105  H     0.27661   0.69539   0.74069   0.00000  Uiso   1.00
N1106  N     0.30385   0.77103   0.69491   0.00000  Uiso   1.00
H1107  H     0.33259   0.75041   0.67664   0.00000  Uiso   1.00
H1108  H     0.29520   0.78464   0.66357   0.00000  Uiso   1.00
N1109  N     0.25732   0.75016   0.91922   0.00000  Uiso   1.00
H1110  H     0.27425   0.75380   0.87727   0.00000  Uiso   1.00
H1111  H     0.23928   0.72194   0.92684   0.00000  Uiso   1.00
C1112  C     0.31454   0.79792   0.96185   0.00000  Uiso   1.00
H1113  H     0.00735   0.78205   0.97557   0.00000  Uiso   1.00
O1114  O     0.32719   0.80862   0.91433   0.00000  Uiso   1.00
C1115  C     0.03701   0.91185   0.50920   0.00000  Uiso   1.00
H1116  H     0.01220   0.91915   0.98819   0.00000  Uiso   1.00
O1117  O     0.03202   0.92980   0.55163   0.00000  Uiso   1.00
N1118  N     0.17777   0.75954   0.88255   0.00000  Uiso   1.00
H1119  H     0.20918   0.75926   0.84816   0.00000  Uiso   1.00
H1120  H     0.17280   0.73001   0.89992   0.00000  Uiso   1.00
C1121  C     0.49964   0.91329   0.75035   0.00000  Uiso   1.00
C1122  C     0.48017   0.84116   0.98930   0.00000  Uiso   1.00
C1123  C     0.48383   0.82142   0.94041   0.00000  Uiso   1.00
C1124  C     0.51614   0.83229   0.51202   0.00000  Uiso   1.00
C1125  C     0.55786   0.80839   0.98273   0.00000  Uiso   1.00
C1126  C     0.55606   0.78328   0.93976   0.00000  Uiso   1.00
C1127  C     0.51747   0.78843   0.92066   0.00000  Uiso   1.00
C1128  C     0.51023   0.84443   0.56456   0.00000  Uiso   1.00
C1129  C     0.59153   0.82137   0.55375   0.00000  Uiso   1.00
C1130  C     0.45481   0.83599   0.91140   0.00000  Uiso   1.00
C1131  C     0.53693   0.97718   0.76093   0.00000  Uiso   1.00
C1132  C     0.47291   0.83275   0.85230   0.00000  Uiso   1.00
C1133  C     0.53829   0.68631   0.76087   0.00000  Uiso   1.00
C1134  C     0.50071   0.70885   0.75146   0.00000  Uiso   1.00
C1135  C     0.46253   0.68846   0.74267   0.00000  Uiso   1.00
C1136  C     0.46175   0.97934   0.74268   0.00000  Uiso   1.00
C1137  C     0.49917   0.95724   0.75145   0.00000  Uiso   1.00
C1138  C     0.65187   0.80324   0.72268   0.00000  Uiso   1.00
C1139  C     0.36661   0.80353   0.72275   0.00000  Uiso   1.00
C1140  C     0.34814   0.86304   0.77754   0.00000  Uiso   1.00
C1141  C     0.63357   0.86306   0.77748   0.00000  Uiso   1.00
C1142  C     0.50024   0.75320   0.75050   0.00000  Uiso   1.00
C1143  C     0.52721   0.83452   0.64740   0.00000  Uiso   1.00
C1144  C     0.59826   0.80803   0.50032   0.00000  Uiso   1.00
C1145  C     0.54477   0.83475   0.58759   0.00000  Uiso   1.00
C1146  C     0.41609   0.86336   0.93573   0.00000  Uiso   1.00
C1147  C     0.40934   0.88059   0.98629   0.00000  Uiso   1.00
C1148  C     0.44227   0.87067   0.51203   0.00000  Uiso   1.00
H1149  H     0.43344   0.70519   0.73520   0.00000  Uiso   1.00
H1150  H     0.43234   0.96394   0.73524   0.00000  Uiso   1.00
H1151  H     0.39246   0.77987   0.70113   0.00000  Uiso   1.00
H1152  H     0.35895   0.88679   0.79964   0.00000  Uiso   1.00
H1153  H     0.60813   0.88683   0.79954   0.00000  Uiso   1.00
H1154  H     0.47628   0.85762   0.59053   0.00000  Uiso   1.00
H1155  H     0.39382   0.87424   0.91316   0.00000  Uiso   1.00
H1156  H     0.43876   0.88787   0.54824   0.00000  Uiso   1.00
H1157  H     0.56576   0.95995   0.76838   0.00000  Uiso   1.00
N1158  N     0.38093   0.83334   0.75002   0.00000  Uiso   1.00
N1159  N     0.61906   0.83331   0.75000   0.00000  Uiso   1.00
O1160  O     0.46179   0.89442   0.75001   0.00000  Uiso   1.00
O1161  O     0.53823   0.89441   0.75001   0.00000  Uiso   1.00
O1162  O     0.44280   0.83333   0.82681   0.00000  Uiso   1.00
O1163  O     0.51924   0.83332   0.82681   0.00000  Uiso   1.00
O1164  O     0.46177   0.77226   0.75000   0.00000  Uiso   1.00
O1165  O     0.53821   0.77225   0.74999   0.00000  Uiso   1.00
O1166  O     0.48076   0.83335   0.67319   0.00000  Uiso   1.00
O1167  O     0.55720   0.83334   0.67319   0.00000  Uiso   1.00
Zn1168 Zn    0.44896   0.83334   0.75000   0.00000  Uiso   1.00
Zn1169 Zn    0.55104   0.83333   0.75000   0.00000  Uiso   1.00
C1170  C     0.63339   0.82279   0.57237   0.00000  Uiso   1.00
H1171  H     0.66015   0.79796   0.56241   0.00000  Uiso   1.00
O1172  O     0.63934   0.85263   0.59749   0.00000  Uiso   1.00
N1173  N     0.57783   0.70580   0.77041   0.00000  Uiso   1.00
H1174  H     0.57845   0.69555   0.80794   0.00000  Uiso   1.00
H1175  H     0.60995   0.69539   0.74069   0.00000  Uiso   1.00
N1176  N     0.63719   0.77103   0.69491   0.00000  Uiso   1.00
H1177  H     0.66592   0.75041   0.67664   0.00000  Uiso   1.00
H1178  H     0.62854   0.78464   0.66357   0.00000  Uiso   1.00
N1179  N     0.59066   0.75016   0.91922   0.00000  Uiso   1.00
H1180  H     0.60758   0.75380   0.87727   0.00000  Uiso   1.00
H1181  H     0.57262   0.72194   0.92684   0.00000  Uiso   1.00
C1182  C     0.64787   0.79792   0.96185   0.00000  Uiso   1.00
H1183  H     0.34069   0.78205   0.97557   0.00000  Uiso   1.00
O1184  O     0.66052   0.80862   0.91433   0.00000  Uiso   1.00
C1185  C     0.37034   0.91185   0.50920   0.00000  Uiso   1.00
H1186  H     0.34553   0.91915   0.98819   0.00000  Uiso   1.00
O1187  O     0.36535   0.92980   0.55163   0.00000  Uiso   1.00
N1188  N     0.51110   0.75954   0.88255   0.00000  Uiso   1.00
H1189  H     0.54251   0.75926   0.84816   0.00000  Uiso   1.00
H1190  H     0.50614   0.73001   0.89992   0.00000  Uiso   1.00
C1191  C     0.83298   0.91329   0.75035   0.00000  Uiso   1.00
C1192  C     0.81351   0.84116   0.98930   0.00000  Uiso   1.00
C1193  C     0.81716   0.82142   0.94041   0.00000  Uiso   1.00
C1194  C     0.84948   0.83229   0.51202   0.00000  Uiso   1.00
C1195  C     0.89119   0.80839   0.98273   0.00000  Uiso   1.00
C1196  C     0.88939   0.78328   0.93976   0.00000  Uiso   1.00
C1197  C     0.85080   0.78843   0.92066   0.00000  Uiso   1.00
C1198  C     0.84356   0.84443   0.56456   0.00000  Uiso   1.00
C1199  C     0.92487   0.82137   0.55375   0.00000  Uiso   1.00
C1200  C     0.78814   0.83599   0.91140   0.00000  Uiso   1.00
C1201  C     0.87026   0.97718   0.76093   0.00000  Uiso   1.00
C1202  C     0.80624   0.83275   0.85230   0.00000  Uiso   1.00
C1203  C     0.87163   0.68631   0.76087   0.00000  Uiso   1.00
C1204  C     0.83404   0.70885   0.75146   0.00000  Uiso   1.00
C1205  C     0.79587   0.68846   0.74267   0.00000  Uiso   1.00
C1206  C     0.79509   0.97934   0.74268   0.00000  Uiso   1.00
C1207  C     0.83250   0.95724   0.75145   0.00000  Uiso   1.00
C1208  C     0.98521   0.80324   0.72268   0.00000  Uiso   1.00
C1209  C     0.69994   0.80353   0.72275   0.00000  Uiso   1.00
C1210  C     0.68148   0.86304   0.77754   0.00000  Uiso   1.00
C1211  C     0.96690   0.86306   0.77748   0.00000  Uiso   1.00
C1212  C     0.83357   0.75320   0.75050   0.00000  Uiso   1.00
C1213  C     0.86054   0.83452   0.64740   0.00000  Uiso   1.00
C1214  C     0.93159   0.80803   0.50032   0.00000  Uiso   1.00
C1215  C     0.87810   0.83475   0.58759   0.00000  Uiso   1.00
C1216  C     0.74942   0.86336   0.93573   0.00000  Uiso   1.00
C1217  C     0.74268   0.88059   0.98629   0.00000  Uiso   1.00
C1218  C     0.77561   0.87067   0.51203   0.00000  Uiso   1.00
H1219  H     0.76677   0.70519   0.73520   0.00000  Uiso   1.00
H1220  H     0.76567   0.96394   0.73524   0.00000  Uiso   1.00
H1221  H     0.72580   0.77987   0.70113   0.00000  Uiso   1.00
H1222  H     0.69228   0.88679   0.79964   0.00000  Uiso   1.00
H1223  H     0.94146   0.88683   0.79954   0.00000  Uiso   1.00
H1224  H     0.80962   0.85762   0.59053   0.00000  Uiso   1.00
H1225  H     0.72715   0.87424   0.91316   0.00000  Uiso   1.00
H1226  H     0.77209   0.88787   0.54824   0.00000  Uiso   1.00
H1227  H     0.89909   0.95995   0.76838   0.00000  Uiso   1.00
N1228  N     0.71426   0.83334   0.75002   0.00000  Uiso   1.00
N1229  N     0.95239   0.83331   0.75000   0.00000  Uiso   1.00
O1230  O     0.79512   0.89442   0.75001   0.00000  Uiso   1.00
O1231  O     0.87157   0.89441   0.75001   0.00000  Uiso   1.00
O1232  O     0.77613   0.83333   0.82681   0.00000  Uiso   1.00
O1233  O     0.85258   0.83332   0.82681   0.00000  Uiso   1.00
O1234  O     0.79510   0.77226   0.75000   0.00000  Uiso   1.00
O1235  O     0.87154   0.77225   0.74999   0.00000  Uiso   1.00
O1236  O     0.81409   0.83335   0.67319   0.00000  Uiso   1.00
O1237  O     0.89053   0.83334   0.67319   0.00000  Uiso   1.00
Zn1238 Zn    0.78229   0.83334   0.75000   0.00000  Uiso   1.00
Zn1239 Zn    0.88438   0.83333   0.75000   0.00000  Uiso   1.00
C1240  C     0.96672   0.82279   0.57237   0.00000  Uiso   1.00
H1241  H     0.99349   0.79796   0.56241   0.00000  Uiso   1.00
O1242  O     0.97268   0.85263   0.59749   0.00000  Uiso   1.00
N1243  N     0.91117   0.70580   0.77041   0.00000  Uiso   1.00
H1244  H     0.91178   0.69555   0.80794   0.00000  Uiso   1.00
H1245  H     0.94328   0.69539   0.74069   0.00000  Uiso   1.00
N1246  N     0.97052   0.77103   0.69491   0.00000  Uiso   1.00
H1247  H     0.99926   0.75041   0.67664   0.00000  Uiso   1.00
H1248  H     0.96187   0.78464   0.66357   0.00000  Uiso   1.00
N1249  N     0.92399   0.75016   0.91922   0.00000  Uiso   1.00
H1250  H     0.94092   0.75380   0.87727   0.00000  Uiso   1.00
H1251  H     0.90595   0.72194   0.92684   0.00000  Uiso   1.00
C1252  C     0.98121   0.79792   0.96185   0.00000  Uiso   1.00
H1253  H     0.67402   0.78205   0.97557   0.00000  Uiso   1.00
O1254  O     0.99385   0.80862   0.91433   0.00000  Uiso   1.00
C1255  C     0.70368   0.91185   0.50920   0.00000  Uiso   1.00
H1256  H     0.67886   0.91915   0.98819   0.00000  Uiso   1.00
O1257  O     0.69869   0.92980   0.55163   0.00000  Uiso   1.00
N1258  N     0.84444   0.75954   0.88255   0.00000  Uiso   1.00
H1259  H     0.87584   0.75926   0.84816   0.00000  Uiso   1.00
H1260  H     0.83947   0.73001   0.89992   0.00000  Uiso   1.00
loop_
_geom_bond_atom_site_label_1
_geom_bond_atom_site_label_2
_geom_bond_distance
_geom_bond_site_symmetry_2
_ccdc_geom_bond_type
C1     C17     1.419   .     S
C1     O41     1.282   .     A
C1     O40     1.284   .     A
C2     C3      1.407   .     A
C2     C634    1.417   .     S
C2     C658    1.422   .     S
C3     C10     1.409   .     A
C3     C7      1.415   .     A
C4     C8      1.388   .     A
C4     C632    1.417   1_554 S
C4     C635    1.420   1_554 S
C5     C6      1.411   .     A
C5     C634    1.420   .     S
C5     C654    1.424   .     S
C6     C7      1.407   .     A
C6     N59     1.437   .     S
C7     N68     1.435   .     S
C8     H34     1.077   .     S
C8     C25     1.390   .     A
C9     C24     1.417   .     A
C9     C25     1.416   .     A
C9     C50     1.484   .     S
C10    C26     1.399   .     A
C10    C12     1.459   .     S
C11    H37     1.084   .     S
C11    C17     1.393   .     A
C11    C223    1.372   .     S
C12    O43     1.294   .     A
C12    O42     1.289   .     A
C13    N53     1.433   .     S
C13    C14     1.412   .     A
C13    C431    1.372   1_545 S
C14    C22     1.432   .     S
C14    C15     1.402   .     A
C15    H29     1.084   .     S
C15    C436    1.371   1_545 S
C16    H30     1.084   .     S
C16    C17     1.393   .     A
C16    C225    1.371   .     S
C18    N39     1.373   .     A
C18    N56     1.431   .     S
C18    C89     1.421   .     S
C19    N38     1.361   .     A
C19    H31     1.082   .     S
C19    C158    1.421   1_455 S
C20    N38     1.366   .     A
C20    H32     1.082   .     S
C20    C161    1.416   1_455 S
C21    N39     1.366   .     A
C21    H33     1.082   .     S
C21    C90     1.416   .     S
C22    O45     1.283   .     A
C22    O44     1.289   .     A
C23    C25     1.472   .     S
C23    O47     1.293   .     A
C23    O46     1.299   .     A
C24    C635    1.424   1_554 S
C24    C692    1.490   1_554 S
C26    C27     1.391   .     A
C26    H35     1.085   .     S
C27    C658    1.401   .     S
C27    C695    1.480   .     S
C28    H36     1.077   .     S
C28    C632    1.422   1_554 S
C28    C657    1.401   1_554 S
N38    Zn48    2.009   .     S
N39    Zn49    2.009   .     S
O40    Zn48    2.013   .     S
O41    Zn49    2.003   .     S
O42    Zn48    1.964   .     S
O43    Zn49    1.904   .     S
O44    Zn48    2.003   .     S
O45    Zn49    2.013   .     S
O46    Zn48    1.904   .     S
O47    Zn49    1.964   .     S
C50    O52     1.220   .     D
C50    H51     1.083   .     S
N53    H54     1.046   .     S
N53    H55     1.046   .     S
N56    H57     1.046   .     S
N56    H58     1.040   .     S
N59    H60     1.045   .     S
N59    H61     1.045   .     S
C62    O64     1.221   .     D
C62    C654    1.490   .     S
C62    H133    1.083   .     S
H63    C202    1.083   1_455 S
C65    O67     1.221   .     D
C65    C657    1.480   1_554 S
C65    H696    1.086   1_554 S
H66    C695    1.086   .     S
N68    H70     1.045   .     S
N68    H69     1.042   .     S
C71    C87     1.419   .     S
C71    O111    1.282   .     A
C71    O110    1.284   .     A
C72    C73     1.407   .     A
C72    C704    1.417   .     S
C72    C728    1.422   .     S
C73    C80     1.409   .     A
C73    C77     1.415   .     A
C74    C78     1.388   .     A
C74    C702    1.417   1_554 S
C74    C705    1.420   1_554 S
C75    C76     1.411   .     A
C75    C704    1.420   .     S
C75    C724    1.424   .     S
C76    C77     1.407   .     A
C76    N129    1.437   .     S
C77    N138    1.435   .     S
C78    H104    1.077   .     S
C78    C95     1.390   .     A
C79    C94     1.417   .     A
C79    C95     1.416   .     A
C79    C120    1.484   .     S
C80    C96     1.399   .     A
C80    C82     1.459   .     S
C81    H107    1.084   .     S
C81    C87     1.393   .     A
C81    C293    1.372   .     S
C82    O113    1.294   .     A
C82    O112    1.289   .     A
C83    N123    1.433   .     S
C83    C84     1.412   .     A
C83    C501    1.372   1_545 S
C84    C92     1.432   .     S
C84    C85     1.402   .     A
C85    H99     1.084   .     S
C85    C506    1.371   1_545 S
C86    H100    1.084   .     S
C86    C87     1.393   .     A
C86    C295    1.371   .     S
C88    N109    1.373   .     A
C88    N126    1.431   .     S
C88    C159    1.421   .     S
C89    N108    1.361   .     A
C89    H101    1.082   .     S
C90    N108    1.366   .     A
C90    H102    1.082   .     S
C91    N109    1.366   .     A
C91    H103    1.082   .     S
C91    C160    1.416   .     S
C92    O115    1.283   .     A
C92    O114    1.289   .     A
C93    C95     1.472   .     S
C93    O117    1.293   .     A
C93    O116    1.299   .     A
C94    C705    1.424   1_554 S
C94    C762    1.490   1_554 S
C96    C97     1.391   .     A
C96    H105    1.085   .     S
C97    C728    1.401   .     S
C97    C765    1.480   .     S
C98    H106    1.077   .     S
C98    C702    1.422   1_554 S
C98    C727    1.401   1_554 S
N108   Zn118   2.009   .     S
N109   Zn119   2.009   .     S
O110   Zn118   2.013   .     S
O111   Zn119   2.003   .     S
O112   Zn118   1.964   .     S
O113   Zn119   1.904   .     S
O114   Zn118   2.003   .     S
O115   Zn119   2.013   .     S
O116   Zn118   1.904   .     S
O117   Zn119   1.964   .     S
C120   O122    1.220   .     D
C120   H121    1.083   .     S
N123   H124    1.046   .     S
N123   H125    1.046   .     S
N126   H127    1.046   .     S
N126   H128    1.040   .     S
N129   H130    1.045   .     S
N129   H131    1.045   .     S
C132   O134    1.221   .     D
C132   C724    1.490   .     S
C132   H203    1.083   .     S
C135   O137    1.221   .     D
C135   C727    1.480   1_554 S
C135   H766    1.086   1_554 S
H136   C765    1.086   .     S
N138   H140    1.045   .     S
N138   H139    1.042   .     S
C141   C157    1.419   .     S
C141   O181    1.282   .     A
C141   O180    1.284   .     A
C142   C143    1.407   .     A
C142   C774    1.417   .     S
C142   C798    1.422   .     S
C143   C150    1.409   .     A
C143   C147    1.415   .     A
C144   C148    1.388   .     A
C144   C772    1.417   1_554 S
C144   C775    1.420   1_554 S
C145   C146    1.411   .     A
C145   C774    1.420   .     S
C145   C794    1.424   .     S
C146   C147    1.407   .     A
C146   N199    1.437   .     S
C147   N208    1.435   .     S
C148   H174    1.077   .     S
C148   C165    1.390   .     A
C149   C164    1.417   .     A
C149   C165    1.416   .     A
C149   C190    1.484   .     S
C150   C166    1.399   .     A
C150   C152    1.459   .     S
C151   H177    1.084   .     S
C151   C157    1.393   .     A
C151   C363    1.372   .     S
C152   O183    1.294   .     A
C152   O182    1.289   .     A
C153   N193    1.433   .     S
C153   C154    1.412   .     A
C153   C571    1.372   1_545 S
C154   C162    1.432   .     S
C154   C155    1.402   .     A
C155   H169    1.084   .     S
C155   C576    1.371   1_545 S
C156   H170    1.084   .     S
C156   C157    1.393   .     A
C156   C365    1.371   .     S
C158   N179    1.373   .     A
C158   N196    1.431   .     S
C158   C19     1.421   1_655 S
C159   N178    1.361   .     A
C159   H171    1.082   .     S
C160   N178    1.366   .     A
C160   H172    1.082   .     S
C161   N179    1.366   .     A
C161   H173    1.082   .     S
C161   C20     1.416   1_655 S
C162   O185    1.283   .     A
C162   O184    1.289   .     A
C163   C165    1.472   .     S
C163   O187    1.293   .     A
C163   O186    1.299   .     A
C164   C775    1.424   1_554 S
C164   C832    1.490   1_554 S
C166   C167    1.391   .     A
C166   H175    1.085   .     S
C167   C798    1.401   .     S
C167   C835    1.480   .     S
C168   H176    1.077   .     S
C168   C772    1.422   1_554 S
C168   C797    1.401   1_554 S
N178   Zn188   2.009   .     S
N179   Zn189   2.009   .     S
O180   Zn188   2.013   .     S
O181   Zn189   2.003   .     S
O182   Zn188   1.964   .     S
O183   Zn189   1.904   .     S
O184   Zn188   2.003   .     S
O185   Zn189   2.013   .     S
O186   Zn188   1.904   .     S
O187   Zn189   1.964   .     S
C190   O192    1.220   .     D
C190   H191    1.083   .     S
N193   H194    1.046   .     S
N193   H195    1.046   .     S
N196   H197    1.046   .     S
N196   H198    1.040   .     S
N199   H200    1.045   .     S
N199   H201    1.045   .     S
C202   O204    1.221   .     D
C202   C794    1.490   .     S
C202   H63     1.083   1_655 S
C205   O207    1.221   .     D
C205   C797    1.480   1_554 S
C205   H836    1.086   1_554 S
H206   C835    1.086   .     S
N208   H210    1.045   .     S
N208   H209    1.042   .     S
C211   C227    1.419   .     S
C211   O251    1.282   .     A
C211   O250    1.284   .     A
C212   C213    1.407   .     A
C212   C844    1.417   .     S
C212   C868    1.422   .     S
C213   C220    1.409   .     A
C213   C217    1.415   .     A
C214   C218    1.388   .     A
C214   C842    1.417   1_554 S
C214   C845    1.420   1_554 S
C215   C216    1.411   .     A
C215   C844    1.420   .     S
C215   C864    1.424   .     S
C216   C217    1.407   .     A
C216   N269    1.437   .     S
C217   N278    1.435   .     S
C218   H244    1.077   .     S
C218   C235    1.390   .     A
C219   C234    1.417   .     A
C219   C235    1.416   .     A
C219   C260    1.484   .     S
C220   C236    1.399   .     A
C220   C222    1.459   .     S
C221   H247    1.084   .     S
C221   C227    1.393   .     A
C221   C433    1.372   .     S
C222   O253    1.294   .     A
C222   O252    1.289   .     A
C223   N263    1.433   .     S
C223   C224    1.412   .     A
C224   C232    1.432   .     S
C224   C225    1.402   .     A
C225   H239    1.084   .     S
C226   H240    1.084   .     S
C226   C227    1.393   .     A
C226   C435    1.371   .     S
C228   N249    1.373   .     A
C228   N266    1.431   .     S
C228   C299    1.421   .     S
C229   N248    1.361   .     A
C229   H241    1.082   .     S
C229   C368    1.421   1_455 S
C230   N248    1.366   .     A
C230   H242    1.082   .     S
C230   C371    1.416   1_455 S
C231   N249    1.366   .     A
C231   H243    1.082   .     S
C231   C300    1.416   .     S
C232   O255    1.283   .     A
C232   O254    1.289   .     A
C233   C235    1.472   .     S
C233   O257    1.293   .     A
C233   O256    1.299   .     A
C234   C845    1.424   1_554 S
C234   C902    1.490   1_554 S
C236   C237    1.391   .     A
C236   H245    1.085   .     S
C237   C868    1.401   .     S
C237   C905    1.480   .     S
C238   H246    1.077   .     S
C238   C842    1.422   1_554 S
C238   C867    1.401   1_554 S
N248   Zn258   2.009   .     S
N249   Zn259   2.009   .     S
O250   Zn258   2.013   .     S
O251   Zn259   2.003   .     S
O252   Zn258   1.964   .     S
O253   Zn259   1.904   .     S
O254   Zn258   2.003   .     S
O255   Zn259   2.013   .     S
O256   Zn258   1.904   .     S
O257   Zn259   1.964   .     S
C260   O262    1.220   .     D
C260   H261    1.083   .     S
N263   H264    1.046   .     S
N263   H265    1.046   .     S
N266   H267    1.046   .     S
N266   H268    1.040   .     S
N269   H270    1.045   .     S
N269   H271    1.045   .     S
C272   O274    1.221   .     D
C272   C864    1.490   .     S
C272   H343    1.083   .     S
H273   C412    1.083   1_455 S
C275   O277    1.221   .     D
C275   C867    1.480   1_554 S
C275   H906    1.086   1_554 S
H276   C905    1.086   .     S
N278   H280    1.045   .     S
N278   H279    1.042   .     S
C281   C297    1.419   .     S
C281   O321    1.282   .     A
C281   O320    1.284   .     A
C282   C283    1.407   .     A
C282   C914    1.417   .     S
C282   C938    1.422   .     S
C283   C290    1.409   .     A
C283   C287    1.415   .     A
C284   C288    1.388   .     A
C284   C912    1.417   1_554 S
C284   C915    1.420   1_554 S
C285   C286    1.411   .     A
C285   C914    1.420   .     S
C285   C934    1.424   .     S
C286   C287    1.407   .     A
C286   N339    1.437   .     S
C287   N348    1.435   .     S
C288   H314    1.077   .     S
C288   C305    1.390   .     A
C289   C304    1.417   .     A
C289   C305    1.416   .     A
C289   C330    1.484   .     S
C290   C306    1.399   .     A
C290   C292    1.459   .     S
C291   H317    1.084   .     S
C291   C297    1.393   .     A
C291   C503    1.372   .     S
C292   O323    1.294   .     A
C292   O322    1.289   .     A
C293   N333    1.433   .     S
C293   C294    1.412   .     A
C294   C302    1.432   .     S
C294   C295    1.402   .     A
C295   H309    1.084   .     S
C296   H310    1.084   .     S
C296   C297    1.393   .     A
C296   C505    1.371   .     S
C298   N319    1.373   .     A
C298   N336    1.431   .     S
C298   C369    1.421   .     S
C299   N318    1.361   .     A
C299   H311    1.082   .     S
C300   N318    1.366   .     A
C300   H312    1.082   .     S
C301   N319    1.366   .     A
C301   H313    1.082   .     S
C301   C370    1.416   .     S
C302   O325    1.283   .     A
C302   O324    1.289   .     A
C303   C305    1.472   .     S
C303   O327    1.293   .     A
C303   O326    1.299   .     A
C304   C915    1.424   1_554 S
C304   C972    1.490   1_554 S
C306   C307    1.391   .     A
C306   H315    1.085   .     S
C307   C938    1.401   .     S
C307   C975    1.480   .     S
C308   H316    1.077   .     S
C308   C912    1.422   1_554 S
C308   C937    1.401   1_554 S
N318   Zn328   2.009   .     S
N319   Zn329   2.009   .     S
O320   Zn328   2.013   .     S
O321   Zn329   2.003   .     S
O322   Zn328   1.964   .     S
O323   Zn329   1.904   .     S
O324   Zn328   2.003   .     S
O325   Zn329   2.013   .     S
O326   Zn328   1.904   .     S
O327   Zn329   1.964   .     S
C330   O332    1.220   .     D
C330   H331    1.083   .     S
N333   H334    1.046   .     S
N333   H335    1.046   .     S
N336   H337    1.046   .     S
N336   H338    1.040   .     S
N339   H340    1.045   .     S
N339   H341    1.045   .     S
C342   O344    1.221   .     D
C342   C934    1.490   .     S
C342   H413    1.083   .     S
C345   O347    1.221   .     D
C345   C937    1.480   1_554 S
C345   H976    1.086   1_554 S
H346   C975    1.086   .     S
N348   H350    1.045   .     S
N348   H349    1.042   .     S
C351   C367    1.419   .     S
C351   O391    1.282   .     A
C351   O390    1.284   .     A
C352   C353    1.407   .     A
C352   C984    1.417   .     S
C352   C1008   1.422   .     S
C353   C360    1.409   .     A
C353   C357    1.415   .     A
C354   C358    1.388   .     A
C354   C982    1.417   1_554 S
C354   C985    1.420   1_554 S
C355   C356    1.411   .     A
C355   C984    1.420   .     S
C355   C1004   1.424   .     S
C356   C357    1.407   .     A
C356   N409    1.437   .     S
C357   N418    1.435   .     S
C358   H384    1.077   .     S
C358   C375    1.390   .     A
C359   C374    1.417   .     A
C359   C375    1.416   .     A
C359   C400    1.484   .     S
C360   C376    1.399   .     A
C360   C362    1.459   .     S
C361   H387    1.084   .     S
C361   C367    1.393   .     A
C361   C573    1.372   .     S
C362   O393    1.294   .     A
C362   O392    1.289   .     A
C363   N403    1.433   .     S
C363   C364    1.412   .     A
C364   C372    1.432   .     S
C364   C365    1.402   .     A
C365   H379    1.084   .     S
C366   H380    1.084   .     S
C366   C367    1.393   .     A
C366   C575    1.371   .     S
C368   N389    1.373   .     A
C368   N406    1.431   .     S
C368   C229    1.421   1_655 S
C369   N388    1.361   .     A
C369   H381    1.082   .     S
C370   N388    1.366   .     A
C370   H382    1.082   .     S
C371   N389    1.366   .     A
C371   H383    1.082   .     S
C371   C230    1.416   1_655 S
C372   O395    1.283   .     A
C372   O394    1.289   .     A
C373   C375    1.472   .     S
C373   O397    1.293   .     A
C373   O396    1.299   .     A
C374   C985    1.424   1_554 S
C374   C1042   1.490   1_554 S
C376   C377    1.391   .     A
C376   H385    1.085   .     S
C377   C1008   1.401   .     S
C377   C1045   1.480   .     S
C378   H386    1.077   .     S
C378   C982    1.422   1_554 S
C378   C1007   1.401   1_554 S
N388   Zn398   2.009   .     S
N389   Zn399   2.009   .     S
O390   Zn398   2.013   .     S
O391   Zn399   2.003   .     S
O392   Zn398   1.964   .     S
O393   Zn399   1.904   .     S
O394   Zn398   2.003   .     S
O395   Zn399   2.013   .     S
O396   Zn398   1.904   .     S
O397   Zn399   1.964   .     S
C400   O402    1.220   .     D
C400   H401    1.083   .     S
N403   H404    1.046   .     S
N403   H405    1.046   .     S
N406   H407    1.046   .     S
N406   H408    1.040   .     S
N409   H410    1.045   .     S
N409   H411    1.045   .     S
C412   O414    1.221   .     D
C412   C1004   1.490   .     S
C412   H273    1.083   1_655 S
C415   O417    1.221   .     D
C415   C1007   1.480   1_554 S
C415   H1046   1.086   1_554 S
H416   C1045   1.086   .     S
N418   H420    1.045   .     S
N418   H419    1.042   .     S
C421   C437    1.419   .     S
C421   O461    1.282   .     A
C421   O460    1.284   .     A
C422   C423    1.407   .     A
C422   C1054   1.417   .     S
C422   C1078   1.422   .     S
C423   C430    1.409   .     A
C423   C427    1.415   .     A
C424   C428    1.388   .     A
C424   C1052   1.417   1_554 S
C424   C1055   1.420   1_554 S
C425   C426    1.411   .     A
C425   C1054   1.420   .     S
C425   C1074   1.424   .     S
C426   C427    1.407   .     A
C426   N479    1.437   .     S
C427   N488    1.435   .     S
C428   H454    1.077   .     S
C428   C445    1.390   .     A
C429   C444    1.417   .     A
C429   C445    1.416   .     A
C429   C470    1.484   .     S
C430   C446    1.399   .     A
C430   C432    1.459   .     S
C431   H457    1.084   .     S
C431   C437    1.393   .     A
C431   C13     1.372   1_565 S
C432   O463    1.294   .     A
C432   O462    1.289   .     A
C433   N473    1.433   .     S
C433   C434    1.412   .     A
C434   C442    1.432   .     S
C434   C435    1.402   .     A
C435   H449    1.084   .     S
C436   H450    1.084   .     S
C436   C437    1.393   .     A
C436   C15     1.371   1_565 S
C438   N459    1.373   .     A
C438   N476    1.431   .     S
C438   C509    1.421   .     S
C439   N458    1.361   .     A
C439   H451    1.082   .     S
C439   C578    1.421   1_455 S
C440   N458    1.366   .     A
C440   H452    1.082   .     S
C440   C581    1.416   1_455 S
C441   N459    1.366   .     A
C441   H453    1.082   .     S
C441   C510    1.416   .     S
C442   O465    1.283   .     A
C442   O464    1.289   .     A
C443   C445    1.472   .     S
C443   O467    1.293   .     A
C443   O466    1.299   .     A
C444   C1055   1.424   1_554 S
C444   C1112   1.490   1_554 S
C446   C447    1.391   .     A
C446   H455    1.085   .     S
C447   C1078   1.401   .     S
C447   C1115   1.480   .     S
C448   H456    1.077   .     S
C448   C1052   1.422   1_554 S
C448   C1077   1.401   1_554 S
N458   Zn468   2.009   .     S
N459   Zn469   2.009   .     S
O460   Zn468   2.013   .     S
O461   Zn469   2.003   .     S
O462   Zn468   1.964   .     S
O463   Zn469   1.904   .     S
O464   Zn468   2.003   .     S
O465   Zn469   2.013   .     S
O466   Zn468   1.904   .     S
O467   Zn469   1.964   .     S
C470   O472    1.220   .     D
C470   H471    1.083   .     S
N473   H474    1.046   .     S
N473   H475    1.046   .     S
N476   H477    1.046   .     S
N476   H478    1.040   .     S
N479   H480    1.045   .     S
N479   H481    1.045   .     S
C482   O484    1.221   .     D
C482   C1074   1.490   .     S
C482   H553    1.083   .     S
H483   C622    1.083   1_455 S
C485   O487    1.221   .     D
C485   C1077   1.480   1_554 S
C485   H1116   1.086   1_554 S
H486   C1115   1.086   .     S
N488   H490    1.045   .     S
N488   H489    1.042   .     S
C491   C507    1.419   .     S
C491   O531    1.282   .     A
C491   O530    1.284   .     A
C492   C493    1.407   .     A
C492   C1124   1.417   .     S
C492   C1148   1.422   .     S
C493   C500    1.409   .     A
C493   C497    1.415   .     A
C494   C498    1.388   .     A
C494   C1122   1.417   1_554 S
C494   C1125   1.420   1_554 S
C495   C496    1.411   .     A
C495   C1124   1.420   .     S
C495   C1144   1.424   .     S
C496   C497    1.407   .     A
C496   N549    1.437   .     S
C497   N558    1.435   .     S
C498   H524    1.077   .     S
C498   C515    1.390   .     A
C499   C514    1.417   .     A
C499   C515    1.416   .     A
C499   C540    1.484   .     S
C500   C516    1.399   .     A
C500   C502    1.459   .     S
C501   H527    1.084   .     S
C501   C507    1.393   .     A
C501   C83     1.372   1_565 S
C502   O533    1.294   .     A
C502   O532    1.289   .     A
C503   N543    1.433   .     S
C503   C504    1.412   .     A
C504   C512    1.432   .     S
C504   C505    1.402   .     A
C505   H519    1.084   .     S
C506   H520    1.084   .     S
C506   C507    1.393   .     A
C506   C85     1.371   1_565 S
C508   N529    1.373   .     A
C508   N546    1.431   .     S
C508   C579    1.421   .     S
C509   N528    1.361   .     A
C509   H521    1.082   .     S
C510   N528    1.366   .     A
C510   H522    1.082   .     S
C511   N529    1.366   .     A
C511   H523    1.082   .     S
C511   C580    1.416   .     S
C512   O535    1.283   .     A
C512   O534    1.289   .     A
C513   C515    1.472   .     S
C513   O537    1.293   .     A
C513   O536    1.299   .     A
C514   C1125   1.424   1_554 S
C514   C1182   1.490   1_554 S
C516   C517    1.391   .     A
C516   H525    1.085   .     S
C517   C1148   1.401   .     S
C517   C1185   1.480   .     S
C518   H526    1.077   .     S
C518   C1122   1.422   1_554 S
C518   C1147   1.401   1_554 S
N528   Zn538   2.009   .     S
N529   Zn539   2.009   .     S
O530   Zn538   2.013   .     S
O531   Zn539   2.003   .     S
O532   Zn538   1.964   .     S
O533   Zn539   1.904   .     S
O534   Zn538   2.003   .     S
O535   Zn539   2.013   .     S
O536   Zn538   1.904   .     S
O537   Zn539   1.964   .     S
C540   O542    1.220   .     D
C540   H541    1.083   .     S
N543   H544    1.046   .     S
N543   H545    1.046   .     S
N546   H547    1.046   .     S
N546   H548    1.040   .     S
N549   H550    1.045   .     S
N549   H551    1.045   .     S
C552   O554    1.221   .     D
C552   C1144   1.490   .     S
C552   H623    1.083   .     S
C555   O557    1.221   .     D
C555   C1147   1.480   1_554 S
C555   H1186   1.086   1_554 S
H556   C1185   1.086   .     S
N558   H560    1.045   .     S
N558   H559    1.042   .     S
C561   C577    1.419   .     S
C561   O601    1.282   .     A
C561   O600    1.284   .     A
C562   C563    1.407   .     A
C562   C1194   1.417   .     S
C562   C1218   1.422   .     S
C563   C570    1.409   .     A
C563   C567    1.415   .     A
C564   C568    1.388   .     A
C564   C1192   1.417   1_554 S
C564   C1195   1.420   1_554 S
C565   C566    1.411   .     A
C565   C1194   1.420   .     S
C565   C1214   1.424   .     S
C566   C567    1.407   .     A
C566   N619    1.437   .     S
C567   N628    1.435   .     S
C568   H594    1.077   .     S
C568   C585    1.390   .     A
C569   C584    1.417   .     A
C569   C585    1.416   .     A
C569   C610    1.484   .     S
C570   C586    1.399   .     A
C570   C572    1.459   .     S
C571   H597    1.084   .     S
C571   C577    1.393   .     A
C571   C153    1.372   1_565 S
C572   O603    1.294   .     A
C572   O602    1.289   .     A
C573   N613    1.433   .     S
C573   C574    1.412   .     A
C574   C582    1.432   .     S
C574   C575    1.402   .     A
C575   H589    1.084   .     S
C576   H590    1.084   .     S
C576   C577    1.393   .     A
C576   C155    1.371   1_565 S
C578   N599    1.373   .     A
C578   N616    1.431   .     S
C578   C439    1.421   1_655 S
C579   N598    1.361   .     A
C579   H591    1.082   .     S
C580   N598    1.366   .     A
C580   H592    1.082   .     S
C581   N599    1.366   .     A
C581   H593    1.082   .     S
C581   C440    1.416   1_655 S
C582   O605    1.283   .     A
C582   O604    1.289   .     A
C583   C585    1.472   .     S
C583   O607    1.293   .     A
C583   O606    1.299   .     A
C584   C1195   1.424   1_554 S
C584   C1252   1.490   1_554 S
C586   C587    1.391   .     A
C586   H595    1.085   .     S
C587   C1218   1.401   .     S
C587   C1255   1.480   .     S
C588   H596    1.077   .     S
C588   C1192   1.422   1_554 S
C588   C1217   1.401   1_554 S
N598   Zn608   2.009   .     S
N599   Zn609   2.009   .     S
O600   Zn608   2.013   .     S
O601   Zn609   2.003   .     S
O602   Zn608   1.964   .     S
O603   Zn609   1.904   .     S
O604   Zn608   2.003   .     S
O605   Zn609   2.013   .     S
O606   Zn608   1.904   .     S
O607   Zn609   1.964   .     S
C610   O612    1.220   .     D
C610   H611    1.083   .     S
N613   H614    1.046   .     S
N613   H615    1.046   .     S
N616   H617    1.046   .     S
N616   H618    1.040   .     S
N619   H620    1.045   .     S
N619   H621    1.045   .     S
C622   O624    1.221   .     D
C622   C1214   1.490   .     S
C622   H483    1.083   1_655 S
C625   O627    1.221   .     D
C625   C1217   1.480   1_554 S
C625   H1256   1.086   1_554 S
H626   C1255   1.086   .     S
N628   H630    1.045   .     S
N628   H629    1.042   .     S
C631   C647    1.419   .     S
C631   O671    1.282   .     A
C631   O670    1.284   .     A
C632   C633    1.407   .     A
C632   C4      1.417   1_556 S
C632   C28     1.422   1_556 S
C633   C640    1.409   .     A
C633   C637    1.415   .     A
C634   C638    1.388   .     A
C635   C636    1.411   .     A
C635   C4      1.420   1_556 S
C635   C24     1.424   1_556 S
C636   C637    1.407   .     A
C636   N689    1.437   .     S
C637   N698    1.435   .     S
C638   H664    1.077   .     S
C638   C655    1.390   .     A
C639   C654    1.417   .     A
C639   C655    1.416   .     A
C639   C680    1.484   .     S
C640   C656    1.399   .     A
C640   C642    1.459   .     S
C641   H667    1.084   .     S
C641   C647    1.393   .     A
C641   C853    1.372   .     S
C642   O673    1.294   .     A
C642   O672    1.289   .     A
C643   N683    1.433   .     S
C643   C644    1.412   .     A
C643   C1061   1.372   1_545 S
C644   C652    1.432   .     S
C644   C645    1.402   .     A
C645   H659    1.084   .     S
C645   C1066   1.371   1_545 S
C646   H660    1.084   .     S
C646   C647    1.393   .     A
C646   C855    1.371   .     S
C648   N669    1.373   .     A
C648   N686    1.431   .     S
C648   C719    1.421   .     S
C649   N668    1.361   .     A
C649   H661    1.082   .     S
C649   C788    1.421   1_455 S
C650   N668    1.366   .     A
C650   H662    1.082   .     S
C650   C791    1.416   1_455 S
C651   N669    1.366   .     A
C651   H663    1.082   .     S
C651   C720    1.416   .     S
C652   O675    1.283   .     A
C652   O674    1.289   .     A
C653   C655    1.472   .     S
C653   O677    1.293   .     A
C653   O676    1.299   .     A
C656   C657    1.391   .     A
C656   H665    1.085   .     S
C657   C28     1.401   1_556 S
C657   C65     1.480   1_556 S
C658   H666    1.077   .     S
N668   Zn678   2.009   .     S
N669   Zn679   2.009   .     S
O670   Zn678   2.013   .     S
O671   Zn679   2.003   .     S
O672   Zn678   1.964   .     S
O673   Zn679   1.904   .     S
O674   Zn678   2.003   .     S
O675   Zn679   2.013   .     S
O676   Zn678   1.904   .     S
O677   Zn679   1.964   .     S
C680   O682    1.220   .     D
C680   H681    1.083   .     S
N683   H684    1.046   .     S
N683   H685    1.046   .     S
N686   H687    1.046   .     S
N686   H688    1.040   .     S
N689   H690    1.045   .     S
N689   H691    1.045   .     S
C692   O694    1.221   .     D
C692   C24     1.490   1_556 S
C692   H763    1.083   .     S
H693   C832    1.083   1_455 S
C695   O697    1.221   .     D
H696   C65     1.086   1_556 S
N698   H700    1.045   .     S
N698   H699    1.042   .     S
C701   C717    1.419   .     S
C701   O741    1.282   .     A
C701   O740    1.284   .     A
C702   C703    1.407   .     A
C702   C74     1.417   1_556 S
C702   C98     1.422   1_556 S
C703   C710    1.409   .     A
C703   C707    1.415   .     A
C704   C708    1.388   .     A
C705   C706    1.411   .     A
C705   C74     1.420   1_556 S
C705   C94     1.424   1_556 S
C706   C707    1.407   .     A
C706   N759    1.437   .     S
C707   N768    1.435   .     S
C708   H734    1.077   .     S
C708   C725    1.390   .     A
C709   C724    1.417   .     A
C709   C725    1.416   .     A
C709   C750    1.484   .     S
C710   C726    1.399   .     A
C710   C712    1.459   .     S
C711   H737    1.084   .     S
C711   C717    1.393   .     A
C711   C923    1.372   .     S
C712   O743    1.294   .     A
C712   O742    1.289   .     A
C713   N753    1.433   .     S
C713   C714    1.412   .     A
C713   C1131   1.372   1_545 S
C714   C722    1.432   .     S
C714   C715    1.402   .     A
C715   H729    1.084   .     S
C715   C1136   1.371   1_545 S
C716   H730    1.084   .     S
C716   C717    1.393   .     A
C716   C925    1.371   .     S
C718   N739    1.373   .     A
C718   N756    1.431   .     S
C718   C789    1.421   .     S
C719   N738    1.361   .     A
C719   H731    1.082   .     S
C720   N738    1.366   .     A
C720   H732    1.082   .     S
C721   N739    1.366   .     A
C721   H733    1.082   .     S
C721   C790    1.416   .     S
C722   O745    1.283   .     A
C722   O744    1.289   .     A
C723   C725    1.472   .     S
C723   O747    1.293   .     A
C723   O746    1.299   .     A
C726   C727    1.391   .     A
C726   H735    1.085   .     S
C727   C98     1.401   1_556 S
C727   C135    1.480   1_556 S
C728   H736    1.077   .     S
N738   Zn748   2.009   .     S
N739   Zn749   2.009   .     S
O740   Zn748   2.013   .     S
O741   Zn749   2.003   .     S
O742   Zn748   1.964   .     S
O743   Zn749   1.904   .     S
O744   Zn748   2.003   .     S
O745   Zn749   2.013   .     S
O746   Zn748   1.904   .     S
O747   Zn749   1.964   .     S
C750   O752    1.220   .     D
C750   H751    1.083   .     S
N753   H754    1.046   .     S
N753   H755    1.046   .     S
N756   H757    1.046   .     S
N756   H758    1.040   .     S
N759   H760    1.045   .     S
N759   H761    1.045   .     S
C762   O764    1.221   .     D
C762   C94     1.490   1_556 S
C762   H833    1.083   .     S
C765   O767    1.221   .     D
H766   C135    1.086   1_556 S
N768   H770    1.045   .     S
N768   H769    1.042   .     S
C771   C787    1.419   .     S
C771   O811    1.282   .     A
C771   O810    1.284   .     A
C772   C773    1.407   .     A
C772   C144    1.417   1_556 S
C772   C168    1.422   1_556 S
C773   C780    1.409   .     A
C773   C777    1.415   .     A
C774   C778    1.388   .     A
C775   C776    1.411   .     A
C775   C144    1.420   1_556 S
C775   C164    1.424   1_556 S
C776   C777    1.407   .     A
C776   N829    1.437   .     S
C777   N838    1.435   .     S
C778   H804    1.077   .     S
C778   C795    1.390   .     A
C779   C794    1.417   .     A
C779   C795    1.416   .     A
C779   C820    1.484   .     S
C780   C796    1.399   .     A
C780   C782    1.459   .     S
C781   H807    1.084   .     S
C781   C787    1.393   .     A
C781   C993    1.372   .     S
C782   O813    1.294   .     A
C782   O812    1.289   .     A
C783   N823    1.433   .     S
C783   C784    1.412   .     A
C783   C1201   1.372   1_545 S
C784   C792    1.432   .     S
C784   C785    1.402   .     A
C785   H799    1.084   .     S
C785   C1206   1.371   1_545 S
C786   H800    1.084   .     S
C786   C787    1.393   .     A
C786   C995    1.371   .     S
C788   N809    1.373   .     A
C788   N826    1.431   .     S
C788   C649    1.421   1_655 S
C789   N808    1.361   .     A
C789   H801    1.082   .     S
C790   N808    1.366   .     A
C790   H802    1.082   .     S
C791   N809    1.366   .     A
C791   H803    1.082   .     S
C791   C650    1.416   1_655 S
C792   O815    1.283   .     A
C792   O814    1.289   .     A
C793   C795    1.472   .     S
C793   O817    1.293   .     A
C793   O816    1.299   .     A
C796   C797    1.391   .     A
C796   H805    1.085   .     S
C797   C168    1.401   1_556 S
C797   C205    1.480   1_556 S
C798   H806    1.077   .     S
N808   Zn818   2.009   .     S
N809   Zn819   2.009   .     S
O810   Zn818   2.013   .     S
O811   Zn819   2.003   .     S
O812   Zn818   1.964   .     S
O813   Zn819   1.904   .     S
O814   Zn818   2.003   .     S
O815   Zn819   2.013   .     S
O816   Zn818   1.904   .     S
O817   Zn819   1.964   .     S
C820   O822    1.220   .     D
C820   H821    1.083   .     S
N823   H824    1.046   .     S
N823   H825    1.046   .     S
N826   H827    1.046   .     S
N826   H828    1.040   .     S
N829   H830    1.045   .     S
N829   H831    1.045   .     S
C832   O834    1.221   .     D
C832   C164    1.490   1_556 S
C832   H693    1.083   1_655 S
C835   O837    1.221   .     D
H836   C205    1.086   1_556 S
N838   H840    1.045   .     S
N838   H839    1.042   .     S
C841   C857    1.419   .     S
C841   O881    1.282   .     A
C841   O880    1.284   .     A
C842   C843    1.407   .     A
C842   C214    1.417   1_556 S
C842   C238    1.422   1_556 S
C843   C850    1.409   .     A
C843   C847    1.415   .     A
C844   C848    1.388   .     A
C845   C846    1.411   .     A
C845   C214    1.420   1_556 S
C845   C234    1.424   1_556 S
C846   C847    1.407   .     A
C846   N899    1.437   .     S
C847   N908    1.435   .     S
C848   H874    1.077   .     S
C848   C865    1.390   .     A
C849   C864    1.417   .     A
C849   C865    1.416   .     A
C849   C890    1.484   .     S
C850   C866    1.399   .     A
C850   C852    1.459   .     S
C851   H877    1.084   .     S
C851   C857    1.393   .     A
C851   C1063   1.372   .     S
C852   O883    1.294   .     A
C852   O882    1.289   .     A
C853   N893    1.433   .     S
C853   C854    1.412   .     A
C854   C862    1.432   .     S
C854   C855    1.402   .     A
C855   H869    1.084   .     S
C856   H870    1.084   .     S
C856   C857    1.393   .     A
C856   C1065   1.371   .     S
C858   N879    1.373   .     A
C858   N896    1.431   .     S
C858   C929    1.421   .     S
C859   N878    1.361   .     A
C859   H871    1.082   .     S
C859   C998    1.421   1_455 S
C860   N878    1.366   .     A
C860   H872    1.082   .     S
C860   C1001   1.416   1_455 S
C861   N879    1.366   .     A
C861   H873    1.082   .     S
C861   C930    1.416   .     S
C862   O885    1.283   .     A
C862   O884    1.289   .     A
C863   C865    1.472   .     S
C863   O887    1.293   .     A
C863   O886    1.299   .     A
C866   C867    1.391   .     A
C866   H875    1.085   .     S
C867   C238    1.401   1_556 S
C867   C275    1.480   1_556 S
C868   H876    1.077   .     S
N878   Zn888   2.009   .     S
N879   Zn889   2.009   .     S
O880   Zn888   2.013   .     S
O881   Zn889   2.003   .     S
O882   Zn888   1.964   .     S
O883   Zn889   1.904   .     S
O884   Zn888   2.003   .     S
O885   Zn889   2.013   .     S
O886   Zn888   1.904   .     S
O887   Zn889   1.964   .     S
C890   O892    1.220   .     D
C890   H891    1.083   .     S
N893   H894    1.046   .     S
N893   H895    1.046   .     S
N896   H897    1.046   .     S
N896   H898    1.040   .     S
N899   H900    1.045   .     S
N899   H901    1.045   .     S
C902   O904    1.221   .     D
C902   C234    1.490   1_556 S
C902   H973    1.083   .     S
H903   C1042   1.083   1_455 S
C905   O907    1.221   .     D
H906   C275    1.086   1_556 S
N908   H910    1.045   .     S
N908   H909    1.042   .     S
C911   C927    1.419   .     S
C911   O951    1.282   .     A
C911   O950    1.284   .     A
C912   C913    1.407   .     A
C912   C284    1.417   1_556 S
C912   C308    1.422   1_556 S
C913   C920    1.409   .     A
C913   C917    1.415   .     A
C914   C918    1.388   .     A
C915   C916    1.411   .     A
C915   C284    1.420   1_556 S
C915   C304    1.424   1_556 S
C916   C917    1.407   .     A
C916   N969    1.437   .     S
C917   N978    1.435   .     S
C918   H944    1.077   .     S
C918   C935    1.390   .     A
C919   C934    1.417   .     A
C919   C935    1.416   .     A
C919   C960    1.484   .     S
C920   C936    1.399   .     A
C920   C922    1.459   .     S
C921   H947    1.084   .     S
C921   C927    1.393   .     A
C921   C1133   1.372   .     S
C922   O953    1.294   .     A
C922   O952    1.289   .     A
C923   N963    1.433   .     S
C923   C924    1.412   .     A
C924   C932    1.432   .     S
C924   C925    1.402   .     A
C925   H939    1.084   .     S
C926   H940    1.084   .     S
C926   C927    1.393   .     A
C926   C1135   1.371   .     S
C928   N949    1.373   .     A
C928   N966    1.431   .     S
C928   C999    1.421   .     S
C929   N948    1.361   .     A
C929   H941    1.082   .     S
C930   N948    1.366   .     A
C930   H942    1.082   .     S
C931   N949    1.366   .     A
C931   H943    1.082   .     S
C931   C1000   1.416   .     S
C932   O955    1.283   .     A
C932   O954    1.289   .     A
C933   C935    1.472   .     S
C933   O957    1.293   .     A
C933   O956    1.299   .     A
C936   C937    1.391   .     A
C936   H945    1.085   .     S
C937   C308    1.401   1_556 S
C937   C345    1.480   1_556 S
C938   H946    1.077   .     S
N948   Zn958   2.009   .     S
N949   Zn959   2.009   .     S
O950   Zn958   2.013   .     S
O951   Zn959   2.003   .     S
O952   Zn958   1.964   .     S
O953   Zn959   1.904   .     S
O954   Zn958   2.003   .     S
O955   Zn959   2.013   .     S
O956   Zn958   1.904   .     S
O957   Zn959   1.964   .     S
C960   O962    1.220   .     D
C960   H961    1.083   .     S
N963   H964    1.046   .     S
N963   H965    1.046   .     S
N966   H967    1.046   .     S
N966   H968    1.040   .     S
N969   H970    1.045   .     S
N969   H971    1.045   .     S
C972   O974    1.221   .     D
C972   C304    1.490   1_556 S
C972   H1043   1.083   .     S
C975   O977    1.221   .     D
H976   C345    1.086   1_556 S
N978   H980    1.045   .     S
N978   H979    1.042   .     S
C981   C997    1.419   .     S
C981   O1021   1.282   .     A
C981   O1020   1.284   .     A
C982   C983    1.407   .     A
C982   C354    1.417   1_556 S
C982   C378    1.422   1_556 S
C983   C990    1.409   .     A
C983   C987    1.415   .     A
C984   C988    1.388   .     A
C985   C986    1.411   .     A
C985   C354    1.420   1_556 S
C985   C374    1.424   1_556 S
C986   C987    1.407   .     A
C986   N1039   1.437   .     S
C987   N1048   1.435   .     S
C988   H1014   1.077   .     S
C988   C1005   1.390   .     A
C989   C1004   1.417   .     A
C989   C1005   1.416   .     A
C989   C1030   1.484   .     S
C990   C1006   1.399   .     A
C990   C992    1.459   .     S
C991   H1017   1.084   .     S
C991   C997    1.393   .     A
C991   C1203   1.372   .     S
C992   O1023   1.294   .     A
C992   O1022   1.289   .     A
C993   N1033   1.433   .     S
C993   C994    1.412   .     A
C994   C1002   1.432   .     S
C994   C995    1.402   .     A
C995   H1009   1.084   .     S
C996   H1010   1.084   .     S
C996   C997    1.393   .     A
C996   C1205   1.371   .     S
C998   N1019   1.373   .     A
C998   N1036   1.431   .     S
C998   C859    1.421   1_655 S
C999   N1018   1.361   .     A
C999   H1011   1.082   .     S
C1000  N1018   1.366   .     A
C1000  H1012   1.082   .     S
C1001  N1019   1.366   .     A
C1001  H1013   1.082   .     S
C1001  C860    1.416   1_655 S
C1002  O1025   1.283   .     A
C1002  O1024   1.289   .     A
C1003  C1005   1.472   .     S
C1003  O1027   1.293   .     A
C1003  O1026   1.299   .     A
C1006  C1007   1.391   .     A
C1006  H1015   1.085   .     S
C1007  C378    1.401   1_556 S
C1007  C415    1.480   1_556 S
C1008  H1016   1.077   .     S
N1018  Zn1028  2.009   .     S
N1019  Zn1029  2.009   .     S
O1020  Zn1028  2.013   .     S
O1021  Zn1029  2.003   .     S
O1022  Zn1028  1.964   .     S
O1023  Zn1029  1.904   .     S
O1024  Zn1028  2.003   .     S
O1025  Zn1029  2.013   .     S
O1026  Zn1028  1.904   .     S
O1027  Zn1029  1.964   .     S
C1030  O1032   1.220   .     D
C1030  H1031   1.083   .     S
N1033  H1034   1.046   .     S
N1033  H1035   1.046   .     S
N1036  H1037   1.046   .     S
N1036  H1038   1.040   .     S
N1039  H1040   1.045   .     S
N1039  H1041   1.045   .     S
C1042  O1044   1.221   .     D
C1042  C374    1.490   1_556 S
C1042  H903    1.083   1_655 S
C1045  O1047   1.221   .     D
H1046  C415    1.086   1_556 S
N1048  H1050   1.045   .     S
N1048  H1049   1.042   .     S
C1051  C1067   1.419   .     S
C1051  O1091   1.282   .     A
C1051  O1090   1.284   .     A
C1052  C1053   1.407   .     A
C1052  C424    1.417   1_556 S
C1052  C448    1.422   1_556 S
C1053  C1060   1.409   .     A
C1053  C1057   1.415   .     A
C1054  C1058   1.388   .     A
C1055  C1056   1.411   .     A
C1055  C424    1.420   1_556 S
C1055  C444    1.424   1_556 S
C1056  C1057   1.407   .     A
C1056  N1109   1.437   .     S
C1057  N1118   1.435   .     S
C1058  H1084   1.077   .     S
C1058  C1075   1.390   .     A
C1059  C1074   1.417   .     A
C1059  C1075   1.416   .     A
C1059  C1100   1.484   .     S
C1060  C1076   1.399   .     A
C1060  C1062   1.459   .     S
C1061  H1087   1.084   .     S
C1061  C1067   1.393   .     A
C1061  C643    1.372   1_565 S
C1062  O1093   1.294   .     A
C1062  O1092   1.289   .     A
C1063  N1103   1.433   .     S
C1063  C1064   1.412   .     A
C1064  C1072   1.432   .     S
C1064  C1065   1.402   .     A
C1065  H1079   1.084   .     S
C1066  H1080   1.084   .     S
C1066  C1067   1.393   .     A
C1066  C645    1.371   1_565 S
C1068  N1089   1.373   .     A
C1068  N1106   1.431   .     S
C1068  C1139   1.421   .     S
C1069  N1088   1.361   .     A
C1069  H1081   1.082   .     S
C1069  C1208   1.421   1_455 S
C1070  N1088   1.366   .     A
C1070  H1082   1.082   .     S
C1070  C1211   1.416   1_455 S
C1071  N1089   1.366   .     A
C1071  H1083   1.082   .     S
C1071  C1140   1.416   .     S
C1072  O1095   1.283   .     A
C1072  O1094   1.289   .     A
C1073  C1075   1.472   .     S
C1073  O1097   1.293   .     A
C1073  O1096   1.299   .     A
C1076  C1077   1.391   .     A
C1076  H1085   1.085   .     S
C1077  C448    1.401   1_556 S
C1077  C485    1.480   1_556 S
C1078  H1086   1.077   .     S
N1088  Zn1098  2.009   .     S
N1089  Zn1099  2.009   .     S
O1090  Zn1098  2.013   .     S
O1091  Zn1099  2.003   .     S
O1092  Zn1098  1.964   .     S
O1093  Zn1099  1.904   .     S
O1094  Zn1098  2.003   .     S
O1095  Zn1099  2.013   .     S
O1096  Zn1098  1.904   .     S
O1097  Zn1099  1.964   .     S
C1100  O1102   1.220   .     D
C1100  H1101   1.083   .     S
N1103  H1104   1.046   .     S
N1103  H1105   1.046   .     S
N1106  H1107   1.046   .     S
N1106  H1108   1.040   .     S
N1109  H1110   1.045   .     S
N1109  H1111   1.045   .     S
C1112  O1114   1.221   .     D
C1112  C444    1.490   1_556 S
C1112  H1183   1.083   .     S
H1113  C1252   1.083   1_455 S
C1115  O1117   1.221   .     D
H1116  C485    1.086   1_556 S
N1118  H1120   1.045   .     S
N1118  H1119   1.042   .     S
C1121  C1137   1.419   .     S
C1121  O1161   1.282   .     A
C1121  O1160   1.284   .     A
C1122  C1123   1.407   .     A
C1122  C494    1.417   1_556 S
C1122  C518    1.422   1_556 S
C1123  C1130   1.409   .     A
C1123  C1127   1.415   .     A
C1124  C1128   1.388   .     A
C1125  C1126   1.411   .     A
C1125  C494    1.420   1_556 S
C1125  C514    1.424   1_556 S
C1126  C1127   1.407   .     A
C1126  N1179   1.437   .     S
C1127  N1188   1.435   .     S
C1128  H1154   1.077   .     S
C1128  C1145   1.390   .     A
C1129  C1144   1.417   .     A
C1129  C1145   1.416   .     A
C1129  C1170   1.484   .     S
C1130  C1146   1.399   .     A
C1130  C1132   1.459   .     S
C1131  H1157   1.084   .     S
C1131  C1137   1.393   .     A
C1131  C713    1.372   1_565 S
C1132  O1163   1.294   .     A
C1132  O1162   1.289   .     A
C1133  N1173   1.433   .     S
C1133  C1134   1.412   .     A
C1134  C1142   1.432   .     S
C1134  C1135   1.402   .     A
C1135  H1149   1.084   .     S
C1136  H1150   1.084   .     S
C1136  C1137   1.393   .     A
C1136  C715    1.371   1_565 S
C1138  N1159   1.373   .     A
C1138  N1176   1.431   .     S
C1138  C1209   1.421   .     S
C1139  N1158   1.361   .     A
C1139  H1151   1.082   .     S
C1140  N1158   1.366   .     A
C1140  H1152   1.082   .     S
C1141  N1159   1.366   .     A
C1141  H1153   1.082   .     S
C1141  C1210   1.416   .     S
C1142  O1165   1.283   .     A
C1142  O1164   1.289   .     A
C1143  C1145   1.472   .     S
C1143  O1167   1.293   .     A
C1143  O1166   1.299   .     A
C1146  C1147   1.391   .     A
C1146  H1155   1.085   .     S
C1147  C518    1.401   1_556 S
C1147  C555    1.480   1_556 S
C1148  H1156   1.077   .     S
N1158  Zn1168  2.009   .     S
N1159  Zn1169  2.009   .     S
O1160  Zn1168  2.013   .     S
O1161  Zn1169  2.003   .     S
O1162  Zn1168  1.964   .     S
O1163  Zn1169  1.904   .     S
O1164  Zn1168  2.003   .     S
O1165  Zn1169  2.013   .     S
O1166  Zn1168  1.904   .     S
O1167  Zn1169  1.964   .     S
C1170  O1172   1.220   .     D
C1170  H1171   1.083   .     S
N1173  H1174   1.046   .     S
N1173  H1175   1.046   .     S
N1176  H1177   1.046   .     S
N1176  H1178   1.040   .     S
N1179  H1180   1.045   .     S
N1179  H1181   1.045   .     S
C1182  O1184   1.221   .     D
C1182  C514    1.490   1_556 S
C1182  H1253   1.083   .     S
C1185  O1187   1.221   .     D
H1186  C555    1.086   1_556 S
N1188  H1190   1.045   .     S
N1188  H1189   1.042   .     S
C1191  C1207   1.419   .     S
C1191  O1231   1.282   .     A
C1191  O1230   1.284   .     A
C1192  C1193   1.407   .     A
C1192  C564    1.417   1_556 S
C1192  C588    1.422   1_556 S
C1193  C1200   1.409   .     A
C1193  C1197   1.415   .     A
C1194  C1198   1.388   .     A
C1195  C1196   1.411   .     A
C1195  C564    1.420   1_556 S
C1195  C584    1.424   1_556 S
C1196  C1197   1.407   .     A
C1196  N1249   1.437   .     S
C1197  N1258   1.435   .     S
C1198  H1224   1.077   .     S
C1198  C1215   1.390   .     A
C1199  C1214   1.417   .     A
C1199  C1215   1.416   .     A
C1199  C1240   1.484   .     S
C1200  C1216   1.399   .     A
C1200  C1202   1.459   .     S
C1201  H1227   1.084   .     S
C1201  C1207   1.393   .     A
C1201  C783    1.372   1_565 S
C1202  O1233   1.294   .     A
C1202  O1232   1.289   .     A
C1203  N1243   1.433   .     S
C1203  C1204   1.412   .     A
C1204  C1212   1.432   .     S
C1204  C1205   1.402   .     A
C1205  H1219   1.084   .     S
C1206  H1220   1.084   .     S
C1206  C1207   1.393   .     A
C1206  C785    1.371   1_565 S
C1208  N1229   1.373   .     A
C1208  N1246   1.431   .     S
C1208  C1069   1.421   1_655 S
C1209  N1228   1.361   .     A
C1209  H1221   1.082   .     S
C1210  N1228   1.366   .     A
C1210  H1222   1.082   .     S
C1211  N1229   1.366   .     A
C1211  H1223   1.082   .     S
C1211  C1070   1.416   1_655 S
C1212  O1235   1.283   .     A
C1212  O1234   1.289   .     A
C1213  C1215   1.472   .     S
C1213  O1237   1.293   .     A
C1213  O1236   1.299   .     A
C1216  C1217   1.391   .     A
C1216  H1225   1.085   .     S
C1217  C588    1.401   1_556 S
C1217  C625    1.480   1_556 S
C1218  H1226   1.077   .     S
N1228  Zn1238  2.009   .     S
N1229  Zn1239  2.009   .     S
O1230  Zn1238  2.013   .     S
O1231  Zn1239  2.003   .     S
O1232  Zn1238  1.964   .     S
O1233  Zn1239  1.904   .     S
O1234  Zn1238  2.003   .     S
O1235  Zn1239  2.013   .     S
O1236  Zn1238  1.904   .     S
O1237  Zn1239  1.964   .     S
C1240  O1242   1.220   .     D
C1240  H1241   1.083   .     S
N1243  H1244   1.046   .     S
N1243  H1245   1.046   .     S
N1246  H1247   1.046   .     S
N1246  H1248   1.040   .     S
N1249  H1250   1.045   .     S
N1249  H1251   1.045   .     S
C1252  O1254   1.221   .     D
C1252  C584    1.490   1_556 S
C1252  H1113   1.083   1_655 S
C1255  O1257   1.221   .     D
H1256  C625    1.086   1_556 S
N1258  H1260   1.045   .     S
N1258  H1259   1.042   .     S
