data_str_m2_o1_o16_pcu_sym.218
_audit_creation_date              2020-01-03
_audit_creation_method            'Materials Studio'
_symmetry_space_group_name_H-M    'P1'
_symmetry_Int_Tables_number       1
_symmetry_cell_setting            triclinic
loop_
_symmetry_equiv_pos_as_xyz
  x,y,z
_cell_length_a                    28.7536
_cell_length_b                    32.4272
_cell_length_c                    26.9036
_cell_angle_alpha                 91.1961
_cell_angle_beta                  73.4501
_cell_angle_gamma                 90.6907
loop_
_atom_site_label
_atom_site_type_symbol
_atom_site_fract_x
_atom_site_fract_y
_atom_site_fract_z
_atom_site_U_iso_or_equiv
_atom_site_adp_type
_atom_site_occupancy
O1     O     0.12708   0.22678   0.25001   0.00000  Uiso   1.00
O2     O     0.20627   0.22679   0.25000   0.00000  Uiso   1.00
C3     C     0.16681   0.24590   0.25014   0.00000  Uiso   1.00
O4     O     0.10775   0.16665   0.32549   0.00000  Uiso   1.00
O5     O     0.18694   0.16666   0.32549   0.00000  Uiso   1.00
C6     C     0.14134   0.16167   0.34923   0.00000  Uiso   1.00
Cu7    Cu    0.11978   0.16666   0.25000   0.00000  Uiso   1.00
Cu8    Cu    0.21355   0.16667   0.25000   0.00000  Uiso   1.00
O9     O     0.12706   0.10654   0.24999   0.00000  Uiso   1.00
O10    O     0.20625   0.10655   0.24999   0.00000  Uiso   1.00
O11    O     0.14640   0.16667   0.17451   0.00000  Uiso   1.00
O12    O     0.22559   0.16668   0.17451   0.00000  Uiso   1.00
C13    C     0.16651   0.08743   0.24991   0.00000  Uiso   1.00
C14    C     0.19248   0.16712   0.15021   0.00000  Uiso   1.00
C15    C     0.26907   0.16499   0.01125   0.00000  Uiso   1.00
H16    H     0.28396   0.17494   0.08403   0.00000  Uiso   1.00
H17    H     0.28653   0.14487   0.41173   0.00000  Uiso   1.00
H18    H     0.30649   0.16924   0.48921   0.00000  Uiso   1.00
C19    C     0.20715   0.16573   0.09350   0.00000  Uiso   1.00
C20    C     0.07917   0.14449   0.43164   0.00000  Uiso   1.00
C21    C     0.06552   0.13677   0.48451   0.00000  Uiso   1.00
C22    C     0.09930   0.13981   0.01241   0.00000  Uiso   1.00
C23    C     0.14883   0.14691   0.48691   0.00000  Uiso   1.00
C24    C     0.16388   0.14632   0.43197   0.00000  Uiso   1.00
C25    C     0.18421   0.15362   0.01392   0.00000  Uiso   1.00
C26    C     0.23401   0.15556   0.48588   0.00000  Uiso   1.00
C27    C     0.24841   0.14700   0.43296   0.00000  Uiso   1.00
C28    C     0.21387   0.14073   0.40676   0.00000  Uiso   1.00
C29    C     0.17157   0.16003   0.06773   0.00000  Uiso   1.00
C30    C     0.25599   0.16910   0.06496   0.00000  Uiso   1.00
C31    C     0.12822   0.15057   0.40473   0.00000  Uiso   1.00
H32    H     0.13413   0.16115   0.09030   0.00000  Uiso   1.00
H33    H     0.05138   0.14489   0.41165   0.00000  Uiso   1.00
H34    H     0.08588   0.13480   0.05354   0.00000  Uiso   1.00
H35    H     0.02840   0.12910   0.00463   0.00000  Uiso   1.00
H36    H     0.22755   0.13002   0.36716   0.00000  Uiso   1.00
C37    C     0.21070   0.31222   0.23320   0.00000  Uiso   1.00
H38    H     0.24492   0.29623   0.21917   0.00000  Uiso   1.00
C39    C     0.21053   0.02158   0.23313   0.00000  Uiso   1.00
H40    H     0.24476   0.03792   0.21945   0.00000  Uiso   1.00
C41    C     0.16647   0.04279   0.24990   0.00000  Uiso   1.00
C42    C     0.12263   0.02112   0.26703   0.00000  Uiso   1.00
H43    H     0.08842   0.03713   0.28110   0.00000  Uiso   1.00
C44    C     0.12279   0.31177   0.26708   0.00000  Uiso   1.00
H45    H     0.08857   0.29542   0.28077   0.00000  Uiso   1.00
C46    C     0.16685   0.29055   0.25026   0.00000  Uiso   1.00
C47    C     0.30307   0.19770   0.27459   0.00000  Uiso   1.00
C48    C     0.01918   0.19750   0.27413   0.00000  Uiso   1.00
H49    H     0.03312   0.22202   0.29387   0.00000  Uiso   1.00
N50    N     0.04931   0.16666   0.24999   0.00000  Uiso   1.00
C51    C     0.03005   0.13538   0.22592   0.00000  Uiso   1.00
C52    C     0.31407   0.13578   0.22602   0.00000  Uiso   1.00
H53    H     0.30003   0.11117   0.20651   0.00000  Uiso   1.00
N54    N     0.28402   0.16669   0.24999   0.00000  Uiso   1.00
N55    N     0.27383   0.23117   0.30107   0.00000  Uiso   1.00
O56    O     0.24333   0.22516   0.34634   0.00000  Uiso   1.00
O57    O     0.28788   0.26872   0.28817   0.00000  Uiso   1.00
N58    N     0.05864   0.10100   0.20115   0.00000  Uiso   1.00
O59    O     0.04291   0.06390   0.21442   0.00000  Uiso   1.00
O60    O     0.09105   0.10587   0.15683   0.00000  Uiso   1.00
O61    O     0.46042   0.22678   0.25001   0.00000  Uiso   1.00
O62    O     0.53961   0.22679   0.25000   0.00000  Uiso   1.00
C63    C     0.50015   0.24590   0.25014   0.00000  Uiso   1.00
O64    O     0.44108   0.16665   0.32549   0.00000  Uiso   1.00
O65    O     0.52027   0.16666   0.32549   0.00000  Uiso   1.00
C66    C     0.47467   0.16167   0.34923   0.00000  Uiso   1.00
Cu67   Cu    0.45311   0.16666   0.25000   0.00000  Uiso   1.00
Cu68   Cu    0.54689   0.16667   0.25000   0.00000  Uiso   1.00
O69    O     0.46039   0.10654   0.24999   0.00000  Uiso   1.00
O70    O     0.53958   0.10655   0.24999   0.00000  Uiso   1.00
O71    O     0.47973   0.16667   0.17451   0.00000  Uiso   1.00
O72    O     0.55892   0.16668   0.17451   0.00000  Uiso   1.00
C73    C     0.49985   0.08743   0.24991   0.00000  Uiso   1.00
C74    C     0.52582   0.16712   0.15021   0.00000  Uiso   1.00
C75    C     0.60241   0.16499   0.01125   0.00000  Uiso   1.00
H76    H     0.61730   0.17494   0.08403   0.00000  Uiso   1.00
H77    H     0.61987   0.14487   0.41173   0.00000  Uiso   1.00
H78    H     0.63982   0.16924   0.48921   0.00000  Uiso   1.00
C79    C     0.54048   0.16573   0.09350   0.00000  Uiso   1.00
C80    C     0.41250   0.14449   0.43164   0.00000  Uiso   1.00
C81    C     0.39885   0.13677   0.48451   0.00000  Uiso   1.00
C82    C     0.43263   0.13981   0.01241   0.00000  Uiso   1.00
C83    C     0.48217   0.14691   0.48691   0.00000  Uiso   1.00
C84    C     0.49721   0.14632   0.43197   0.00000  Uiso   1.00
C85    C     0.51754   0.15362   0.01392   0.00000  Uiso   1.00
C86    C     0.56734   0.15556   0.48588   0.00000  Uiso   1.00
C87    C     0.58174   0.14700   0.43296   0.00000  Uiso   1.00
C88    C     0.54720   0.14073   0.40676   0.00000  Uiso   1.00
C89    C     0.50490   0.16003   0.06773   0.00000  Uiso   1.00
C90    C     0.58933   0.16910   0.06496   0.00000  Uiso   1.00
C91    C     0.46155   0.15057   0.40473   0.00000  Uiso   1.00
H92    H     0.46746   0.16115   0.09030   0.00000  Uiso   1.00
H93    H     0.38471   0.14489   0.41165   0.00000  Uiso   1.00
H94    H     0.41922   0.13480   0.05354   0.00000  Uiso   1.00
H95    H     0.36174   0.12910   0.00463   0.00000  Uiso   1.00
H96    H     0.56088   0.13002   0.36716   0.00000  Uiso   1.00
C97    C     0.54403   0.31222   0.23320   0.00000  Uiso   1.00
H98    H     0.57825   0.29623   0.21917   0.00000  Uiso   1.00
C99    C     0.54387   0.02158   0.23313   0.00000  Uiso   1.00
H100   H     0.57809   0.03792   0.21945   0.00000  Uiso   1.00
C101   C     0.49980   0.04279   0.24990   0.00000  Uiso   1.00
C102   C     0.45596   0.02112   0.26703   0.00000  Uiso   1.00
H103   H     0.42176   0.03713   0.28110   0.00000  Uiso   1.00
C104   C     0.45612   0.31177   0.26708   0.00000  Uiso   1.00
H105   H     0.42190   0.29542   0.28077   0.00000  Uiso   1.00
C106   C     0.50019   0.29055   0.25026   0.00000  Uiso   1.00
C107   C     0.63641   0.19770   0.27459   0.00000  Uiso   1.00
C108   C     0.35251   0.19750   0.27413   0.00000  Uiso   1.00
H109   H     0.36645   0.22202   0.29387   0.00000  Uiso   1.00
N110   N     0.38265   0.16666   0.24999   0.00000  Uiso   1.00
C111   C     0.36338   0.13538   0.22592   0.00000  Uiso   1.00
C112   C     0.64740   0.13578   0.22602   0.00000  Uiso   1.00
H113   H     0.63336   0.11117   0.20651   0.00000  Uiso   1.00
N114   N     0.61735   0.16669   0.24999   0.00000  Uiso   1.00
N115   N     0.60717   0.23117   0.30107   0.00000  Uiso   1.00
O116   O     0.57666   0.22516   0.34634   0.00000  Uiso   1.00
O117   O     0.62121   0.26872   0.28817   0.00000  Uiso   1.00
N118   N     0.39198   0.10100   0.20115   0.00000  Uiso   1.00
O119   O     0.37625   0.06390   0.21442   0.00000  Uiso   1.00
O120   O     0.42438   0.10587   0.15683   0.00000  Uiso   1.00
O121   O     0.79375   0.22678   0.25001   0.00000  Uiso   1.00
O122   O     0.87294   0.22679   0.25000   0.00000  Uiso   1.00
C123   C     0.83348   0.24590   0.25014   0.00000  Uiso   1.00
O124   O     0.77441   0.16665   0.32549   0.00000  Uiso   1.00
O125   O     0.85360   0.16666   0.32549   0.00000  Uiso   1.00
C126   C     0.80800   0.16167   0.34923   0.00000  Uiso   1.00
Cu127  Cu    0.78645   0.16666   0.25000   0.00000  Uiso   1.00
Cu128  Cu    0.88022   0.16667   0.25000   0.00000  Uiso   1.00
O129   O     0.79373   0.10654   0.24999   0.00000  Uiso   1.00
O130   O     0.87292   0.10655   0.24999   0.00000  Uiso   1.00
O131   O     0.81306   0.16667   0.17451   0.00000  Uiso   1.00
O132   O     0.89225   0.16668   0.17451   0.00000  Uiso   1.00
C133   C     0.83318   0.08743   0.24991   0.00000  Uiso   1.00
C134   C     0.85915   0.16712   0.15021   0.00000  Uiso   1.00
C135   C     0.93574   0.16499   0.01125   0.00000  Uiso   1.00
H136   H     0.95063   0.17494   0.08403   0.00000  Uiso   1.00
H137   H     0.95320   0.14487   0.41173   0.00000  Uiso   1.00
H138   H     0.97316   0.16924   0.48921   0.00000  Uiso   1.00
C139   C     0.87382   0.16573   0.09350   0.00000  Uiso   1.00
C140   C     0.74583   0.14449   0.43164   0.00000  Uiso   1.00
C141   C     0.73219   0.13677   0.48451   0.00000  Uiso   1.00
C142   C     0.76597   0.13981   0.01241   0.00000  Uiso   1.00
C143   C     0.81550   0.14691   0.48691   0.00000  Uiso   1.00
C144   C     0.83054   0.14632   0.43197   0.00000  Uiso   1.00
C145   C     0.85088   0.15362   0.01392   0.00000  Uiso   1.00
C146   C     0.90067   0.15556   0.48588   0.00000  Uiso   1.00
C147   C     0.91507   0.14700   0.43296   0.00000  Uiso   1.00
C148   C     0.88053   0.14073   0.40676   0.00000  Uiso   1.00
C149   C     0.83824   0.16003   0.06773   0.00000  Uiso   1.00
C150   C     0.92266   0.16910   0.06496   0.00000  Uiso   1.00
C151   C     0.79489   0.15057   0.40473   0.00000  Uiso   1.00
H152   H     0.80080   0.16115   0.09030   0.00000  Uiso   1.00
H153   H     0.71804   0.14489   0.41165   0.00000  Uiso   1.00
H154   H     0.75255   0.13480   0.05354   0.00000  Uiso   1.00
H155   H     0.69507   0.12910   0.00463   0.00000  Uiso   1.00
H156   H     0.89422   0.13002   0.36716   0.00000  Uiso   1.00
C157   C     0.87737   0.31222   0.23320   0.00000  Uiso   1.00
H158   H     0.91159   0.29623   0.21917   0.00000  Uiso   1.00
C159   C     0.87720   0.02158   0.23313   0.00000  Uiso   1.00
H160   H     0.91142   0.03792   0.21945   0.00000  Uiso   1.00
C161   C     0.83313   0.04279   0.24990   0.00000  Uiso   1.00
C162   C     0.78930   0.02112   0.26703   0.00000  Uiso   1.00
H163   H     0.75509   0.03713   0.28110   0.00000  Uiso   1.00
C164   C     0.78946   0.31177   0.26708   0.00000  Uiso   1.00
H165   H     0.75524   0.29542   0.28077   0.00000  Uiso   1.00
C166   C     0.83352   0.29055   0.25026   0.00000  Uiso   1.00
C167   C     0.96974   0.19770   0.27459   0.00000  Uiso   1.00
C168   C     0.68585   0.19750   0.27413   0.00000  Uiso   1.00
H169   H     0.69979   0.22202   0.29387   0.00000  Uiso   1.00
N170   N     0.71598   0.16666   0.24999   0.00000  Uiso   1.00
C171   C     0.69672   0.13538   0.22592   0.00000  Uiso   1.00
C172   C     0.98073   0.13578   0.22602   0.00000  Uiso   1.00
H173   H     0.96670   0.11117   0.20651   0.00000  Uiso   1.00
N174   N     0.95069   0.16669   0.24999   0.00000  Uiso   1.00
N175   N     0.94050   0.23117   0.30107   0.00000  Uiso   1.00
O176   O     0.90999   0.22516   0.34634   0.00000  Uiso   1.00
O177   O     0.95455   0.26872   0.28817   0.00000  Uiso   1.00
N178   N     0.72531   0.10100   0.20115   0.00000  Uiso   1.00
O179   O     0.70958   0.06390   0.21442   0.00000  Uiso   1.00
O180   O     0.75772   0.10587   0.15683   0.00000  Uiso   1.00
O181   O     0.12708   0.56011   0.25001   0.00000  Uiso   1.00
O182   O     0.20627   0.56012   0.25000   0.00000  Uiso   1.00
C183   C     0.16681   0.57923   0.25014   0.00000  Uiso   1.00
O184   O     0.10775   0.49998   0.32549   0.00000  Uiso   1.00
O185   O     0.18694   0.49999   0.32549   0.00000  Uiso   1.00
C186   C     0.14134   0.49500   0.34923   0.00000  Uiso   1.00
Cu187  Cu    0.11978   0.49999   0.25000   0.00000  Uiso   1.00
Cu188  Cu    0.21355   0.50001   0.25000   0.00000  Uiso   1.00
O189   O     0.12706   0.43988   0.24999   0.00000  Uiso   1.00
O190   O     0.20625   0.43989   0.24999   0.00000  Uiso   1.00
O191   O     0.14640   0.50001   0.17451   0.00000  Uiso   1.00
O192   O     0.22559   0.50002   0.17451   0.00000  Uiso   1.00
C193   C     0.16651   0.42077   0.24991   0.00000  Uiso   1.00
C194   C     0.19248   0.50045   0.15021   0.00000  Uiso   1.00
C195   C     0.26907   0.49832   0.01125   0.00000  Uiso   1.00
H196   H     0.28396   0.50827   0.08403   0.00000  Uiso   1.00
H197   H     0.28653   0.47820   0.41173   0.00000  Uiso   1.00
H198   H     0.30649   0.50257   0.48921   0.00000  Uiso   1.00
C199   C     0.20715   0.49906   0.09350   0.00000  Uiso   1.00
C200   C     0.07917   0.47783   0.43164   0.00000  Uiso   1.00
C201   C     0.06552   0.47011   0.48451   0.00000  Uiso   1.00
C202   C     0.09930   0.47315   0.01241   0.00000  Uiso   1.00
C203   C     0.14883   0.48024   0.48691   0.00000  Uiso   1.00
C204   C     0.16388   0.47966   0.43197   0.00000  Uiso   1.00
C205   C     0.18421   0.48695   0.01392   0.00000  Uiso   1.00
C206   C     0.23401   0.48890   0.48588   0.00000  Uiso   1.00
C207   C     0.24841   0.48034   0.43296   0.00000  Uiso   1.00
C208   C     0.21387   0.47406   0.40676   0.00000  Uiso   1.00
C209   C     0.17157   0.49337   0.06773   0.00000  Uiso   1.00
C210   C     0.25599   0.50243   0.06496   0.00000  Uiso   1.00
C211   C     0.12822   0.48390   0.40473   0.00000  Uiso   1.00
H212   H     0.13413   0.49449   0.09030   0.00000  Uiso   1.00
H213   H     0.05138   0.47822   0.41165   0.00000  Uiso   1.00
H214   H     0.08588   0.46813   0.05354   0.00000  Uiso   1.00
H215   H     0.02840   0.46243   0.00463   0.00000  Uiso   1.00
H216   H     0.22755   0.46335   0.36716   0.00000  Uiso   1.00
C217   C     0.21070   0.64556   0.23320   0.00000  Uiso   1.00
H218   H     0.24492   0.62956   0.21917   0.00000  Uiso   1.00
C219   C     0.21053   0.35491   0.23313   0.00000  Uiso   1.00
H220   H     0.24476   0.37126   0.21945   0.00000  Uiso   1.00
C221   C     0.16647   0.37613   0.24990   0.00000  Uiso   1.00
C222   C     0.12263   0.35446   0.26703   0.00000  Uiso   1.00
H223   H     0.08842   0.37046   0.28110   0.00000  Uiso   1.00
C224   C     0.12279   0.64510   0.26708   0.00000  Uiso   1.00
H225   H     0.08857   0.62875   0.28077   0.00000  Uiso   1.00
C226   C     0.16685   0.62388   0.25026   0.00000  Uiso   1.00
C227   C     0.30307   0.53103   0.27459   0.00000  Uiso   1.00
C228   C     0.01918   0.53083   0.27413   0.00000  Uiso   1.00
H229   H     0.03312   0.55535   0.29387   0.00000  Uiso   1.00
N230   N     0.04931   0.49999   0.24999   0.00000  Uiso   1.00
C231   C     0.03005   0.46871   0.22592   0.00000  Uiso   1.00
C232   C     0.31407   0.46911   0.22602   0.00000  Uiso   1.00
H233   H     0.30003   0.44451   0.20651   0.00000  Uiso   1.00
N234   N     0.28402   0.50002   0.24999   0.00000  Uiso   1.00
N235   N     0.27383   0.56450   0.30107   0.00000  Uiso   1.00
O236   O     0.24333   0.55849   0.34634   0.00000  Uiso   1.00
O237   O     0.28788   0.60205   0.28817   0.00000  Uiso   1.00
N238   N     0.05864   0.43433   0.20115   0.00000  Uiso   1.00
O239   O     0.04291   0.39723   0.21442   0.00000  Uiso   1.00
O240   O     0.09105   0.43920   0.15683   0.00000  Uiso   1.00
O241   O     0.46042   0.56011   0.25001   0.00000  Uiso   1.00
O242   O     0.53961   0.56012   0.25000   0.00000  Uiso   1.00
C243   C     0.50015   0.57923   0.25014   0.00000  Uiso   1.00
O244   O     0.44108   0.49998   0.32549   0.00000  Uiso   1.00
O245   O     0.52027   0.49999   0.32549   0.00000  Uiso   1.00
C246   C     0.47467   0.49500   0.34923   0.00000  Uiso   1.00
Cu247  Cu    0.45311   0.49999   0.25000   0.00000  Uiso   1.00
Cu248  Cu    0.54689   0.50001   0.25000   0.00000  Uiso   1.00
O249   O     0.46039   0.43988   0.24999   0.00000  Uiso   1.00
O250   O     0.53958   0.43989   0.24999   0.00000  Uiso   1.00
O251   O     0.47973   0.50001   0.17451   0.00000  Uiso   1.00
O252   O     0.55892   0.50002   0.17451   0.00000  Uiso   1.00
C253   C     0.49985   0.42077   0.24991   0.00000  Uiso   1.00
C254   C     0.52582   0.50045   0.15021   0.00000  Uiso   1.00
C255   C     0.60241   0.49832   0.01125   0.00000  Uiso   1.00
H256   H     0.61730   0.50827   0.08403   0.00000  Uiso   1.00
H257   H     0.61987   0.47820   0.41173   0.00000  Uiso   1.00
H258   H     0.63982   0.50257   0.48921   0.00000  Uiso   1.00
C259   C     0.54048   0.49906   0.09350   0.00000  Uiso   1.00
C260   C     0.41250   0.47783   0.43164   0.00000  Uiso   1.00
C261   C     0.39885   0.47011   0.48451   0.00000  Uiso   1.00
C262   C     0.43263   0.47315   0.01241   0.00000  Uiso   1.00
C263   C     0.48217   0.48024   0.48691   0.00000  Uiso   1.00
C264   C     0.49721   0.47966   0.43197   0.00000  Uiso   1.00
C265   C     0.51754   0.48695   0.01392   0.00000  Uiso   1.00
C266   C     0.56734   0.48890   0.48588   0.00000  Uiso   1.00
C267   C     0.58174   0.48034   0.43296   0.00000  Uiso   1.00
C268   C     0.54720   0.47406   0.40676   0.00000  Uiso   1.00
C269   C     0.50490   0.49337   0.06773   0.00000  Uiso   1.00
C270   C     0.58933   0.50243   0.06496   0.00000  Uiso   1.00
C271   C     0.46155   0.48390   0.40473   0.00000  Uiso   1.00
H272   H     0.46746   0.49449   0.09030   0.00000  Uiso   1.00
H273   H     0.38471   0.47822   0.41165   0.00000  Uiso   1.00
H274   H     0.41922   0.46813   0.05354   0.00000  Uiso   1.00
H275   H     0.36174   0.46243   0.00463   0.00000  Uiso   1.00
H276   H     0.56088   0.46335   0.36716   0.00000  Uiso   1.00
C277   C     0.54403   0.64556   0.23320   0.00000  Uiso   1.00
H278   H     0.57825   0.62956   0.21917   0.00000  Uiso   1.00
C279   C     0.54387   0.35491   0.23313   0.00000  Uiso   1.00
H280   H     0.57809   0.37126   0.21945   0.00000  Uiso   1.00
C281   C     0.49980   0.37613   0.24990   0.00000  Uiso   1.00
C282   C     0.45596   0.35446   0.26703   0.00000  Uiso   1.00
H283   H     0.42176   0.37046   0.28110   0.00000  Uiso   1.00
C284   C     0.45612   0.64510   0.26708   0.00000  Uiso   1.00
H285   H     0.42190   0.62875   0.28077   0.00000  Uiso   1.00
C286   C     0.50019   0.62388   0.25026   0.00000  Uiso   1.00
C287   C     0.63641   0.53103   0.27459   0.00000  Uiso   1.00
C288   C     0.35251   0.53083   0.27413   0.00000  Uiso   1.00
H289   H     0.36645   0.55535   0.29387   0.00000  Uiso   1.00
N290   N     0.38265   0.49999   0.24999   0.00000  Uiso   1.00
C291   C     0.36338   0.46871   0.22592   0.00000  Uiso   1.00
C292   C     0.64740   0.46911   0.22602   0.00000  Uiso   1.00
H293   H     0.63336   0.44451   0.20651   0.00000  Uiso   1.00
N294   N     0.61735   0.50002   0.24999   0.00000  Uiso   1.00
N295   N     0.60717   0.56450   0.30107   0.00000  Uiso   1.00
O296   O     0.57666   0.55849   0.34634   0.00000  Uiso   1.00
O297   O     0.62121   0.60205   0.28817   0.00000  Uiso   1.00
N298   N     0.39198   0.43433   0.20115   0.00000  Uiso   1.00
O299   O     0.37625   0.39723   0.21442   0.00000  Uiso   1.00
O300   O     0.42438   0.43920   0.15683   0.00000  Uiso   1.00
O301   O     0.79375   0.56011   0.25001   0.00000  Uiso   1.00
O302   O     0.87294   0.56012   0.25000   0.00000  Uiso   1.00
C303   C     0.83348   0.57923   0.25014   0.00000  Uiso   1.00
O304   O     0.77441   0.49998   0.32549   0.00000  Uiso   1.00
O305   O     0.85360   0.49999   0.32549   0.00000  Uiso   1.00
C306   C     0.80800   0.49500   0.34923   0.00000  Uiso   1.00
Cu307  Cu    0.78645   0.49999   0.25000   0.00000  Uiso   1.00
Cu308  Cu    0.88022   0.50001   0.25000   0.00000  Uiso   1.00
O309   O     0.79373   0.43988   0.24999   0.00000  Uiso   1.00
O310   O     0.87292   0.43989   0.24999   0.00000  Uiso   1.00
O311   O     0.81306   0.50001   0.17451   0.00000  Uiso   1.00
O312   O     0.89225   0.50002   0.17451   0.00000  Uiso   1.00
C313   C     0.83318   0.42077   0.24991   0.00000  Uiso   1.00
C314   C     0.85915   0.50045   0.15021   0.00000  Uiso   1.00
C315   C     0.93574   0.49832   0.01125   0.00000  Uiso   1.00
H316   H     0.95063   0.50827   0.08403   0.00000  Uiso   1.00
H317   H     0.95320   0.47820   0.41173   0.00000  Uiso   1.00
H318   H     0.97316   0.50257   0.48921   0.00000  Uiso   1.00
C319   C     0.87382   0.49906   0.09350   0.00000  Uiso   1.00
C320   C     0.74583   0.47783   0.43164   0.00000  Uiso   1.00
C321   C     0.73219   0.47011   0.48451   0.00000  Uiso   1.00
C322   C     0.76597   0.47315   0.01241   0.00000  Uiso   1.00
C323   C     0.81550   0.48024   0.48691   0.00000  Uiso   1.00
C324   C     0.83054   0.47966   0.43197   0.00000  Uiso   1.00
C325   C     0.85088   0.48695   0.01392   0.00000  Uiso   1.00
C326   C     0.90067   0.48890   0.48588   0.00000  Uiso   1.00
C327   C     0.91507   0.48034   0.43296   0.00000  Uiso   1.00
C328   C     0.88053   0.47406   0.40676   0.00000  Uiso   1.00
C329   C     0.83824   0.49337   0.06773   0.00000  Uiso   1.00
C330   C     0.92266   0.50243   0.06496   0.00000  Uiso   1.00
C331   C     0.79489   0.48390   0.40473   0.00000  Uiso   1.00
H332   H     0.80080   0.49449   0.09030   0.00000  Uiso   1.00
H333   H     0.71804   0.47822   0.41165   0.00000  Uiso   1.00
H334   H     0.75255   0.46813   0.05354   0.00000  Uiso   1.00
H335   H     0.69507   0.46243   0.00463   0.00000  Uiso   1.00
H336   H     0.89422   0.46335   0.36716   0.00000  Uiso   1.00
C337   C     0.87737   0.64556   0.23320   0.00000  Uiso   1.00
H338   H     0.91159   0.62956   0.21917   0.00000  Uiso   1.00
C339   C     0.87720   0.35491   0.23313   0.00000  Uiso   1.00
H340   H     0.91142   0.37126   0.21945   0.00000  Uiso   1.00
C341   C     0.83313   0.37613   0.24990   0.00000  Uiso   1.00
C342   C     0.78930   0.35446   0.26703   0.00000  Uiso   1.00
H343   H     0.75509   0.37046   0.28110   0.00000  Uiso   1.00
C344   C     0.78946   0.64510   0.26708   0.00000  Uiso   1.00
H345   H     0.75524   0.62875   0.28077   0.00000  Uiso   1.00
C346   C     0.83352   0.62388   0.25026   0.00000  Uiso   1.00
C347   C     0.96974   0.53103   0.27459   0.00000  Uiso   1.00
C348   C     0.68585   0.53083   0.27413   0.00000  Uiso   1.00
H349   H     0.69979   0.55535   0.29387   0.00000  Uiso   1.00
N350   N     0.71598   0.49999   0.24999   0.00000  Uiso   1.00
C351   C     0.69672   0.46871   0.22592   0.00000  Uiso   1.00
C352   C     0.98073   0.46911   0.22602   0.00000  Uiso   1.00
H353   H     0.96670   0.44451   0.20651   0.00000  Uiso   1.00
N354   N     0.95069   0.50002   0.24999   0.00000  Uiso   1.00
N355   N     0.94050   0.56450   0.30107   0.00000  Uiso   1.00
O356   O     0.90999   0.55849   0.34634   0.00000  Uiso   1.00
O357   O     0.95455   0.60205   0.28817   0.00000  Uiso   1.00
N358   N     0.72531   0.43433   0.20115   0.00000  Uiso   1.00
O359   O     0.70958   0.39723   0.21442   0.00000  Uiso   1.00
O360   O     0.75772   0.43920   0.15683   0.00000  Uiso   1.00
O361   O     0.12708   0.89345   0.25001   0.00000  Uiso   1.00
O362   O     0.20627   0.89346   0.25000   0.00000  Uiso   1.00
C363   C     0.16681   0.91256   0.25014   0.00000  Uiso   1.00
O364   O     0.10775   0.83332   0.32549   0.00000  Uiso   1.00
O365   O     0.18694   0.83333   0.32549   0.00000  Uiso   1.00
C366   C     0.14134   0.82834   0.34923   0.00000  Uiso   1.00
Cu367  Cu    0.11978   0.83333   0.25000   0.00000  Uiso   1.00
Cu368  Cu    0.21355   0.83334   0.25000   0.00000  Uiso   1.00
O369   O     0.12706   0.77321   0.24999   0.00000  Uiso   1.00
O370   O     0.20625   0.77322   0.24999   0.00000  Uiso   1.00
O371   O     0.14640   0.83334   0.17451   0.00000  Uiso   1.00
O372   O     0.22559   0.83335   0.17451   0.00000  Uiso   1.00
C373   C     0.16651   0.75410   0.24991   0.00000  Uiso   1.00
C374   C     0.19248   0.83378   0.15021   0.00000  Uiso   1.00
C375   C     0.26907   0.83165   0.01125   0.00000  Uiso   1.00
H376   H     0.28396   0.84160   0.08403   0.00000  Uiso   1.00
H377   H     0.28653   0.81153   0.41173   0.00000  Uiso   1.00
H378   H     0.30649   0.83591   0.48921   0.00000  Uiso   1.00
C379   C     0.20715   0.83240   0.09350   0.00000  Uiso   1.00
C380   C     0.07917   0.81116   0.43164   0.00000  Uiso   1.00
C381   C     0.06552   0.80344   0.48451   0.00000  Uiso   1.00
C382   C     0.09930   0.80648   0.01241   0.00000  Uiso   1.00
C383   C     0.14883   0.81358   0.48691   0.00000  Uiso   1.00
C384   C     0.16388   0.81299   0.43197   0.00000  Uiso   1.00
C385   C     0.18421   0.82029   0.01392   0.00000  Uiso   1.00
C386   C     0.23401   0.82223   0.48588   0.00000  Uiso   1.00
C387   C     0.24841   0.81367   0.43296   0.00000  Uiso   1.00
C388   C     0.21387   0.80740   0.40676   0.00000  Uiso   1.00
C389   C     0.17157   0.82670   0.06773   0.00000  Uiso   1.00
C390   C     0.25599   0.83577   0.06496   0.00000  Uiso   1.00
C391   C     0.12822   0.81724   0.40473   0.00000  Uiso   1.00
H392   H     0.13413   0.82782   0.09030   0.00000  Uiso   1.00
H393   H     0.05138   0.81156   0.41165   0.00000  Uiso   1.00
H394   H     0.08588   0.80147   0.05354   0.00000  Uiso   1.00
H395   H     0.02840   0.79577   0.00463   0.00000  Uiso   1.00
H396   H     0.22755   0.79668   0.36716   0.00000  Uiso   1.00
C397   C     0.21070   0.97889   0.23320   0.00000  Uiso   1.00
H398   H     0.24492   0.96290   0.21917   0.00000  Uiso   1.00
C399   C     0.21053   0.68824   0.23313   0.00000  Uiso   1.00
H400   H     0.24476   0.70459   0.21945   0.00000  Uiso   1.00
C401   C     0.16647   0.70946   0.24990   0.00000  Uiso   1.00
C402   C     0.12263   0.68779   0.26703   0.00000  Uiso   1.00
H403   H     0.08842   0.70379   0.28110   0.00000  Uiso   1.00
C404   C     0.12279   0.97843   0.26708   0.00000  Uiso   1.00
H405   H     0.08857   0.96209   0.28077   0.00000  Uiso   1.00
C406   C     0.16685   0.95721   0.25026   0.00000  Uiso   1.00
C407   C     0.30307   0.86437   0.27459   0.00000  Uiso   1.00
C408   C     0.01918   0.86417   0.27413   0.00000  Uiso   1.00
H409   H     0.03312   0.88868   0.29387   0.00000  Uiso   1.00
N410   N     0.04931   0.83332   0.24999   0.00000  Uiso   1.00
C411   C     0.03005   0.80204   0.22592   0.00000  Uiso   1.00
C412   C     0.31407   0.80245   0.22602   0.00000  Uiso   1.00
H413   H     0.30003   0.77784   0.20651   0.00000  Uiso   1.00
N414   N     0.28402   0.83335   0.24999   0.00000  Uiso   1.00
N415   N     0.27383   0.89783   0.30107   0.00000  Uiso   1.00
O416   O     0.24333   0.89183   0.34634   0.00000  Uiso   1.00
O417   O     0.28788   0.93538   0.28817   0.00000  Uiso   1.00
N418   N     0.05864   0.76767   0.20115   0.00000  Uiso   1.00
O419   O     0.04291   0.73056   0.21442   0.00000  Uiso   1.00
O420   O     0.09105   0.77253   0.15683   0.00000  Uiso   1.00
O421   O     0.46042   0.89345   0.25001   0.00000  Uiso   1.00
O422   O     0.53961   0.89346   0.25000   0.00000  Uiso   1.00
C423   C     0.50015   0.91256   0.25014   0.00000  Uiso   1.00
O424   O     0.44108   0.83332   0.32549   0.00000  Uiso   1.00
O425   O     0.52027   0.83333   0.32549   0.00000  Uiso   1.00
C426   C     0.47467   0.82834   0.34923   0.00000  Uiso   1.00
Cu427  Cu    0.45311   0.83333   0.25000   0.00000  Uiso   1.00
Cu428  Cu    0.54689   0.83334   0.25000   0.00000  Uiso   1.00
O429   O     0.46039   0.77321   0.24999   0.00000  Uiso   1.00
O430   O     0.53958   0.77322   0.24999   0.00000  Uiso   1.00
O431   O     0.47973   0.83334   0.17451   0.00000  Uiso   1.00
O432   O     0.55892   0.83335   0.17451   0.00000  Uiso   1.00
C433   C     0.49985   0.75410   0.24991   0.00000  Uiso   1.00
C434   C     0.52582   0.83378   0.15021   0.00000  Uiso   1.00
C435   C     0.60241   0.83165   0.01125   0.00000  Uiso   1.00
H436   H     0.61730   0.84160   0.08403   0.00000  Uiso   1.00
H437   H     0.61987   0.81153   0.41173   0.00000  Uiso   1.00
H438   H     0.63982   0.83591   0.48921   0.00000  Uiso   1.00
C439   C     0.54048   0.83240   0.09350   0.00000  Uiso   1.00
C440   C     0.41250   0.81116   0.43164   0.00000  Uiso   1.00
C441   C     0.39885   0.80344   0.48451   0.00000  Uiso   1.00
C442   C     0.43263   0.80648   0.01241   0.00000  Uiso   1.00
C443   C     0.48217   0.81358   0.48691   0.00000  Uiso   1.00
C444   C     0.49721   0.81299   0.43197   0.00000  Uiso   1.00
C445   C     0.51754   0.82029   0.01392   0.00000  Uiso   1.00
C446   C     0.56734   0.82223   0.48588   0.00000  Uiso   1.00
C447   C     0.58174   0.81367   0.43296   0.00000  Uiso   1.00
C448   C     0.54720   0.80740   0.40676   0.00000  Uiso   1.00
C449   C     0.50490   0.82670   0.06773   0.00000  Uiso   1.00
C450   C     0.58933   0.83577   0.06496   0.00000  Uiso   1.00
C451   C     0.46155   0.81724   0.40473   0.00000  Uiso   1.00
H452   H     0.46746   0.82782   0.09030   0.00000  Uiso   1.00
H453   H     0.38471   0.81156   0.41165   0.00000  Uiso   1.00
H454   H     0.41922   0.80147   0.05354   0.00000  Uiso   1.00
H455   H     0.36174   0.79577   0.00463   0.00000  Uiso   1.00
H456   H     0.56088   0.79668   0.36716   0.00000  Uiso   1.00
C457   C     0.54403   0.97889   0.23320   0.00000  Uiso   1.00
H458   H     0.57825   0.96290   0.21917   0.00000  Uiso   1.00
C459   C     0.54387   0.68824   0.23313   0.00000  Uiso   1.00
H460   H     0.57809   0.70459   0.21945   0.00000  Uiso   1.00
C461   C     0.49980   0.70946   0.24990   0.00000  Uiso   1.00
C462   C     0.45596   0.68779   0.26703   0.00000  Uiso   1.00
H463   H     0.42176   0.70379   0.28110   0.00000  Uiso   1.00
C464   C     0.45612   0.97843   0.26708   0.00000  Uiso   1.00
H465   H     0.42190   0.96209   0.28077   0.00000  Uiso   1.00
C466   C     0.50019   0.95721   0.25026   0.00000  Uiso   1.00
C467   C     0.63641   0.86437   0.27459   0.00000  Uiso   1.00
C468   C     0.35251   0.86417   0.27413   0.00000  Uiso   1.00
H469   H     0.36645   0.88868   0.29387   0.00000  Uiso   1.00
N470   N     0.38265   0.83332   0.24999   0.00000  Uiso   1.00
C471   C     0.36338   0.80204   0.22592   0.00000  Uiso   1.00
C472   C     0.64740   0.80245   0.22602   0.00000  Uiso   1.00
H473   H     0.63336   0.77784   0.20651   0.00000  Uiso   1.00
N474   N     0.61735   0.83335   0.24999   0.00000  Uiso   1.00
N475   N     0.60717   0.89783   0.30107   0.00000  Uiso   1.00
O476   O     0.57666   0.89183   0.34634   0.00000  Uiso   1.00
O477   O     0.62121   0.93538   0.28817   0.00000  Uiso   1.00
N478   N     0.39198   0.76767   0.20115   0.00000  Uiso   1.00
O479   O     0.37625   0.73056   0.21442   0.00000  Uiso   1.00
O480   O     0.42438   0.77253   0.15683   0.00000  Uiso   1.00
O481   O     0.79375   0.89345   0.25001   0.00000  Uiso   1.00
O482   O     0.87294   0.89346   0.25000   0.00000  Uiso   1.00
C483   C     0.83348   0.91256   0.25014   0.00000  Uiso   1.00
O484   O     0.77441   0.83332   0.32549   0.00000  Uiso   1.00
O485   O     0.85360   0.83333   0.32549   0.00000  Uiso   1.00
C486   C     0.80800   0.82834   0.34923   0.00000  Uiso   1.00
Cu487  Cu    0.78645   0.83333   0.25000   0.00000  Uiso   1.00
Cu488  Cu    0.88022   0.83334   0.25000   0.00000  Uiso   1.00
O489   O     0.79373   0.77321   0.24999   0.00000  Uiso   1.00
O490   O     0.87292   0.77322   0.24999   0.00000  Uiso   1.00
O491   O     0.81306   0.83334   0.17451   0.00000  Uiso   1.00
O492   O     0.89225   0.83335   0.17451   0.00000  Uiso   1.00
C493   C     0.83318   0.75410   0.24991   0.00000  Uiso   1.00
C494   C     0.85915   0.83378   0.15021   0.00000  Uiso   1.00
C495   C     0.93574   0.83165   0.01125   0.00000  Uiso   1.00
H496   H     0.95063   0.84160   0.08403   0.00000  Uiso   1.00
H497   H     0.95320   0.81153   0.41173   0.00000  Uiso   1.00
H498   H     0.97316   0.83591   0.48921   0.00000  Uiso   1.00
C499   C     0.87382   0.83240   0.09350   0.00000  Uiso   1.00
C500   C     0.74583   0.81116   0.43164   0.00000  Uiso   1.00
C501   C     0.73219   0.80344   0.48451   0.00000  Uiso   1.00
C502   C     0.76597   0.80648   0.01241   0.00000  Uiso   1.00
C503   C     0.81550   0.81358   0.48691   0.00000  Uiso   1.00
C504   C     0.83054   0.81299   0.43197   0.00000  Uiso   1.00
C505   C     0.85088   0.82029   0.01392   0.00000  Uiso   1.00
C506   C     0.90067   0.82223   0.48588   0.00000  Uiso   1.00
C507   C     0.91507   0.81367   0.43296   0.00000  Uiso   1.00
C508   C     0.88053   0.80740   0.40676   0.00000  Uiso   1.00
C509   C     0.83824   0.82670   0.06773   0.00000  Uiso   1.00
C510   C     0.92266   0.83577   0.06496   0.00000  Uiso   1.00
C511   C     0.79489   0.81724   0.40473   0.00000  Uiso   1.00
H512   H     0.80080   0.82782   0.09030   0.00000  Uiso   1.00
H513   H     0.71804   0.81156   0.41165   0.00000  Uiso   1.00
H514   H     0.75255   0.80147   0.05354   0.00000  Uiso   1.00
H515   H     0.69507   0.79577   0.00463   0.00000  Uiso   1.00
H516   H     0.89422   0.79668   0.36716   0.00000  Uiso   1.00
C517   C     0.87737   0.97889   0.23320   0.00000  Uiso   1.00
H518   H     0.91159   0.96290   0.21917   0.00000  Uiso   1.00
C519   C     0.87720   0.68824   0.23313   0.00000  Uiso   1.00
H520   H     0.91142   0.70459   0.21945   0.00000  Uiso   1.00
C521   C     0.83313   0.70946   0.24990   0.00000  Uiso   1.00
C522   C     0.78930   0.68779   0.26703   0.00000  Uiso   1.00
H523   H     0.75509   0.70379   0.28110   0.00000  Uiso   1.00
C524   C     0.78946   0.97843   0.26708   0.00000  Uiso   1.00
H525   H     0.75524   0.96209   0.28077   0.00000  Uiso   1.00
C526   C     0.83352   0.95721   0.25026   0.00000  Uiso   1.00
C527   C     0.96974   0.86437   0.27459   0.00000  Uiso   1.00
C528   C     0.68585   0.86417   0.27413   0.00000  Uiso   1.00
H529   H     0.69979   0.88868   0.29387   0.00000  Uiso   1.00
N530   N     0.71598   0.83332   0.24999   0.00000  Uiso   1.00
C531   C     0.69672   0.80204   0.22592   0.00000  Uiso   1.00
C532   C     0.98073   0.80245   0.22602   0.00000  Uiso   1.00
H533   H     0.96670   0.77784   0.20651   0.00000  Uiso   1.00
N534   N     0.95069   0.83335   0.24999   0.00000  Uiso   1.00
N535   N     0.94050   0.89783   0.30107   0.00000  Uiso   1.00
O536   O     0.90999   0.89183   0.34634   0.00000  Uiso   1.00
O537   O     0.95455   0.93538   0.28817   0.00000  Uiso   1.00
N538   N     0.72531   0.76767   0.20115   0.00000  Uiso   1.00
O539   O     0.70958   0.73056   0.21442   0.00000  Uiso   1.00
O540   O     0.75772   0.77253   0.15683   0.00000  Uiso   1.00
O541   O     0.12708   0.22678   0.75001   0.00000  Uiso   1.00
O542   O     0.20627   0.22679   0.75000   0.00000  Uiso   1.00
C543   C     0.16681   0.24590   0.75014   0.00000  Uiso   1.00
O544   O     0.10775   0.16665   0.82549   0.00000  Uiso   1.00
O545   O     0.18694   0.16666   0.82549   0.00000  Uiso   1.00
C546   C     0.14134   0.16167   0.84923   0.00000  Uiso   1.00
Cu547  Cu    0.11978   0.16666   0.75000   0.00000  Uiso   1.00
Cu548  Cu    0.21355   0.16667   0.75000   0.00000  Uiso   1.00
O549   O     0.12706   0.10654   0.74999   0.00000  Uiso   1.00
O550   O     0.20625   0.10655   0.74999   0.00000  Uiso   1.00
O551   O     0.14640   0.16667   0.67451   0.00000  Uiso   1.00
O552   O     0.22559   0.16668   0.67451   0.00000  Uiso   1.00
C553   C     0.16651   0.08743   0.74991   0.00000  Uiso   1.00
C554   C     0.19248   0.16712   0.65021   0.00000  Uiso   1.00
C555   C     0.26907   0.16499   0.51125   0.00000  Uiso   1.00
H556   H     0.28396   0.17494   0.58403   0.00000  Uiso   1.00
H557   H     0.28653   0.14487   0.91173   0.00000  Uiso   1.00
H558   H     0.30649   0.16924   0.98921   0.00000  Uiso   1.00
C559   C     0.20715   0.16573   0.59350   0.00000  Uiso   1.00
C560   C     0.07917   0.14449   0.93164   0.00000  Uiso   1.00
C561   C     0.06552   0.13677   0.98451   0.00000  Uiso   1.00
C562   C     0.09930   0.13981   0.51241   0.00000  Uiso   1.00
C563   C     0.14883   0.14691   0.98691   0.00000  Uiso   1.00
C564   C     0.16388   0.14632   0.93197   0.00000  Uiso   1.00
C565   C     0.18421   0.15362   0.51392   0.00000  Uiso   1.00
C566   C     0.23401   0.15556   0.98588   0.00000  Uiso   1.00
C567   C     0.24841   0.14700   0.93296   0.00000  Uiso   1.00
C568   C     0.21387   0.14073   0.90676   0.00000  Uiso   1.00
C569   C     0.17157   0.16003   0.56773   0.00000  Uiso   1.00
C570   C     0.25599   0.16910   0.56496   0.00000  Uiso   1.00
C571   C     0.12822   0.15057   0.90473   0.00000  Uiso   1.00
H572   H     0.13413   0.16115   0.59030   0.00000  Uiso   1.00
H573   H     0.05138   0.14489   0.91165   0.00000  Uiso   1.00
H574   H     0.08588   0.13480   0.55354   0.00000  Uiso   1.00
H575   H     0.02840   0.12910   0.50463   0.00000  Uiso   1.00
H576   H     0.22755   0.13002   0.86716   0.00000  Uiso   1.00
C577   C     0.21070   0.31222   0.73320   0.00000  Uiso   1.00
H578   H     0.24492   0.29623   0.71917   0.00000  Uiso   1.00
C579   C     0.21053   0.02158   0.73313   0.00000  Uiso   1.00
H580   H     0.24476   0.03792   0.71945   0.00000  Uiso   1.00
C581   C     0.16647   0.04279   0.74990   0.00000  Uiso   1.00
C582   C     0.12263   0.02112   0.76703   0.00000  Uiso   1.00
H583   H     0.08842   0.03713   0.78110   0.00000  Uiso   1.00
C584   C     0.12279   0.31177   0.76708   0.00000  Uiso   1.00
H585   H     0.08857   0.29542   0.78077   0.00000  Uiso   1.00
C586   C     0.16685   0.29055   0.75026   0.00000  Uiso   1.00
C587   C     0.30307   0.19770   0.77459   0.00000  Uiso   1.00
C588   C     0.01918   0.19750   0.77413   0.00000  Uiso   1.00
H589   H     0.03312   0.22202   0.79387   0.00000  Uiso   1.00
N590   N     0.04931   0.16666   0.74999   0.00000  Uiso   1.00
C591   C     0.03005   0.13538   0.72592   0.00000  Uiso   1.00
C592   C     0.31407   0.13578   0.72602   0.00000  Uiso   1.00
H593   H     0.30003   0.11117   0.70651   0.00000  Uiso   1.00
N594   N     0.28402   0.16669   0.74999   0.00000  Uiso   1.00
N595   N     0.27383   0.23117   0.80107   0.00000  Uiso   1.00
O596   O     0.24333   0.22516   0.84634   0.00000  Uiso   1.00
O597   O     0.28788   0.26872   0.78817   0.00000  Uiso   1.00
N598   N     0.05864   0.10100   0.70115   0.00000  Uiso   1.00
O599   O     0.04291   0.06390   0.71442   0.00000  Uiso   1.00
O600   O     0.09105   0.10587   0.65683   0.00000  Uiso   1.00
O601   O     0.46042   0.22678   0.75001   0.00000  Uiso   1.00
O602   O     0.53961   0.22679   0.75000   0.00000  Uiso   1.00
C603   C     0.50015   0.24590   0.75014   0.00000  Uiso   1.00
O604   O     0.44108   0.16665   0.82549   0.00000  Uiso   1.00
O605   O     0.52027   0.16666   0.82549   0.00000  Uiso   1.00
C606   C     0.47467   0.16167   0.84923   0.00000  Uiso   1.00
Cu607  Cu    0.45311   0.16666   0.75000   0.00000  Uiso   1.00
Cu608  Cu    0.54689   0.16667   0.75000   0.00000  Uiso   1.00
O609   O     0.46039   0.10654   0.74999   0.00000  Uiso   1.00
O610   O     0.53958   0.10655   0.74999   0.00000  Uiso   1.00
O611   O     0.47973   0.16667   0.67451   0.00000  Uiso   1.00
O612   O     0.55892   0.16668   0.67451   0.00000  Uiso   1.00
C613   C     0.49985   0.08743   0.74991   0.00000  Uiso   1.00
C614   C     0.52582   0.16712   0.65021   0.00000  Uiso   1.00
C615   C     0.60241   0.16499   0.51125   0.00000  Uiso   1.00
H616   H     0.61730   0.17494   0.58403   0.00000  Uiso   1.00
H617   H     0.61987   0.14487   0.91173   0.00000  Uiso   1.00
H618   H     0.63982   0.16924   0.98921   0.00000  Uiso   1.00
C619   C     0.54048   0.16573   0.59350   0.00000  Uiso   1.00
C620   C     0.41250   0.14449   0.93164   0.00000  Uiso   1.00
C621   C     0.39885   0.13677   0.98451   0.00000  Uiso   1.00
C622   C     0.43263   0.13981   0.51241   0.00000  Uiso   1.00
C623   C     0.48217   0.14691   0.98691   0.00000  Uiso   1.00
C624   C     0.49721   0.14632   0.93197   0.00000  Uiso   1.00
C625   C     0.51754   0.15362   0.51392   0.00000  Uiso   1.00
C626   C     0.56734   0.15556   0.98588   0.00000  Uiso   1.00
C627   C     0.58174   0.14700   0.93296   0.00000  Uiso   1.00
C628   C     0.54720   0.14073   0.90676   0.00000  Uiso   1.00
C629   C     0.50490   0.16003   0.56773   0.00000  Uiso   1.00
C630   C     0.58933   0.16910   0.56496   0.00000  Uiso   1.00
C631   C     0.46155   0.15057   0.90473   0.00000  Uiso   1.00
H632   H     0.46746   0.16115   0.59030   0.00000  Uiso   1.00
H633   H     0.38471   0.14489   0.91165   0.00000  Uiso   1.00
H634   H     0.41922   0.13480   0.55354   0.00000  Uiso   1.00
H635   H     0.36174   0.12910   0.50463   0.00000  Uiso   1.00
H636   H     0.56088   0.13002   0.86716   0.00000  Uiso   1.00
C637   C     0.54403   0.31222   0.73320   0.00000  Uiso   1.00
H638   H     0.57825   0.29623   0.71917   0.00000  Uiso   1.00
C639   C     0.54387   0.02158   0.73313   0.00000  Uiso   1.00
H640   H     0.57809   0.03792   0.71945   0.00000  Uiso   1.00
C641   C     0.49980   0.04279   0.74990   0.00000  Uiso   1.00
C642   C     0.45596   0.02112   0.76703   0.00000  Uiso   1.00
H643   H     0.42176   0.03713   0.78110   0.00000  Uiso   1.00
C644   C     0.45612   0.31177   0.76708   0.00000  Uiso   1.00
H645   H     0.42190   0.29542   0.78077   0.00000  Uiso   1.00
C646   C     0.50019   0.29055   0.75026   0.00000  Uiso   1.00
C647   C     0.63641   0.19770   0.77459   0.00000  Uiso   1.00
C648   C     0.35251   0.19750   0.77413   0.00000  Uiso   1.00
H649   H     0.36645   0.22202   0.79387   0.00000  Uiso   1.00
N650   N     0.38265   0.16666   0.74999   0.00000  Uiso   1.00
C651   C     0.36338   0.13538   0.72592   0.00000  Uiso   1.00
C652   C     0.64740   0.13578   0.72602   0.00000  Uiso   1.00
H653   H     0.63336   0.11117   0.70651   0.00000  Uiso   1.00
N654   N     0.61735   0.16669   0.74999   0.00000  Uiso   1.00
N655   N     0.60717   0.23117   0.80107   0.00000  Uiso   1.00
O656   O     0.57666   0.22516   0.84634   0.00000  Uiso   1.00
O657   O     0.62121   0.26872   0.78817   0.00000  Uiso   1.00
N658   N     0.39198   0.10100   0.70115   0.00000  Uiso   1.00
O659   O     0.37625   0.06390   0.71442   0.00000  Uiso   1.00
O660   O     0.42438   0.10587   0.65683   0.00000  Uiso   1.00
O661   O     0.79375   0.22678   0.75001   0.00000  Uiso   1.00
O662   O     0.87294   0.22679   0.75000   0.00000  Uiso   1.00
C663   C     0.83348   0.24590   0.75014   0.00000  Uiso   1.00
O664   O     0.77441   0.16665   0.82549   0.00000  Uiso   1.00
O665   O     0.85360   0.16666   0.82549   0.00000  Uiso   1.00
C666   C     0.80800   0.16167   0.84923   0.00000  Uiso   1.00
Cu667  Cu    0.78645   0.16666   0.75000   0.00000  Uiso   1.00
Cu668  Cu    0.88022   0.16667   0.75000   0.00000  Uiso   1.00
O669   O     0.79373   0.10654   0.74999   0.00000  Uiso   1.00
O670   O     0.87292   0.10655   0.74999   0.00000  Uiso   1.00
O671   O     0.81306   0.16667   0.67451   0.00000  Uiso   1.00
O672   O     0.89225   0.16668   0.67451   0.00000  Uiso   1.00
C673   C     0.83318   0.08743   0.74991   0.00000  Uiso   1.00
C674   C     0.85915   0.16712   0.65021   0.00000  Uiso   1.00
C675   C     0.93574   0.16499   0.51125   0.00000  Uiso   1.00
H676   H     0.95063   0.17494   0.58403   0.00000  Uiso   1.00
H677   H     0.95320   0.14487   0.91173   0.00000  Uiso   1.00
H678   H     0.97316   0.16924   0.98921   0.00000  Uiso   1.00
C679   C     0.87382   0.16573   0.59350   0.00000  Uiso   1.00
C680   C     0.74583   0.14449   0.93164   0.00000  Uiso   1.00
C681   C     0.73219   0.13677   0.98451   0.00000  Uiso   1.00
C682   C     0.76597   0.13981   0.51241   0.00000  Uiso   1.00
C683   C     0.81550   0.14691   0.98691   0.00000  Uiso   1.00
C684   C     0.83054   0.14632   0.93197   0.00000  Uiso   1.00
C685   C     0.85088   0.15362   0.51392   0.00000  Uiso   1.00
C686   C     0.90067   0.15556   0.98588   0.00000  Uiso   1.00
C687   C     0.91507   0.14700   0.93296   0.00000  Uiso   1.00
C688   C     0.88053   0.14073   0.90676   0.00000  Uiso   1.00
C689   C     0.83824   0.16003   0.56773   0.00000  Uiso   1.00
C690   C     0.92266   0.16910   0.56496   0.00000  Uiso   1.00
C691   C     0.79489   0.15057   0.90473   0.00000  Uiso   1.00
H692   H     0.80080   0.16115   0.59030   0.00000  Uiso   1.00
H693   H     0.71804   0.14489   0.91165   0.00000  Uiso   1.00
H694   H     0.75255   0.13480   0.55354   0.00000  Uiso   1.00
H695   H     0.69507   0.12910   0.50463   0.00000  Uiso   1.00
H696   H     0.89422   0.13002   0.86716   0.00000  Uiso   1.00
C697   C     0.87737   0.31222   0.73320   0.00000  Uiso   1.00
H698   H     0.91159   0.29623   0.71917   0.00000  Uiso   1.00
C699   C     0.87720   0.02158   0.73313   0.00000  Uiso   1.00
H700   H     0.91142   0.03792   0.71945   0.00000  Uiso   1.00
C701   C     0.83313   0.04279   0.74990   0.00000  Uiso   1.00
C702   C     0.78930   0.02112   0.76703   0.00000  Uiso   1.00
H703   H     0.75509   0.03713   0.78110   0.00000  Uiso   1.00
C704   C     0.78946   0.31177   0.76708   0.00000  Uiso   1.00
H705   H     0.75524   0.29542   0.78077   0.00000  Uiso   1.00
C706   C     0.83352   0.29055   0.75026   0.00000  Uiso   1.00
C707   C     0.96974   0.19770   0.77459   0.00000  Uiso   1.00
C708   C     0.68585   0.19750   0.77413   0.00000  Uiso   1.00
H709   H     0.69979   0.22202   0.79387   0.00000  Uiso   1.00
N710   N     0.71598   0.16666   0.74999   0.00000  Uiso   1.00
C711   C     0.69672   0.13538   0.72592   0.00000  Uiso   1.00
C712   C     0.98073   0.13578   0.72602   0.00000  Uiso   1.00
H713   H     0.96670   0.11117   0.70651   0.00000  Uiso   1.00
N714   N     0.95069   0.16669   0.74999   0.00000  Uiso   1.00
N715   N     0.94050   0.23117   0.80107   0.00000  Uiso   1.00
O716   O     0.90999   0.22516   0.84634   0.00000  Uiso   1.00
O717   O     0.95455   0.26872   0.78817   0.00000  Uiso   1.00
N718   N     0.72531   0.10100   0.70115   0.00000  Uiso   1.00
O719   O     0.70958   0.06390   0.71442   0.00000  Uiso   1.00
O720   O     0.75772   0.10587   0.65683   0.00000  Uiso   1.00
O721   O     0.12708   0.56011   0.75001   0.00000  Uiso   1.00
O722   O     0.20627   0.56012   0.75000   0.00000  Uiso   1.00
C723   C     0.16681   0.57923   0.75014   0.00000  Uiso   1.00
O724   O     0.10775   0.49998   0.82549   0.00000  Uiso   1.00
O725   O     0.18694   0.49999   0.82549   0.00000  Uiso   1.00
C726   C     0.14134   0.49500   0.84923   0.00000  Uiso   1.00
Cu727  Cu    0.11978   0.49999   0.75000   0.00000  Uiso   1.00
Cu728  Cu    0.21355   0.50001   0.75000   0.00000  Uiso   1.00
O729   O     0.12706   0.43988   0.74999   0.00000  Uiso   1.00
O730   O     0.20625   0.43989   0.74999   0.00000  Uiso   1.00
O731   O     0.14640   0.50001   0.67451   0.00000  Uiso   1.00
O732   O     0.22559   0.50002   0.67451   0.00000  Uiso   1.00
C733   C     0.16651   0.42077   0.74991   0.00000  Uiso   1.00
C734   C     0.19248   0.50045   0.65021   0.00000  Uiso   1.00
C735   C     0.26907   0.49832   0.51125   0.00000  Uiso   1.00
H736   H     0.28396   0.50827   0.58403   0.00000  Uiso   1.00
H737   H     0.28653   0.47820   0.91173   0.00000  Uiso   1.00
H738   H     0.30649   0.50257   0.98921   0.00000  Uiso   1.00
C739   C     0.20715   0.49906   0.59350   0.00000  Uiso   1.00
C740   C     0.07917   0.47783   0.93164   0.00000  Uiso   1.00
C741   C     0.06552   0.47011   0.98451   0.00000  Uiso   1.00
C742   C     0.09930   0.47315   0.51241   0.00000  Uiso   1.00
C743   C     0.14883   0.48024   0.98691   0.00000  Uiso   1.00
C744   C     0.16388   0.47966   0.93197   0.00000  Uiso   1.00
C745   C     0.18421   0.48695   0.51392   0.00000  Uiso   1.00
C746   C     0.23401   0.48890   0.98588   0.00000  Uiso   1.00
C747   C     0.24841   0.48034   0.93296   0.00000  Uiso   1.00
C748   C     0.21387   0.47406   0.90676   0.00000  Uiso   1.00
C749   C     0.17157   0.49337   0.56773   0.00000  Uiso   1.00
C750   C     0.25599   0.50243   0.56496   0.00000  Uiso   1.00
C751   C     0.12822   0.48390   0.90473   0.00000  Uiso   1.00
H752   H     0.13413   0.49449   0.59030   0.00000  Uiso   1.00
H753   H     0.05138   0.47822   0.91165   0.00000  Uiso   1.00
H754   H     0.08588   0.46813   0.55354   0.00000  Uiso   1.00
H755   H     0.02840   0.46243   0.50463   0.00000  Uiso   1.00
H756   H     0.22755   0.46335   0.86716   0.00000  Uiso   1.00
C757   C     0.21070   0.64556   0.73320   0.00000  Uiso   1.00
H758   H     0.24492   0.62956   0.71917   0.00000  Uiso   1.00
C759   C     0.21053   0.35491   0.73313   0.00000  Uiso   1.00
H760   H     0.24476   0.37126   0.71945   0.00000  Uiso   1.00
C761   C     0.16647   0.37613   0.74990   0.00000  Uiso   1.00
C762   C     0.12263   0.35446   0.76703   0.00000  Uiso   1.00
H763   H     0.08842   0.37046   0.78110   0.00000  Uiso   1.00
C764   C     0.12279   0.64510   0.76708   0.00000  Uiso   1.00
H765   H     0.08857   0.62875   0.78077   0.00000  Uiso   1.00
C766   C     0.16685   0.62388   0.75026   0.00000  Uiso   1.00
C767   C     0.30307   0.53103   0.77459   0.00000  Uiso   1.00
C768   C     0.01918   0.53083   0.77413   0.00000  Uiso   1.00
H769   H     0.03312   0.55535   0.79387   0.00000  Uiso   1.00
N770   N     0.04931   0.49999   0.74999   0.00000  Uiso   1.00
C771   C     0.03005   0.46871   0.72592   0.00000  Uiso   1.00
C772   C     0.31407   0.46911   0.72602   0.00000  Uiso   1.00
H773   H     0.30003   0.44451   0.70651   0.00000  Uiso   1.00
N774   N     0.28402   0.50002   0.74999   0.00000  Uiso   1.00
N775   N     0.27383   0.56450   0.80107   0.00000  Uiso   1.00
O776   O     0.24333   0.55849   0.84634   0.00000  Uiso   1.00
O777   O     0.28788   0.60205   0.78817   0.00000  Uiso   1.00
N778   N     0.05864   0.43433   0.70115   0.00000  Uiso   1.00
O779   O     0.04291   0.39723   0.71442   0.00000  Uiso   1.00
O780   O     0.09105   0.43920   0.65683   0.00000  Uiso   1.00
O781   O     0.46042   0.56011   0.75001   0.00000  Uiso   1.00
O782   O     0.53961   0.56012   0.75000   0.00000  Uiso   1.00
C783   C     0.50015   0.57923   0.75014   0.00000  Uiso   1.00
O784   O     0.44108   0.49998   0.82549   0.00000  Uiso   1.00
O785   O     0.52027   0.49999   0.82549   0.00000  Uiso   1.00
C786   C     0.47467   0.49500   0.84923   0.00000  Uiso   1.00
Cu787  Cu    0.45311   0.49999   0.75000   0.00000  Uiso   1.00
Cu788  Cu    0.54689   0.50001   0.75000   0.00000  Uiso   1.00
O789   O     0.46039   0.43988   0.74999   0.00000  Uiso   1.00
O790   O     0.53958   0.43989   0.74999   0.00000  Uiso   1.00
O791   O     0.47973   0.50001   0.67451   0.00000  Uiso   1.00
O792   O     0.55892   0.50002   0.67451   0.00000  Uiso   1.00
C793   C     0.49985   0.42077   0.74991   0.00000  Uiso   1.00
C794   C     0.52582   0.50045   0.65021   0.00000  Uiso   1.00
C795   C     0.60241   0.49832   0.51125   0.00000  Uiso   1.00
H796   H     0.61730   0.50827   0.58403   0.00000  Uiso   1.00
H797   H     0.61987   0.47820   0.91173   0.00000  Uiso   1.00
H798   H     0.63982   0.50257   0.98921   0.00000  Uiso   1.00
C799   C     0.54048   0.49906   0.59350   0.00000  Uiso   1.00
C800   C     0.41250   0.47783   0.93164   0.00000  Uiso   1.00
C801   C     0.39885   0.47011   0.98451   0.00000  Uiso   1.00
C802   C     0.43263   0.47315   0.51241   0.00000  Uiso   1.00
C803   C     0.48217   0.48024   0.98691   0.00000  Uiso   1.00
C804   C     0.49721   0.47966   0.93197   0.00000  Uiso   1.00
C805   C     0.51754   0.48695   0.51392   0.00000  Uiso   1.00
C806   C     0.56734   0.48890   0.98588   0.00000  Uiso   1.00
C807   C     0.58174   0.48034   0.93296   0.00000  Uiso   1.00
C808   C     0.54720   0.47406   0.90676   0.00000  Uiso   1.00
C809   C     0.50490   0.49337   0.56773   0.00000  Uiso   1.00
C810   C     0.58933   0.50243   0.56496   0.00000  Uiso   1.00
C811   C     0.46155   0.48390   0.90473   0.00000  Uiso   1.00
H812   H     0.46746   0.49449   0.59030   0.00000  Uiso   1.00
H813   H     0.38471   0.47822   0.91165   0.00000  Uiso   1.00
H814   H     0.41922   0.46813   0.55354   0.00000  Uiso   1.00
H815   H     0.36174   0.46243   0.50463   0.00000  Uiso   1.00
H816   H     0.56088   0.46335   0.86716   0.00000  Uiso   1.00
C817   C     0.54403   0.64556   0.73320   0.00000  Uiso   1.00
H818   H     0.57825   0.62956   0.71917   0.00000  Uiso   1.00
C819   C     0.54387   0.35491   0.73313   0.00000  Uiso   1.00
H820   H     0.57809   0.37126   0.71945   0.00000  Uiso   1.00
C821   C     0.49980   0.37613   0.74990   0.00000  Uiso   1.00
C822   C     0.45596   0.35446   0.76703   0.00000  Uiso   1.00
H823   H     0.42176   0.37046   0.78110   0.00000  Uiso   1.00
C824   C     0.45612   0.64510   0.76708   0.00000  Uiso   1.00
H825   H     0.42190   0.62875   0.78077   0.00000  Uiso   1.00
C826   C     0.50019   0.62388   0.75026   0.00000  Uiso   1.00
C827   C     0.63641   0.53103   0.77459   0.00000  Uiso   1.00
C828   C     0.35251   0.53083   0.77413   0.00000  Uiso   1.00
H829   H     0.36645   0.55535   0.79387   0.00000  Uiso   1.00
N830   N     0.38265   0.49999   0.74999   0.00000  Uiso   1.00
C831   C     0.36338   0.46871   0.72592   0.00000  Uiso   1.00
C832   C     0.64740   0.46911   0.72602   0.00000  Uiso   1.00
H833   H     0.63336   0.44451   0.70651   0.00000  Uiso   1.00
N834   N     0.61735   0.50002   0.74999   0.00000  Uiso   1.00
N835   N     0.60717   0.56450   0.80107   0.00000  Uiso   1.00
O836   O     0.57666   0.55849   0.84634   0.00000  Uiso   1.00
O837   O     0.62121   0.60205   0.78817   0.00000  Uiso   1.00
N838   N     0.39198   0.43433   0.70115   0.00000  Uiso   1.00
O839   O     0.37625   0.39723   0.71442   0.00000  Uiso   1.00
O840   O     0.42438   0.43920   0.65683   0.00000  Uiso   1.00
O841   O     0.79375   0.56011   0.75001   0.00000  Uiso   1.00
O842   O     0.87294   0.56012   0.75000   0.00000  Uiso   1.00
C843   C     0.83348   0.57923   0.75014   0.00000  Uiso   1.00
O844   O     0.77441   0.49998   0.82549   0.00000  Uiso   1.00
O845   O     0.85360   0.49999   0.82549   0.00000  Uiso   1.00
C846   C     0.80800   0.49500   0.84923   0.00000  Uiso   1.00
Cu847  Cu    0.78645   0.49999   0.75000   0.00000  Uiso   1.00
Cu848  Cu    0.88022   0.50001   0.75000   0.00000  Uiso   1.00
O849   O     0.79373   0.43988   0.74999   0.00000  Uiso   1.00
O850   O     0.87292   0.43989   0.74999   0.00000  Uiso   1.00
O851   O     0.81306   0.50001   0.67451   0.00000  Uiso   1.00
O852   O     0.89225   0.50002   0.67451   0.00000  Uiso   1.00
C853   C     0.83318   0.42077   0.74991   0.00000  Uiso   1.00
C854   C     0.85915   0.50045   0.65021   0.00000  Uiso   1.00
C855   C     0.93574   0.49832   0.51125   0.00000  Uiso   1.00
H856   H     0.95063   0.50827   0.58403   0.00000  Uiso   1.00
H857   H     0.95320   0.47820   0.91173   0.00000  Uiso   1.00
H858   H     0.97316   0.50257   0.98921   0.00000  Uiso   1.00
C859   C     0.87382   0.49906   0.59350   0.00000  Uiso   1.00
C860   C     0.74583   0.47783   0.93164   0.00000  Uiso   1.00
C861   C     0.73219   0.47011   0.98451   0.00000  Uiso   1.00
C862   C     0.76597   0.47315   0.51241   0.00000  Uiso   1.00
C863   C     0.81550   0.48024   0.98691   0.00000  Uiso   1.00
C864   C     0.83054   0.47966   0.93197   0.00000  Uiso   1.00
C865   C     0.85088   0.48695   0.51392   0.00000  Uiso   1.00
C866   C     0.90067   0.48890   0.98588   0.00000  Uiso   1.00
C867   C     0.91507   0.48034   0.93296   0.00000  Uiso   1.00
C868   C     0.88053   0.47406   0.90676   0.00000  Uiso   1.00
C869   C     0.83824   0.49337   0.56773   0.00000  Uiso   1.00
C870   C     0.92266   0.50243   0.56496   0.00000  Uiso   1.00
C871   C     0.79489   0.48390   0.90473   0.00000  Uiso   1.00
H872   H     0.80080   0.49449   0.59030   0.00000  Uiso   1.00
H873   H     0.71804   0.47822   0.91165   0.00000  Uiso   1.00
H874   H     0.75255   0.46813   0.55354   0.00000  Uiso   1.00
H875   H     0.69507   0.46243   0.50463   0.00000  Uiso   1.00
H876   H     0.89422   0.46335   0.86716   0.00000  Uiso   1.00
C877   C     0.87737   0.64556   0.73320   0.00000  Uiso   1.00
H878   H     0.91159   0.62956   0.71917   0.00000  Uiso   1.00
C879   C     0.87720   0.35491   0.73313   0.00000  Uiso   1.00
H880   H     0.91142   0.37126   0.71945   0.00000  Uiso   1.00
C881   C     0.83313   0.37613   0.74990   0.00000  Uiso   1.00
C882   C     0.78930   0.35446   0.76703   0.00000  Uiso   1.00
H883   H     0.75509   0.37046   0.78110   0.00000  Uiso   1.00
C884   C     0.78946   0.64510   0.76708   0.00000  Uiso   1.00
H885   H     0.75524   0.62875   0.78077   0.00000  Uiso   1.00
C886   C     0.83352   0.62388   0.75026   0.00000  Uiso   1.00
C887   C     0.96974   0.53103   0.77459   0.00000  Uiso   1.00
C888   C     0.68585   0.53083   0.77413   0.00000  Uiso   1.00
H889   H     0.69979   0.55535   0.79387   0.00000  Uiso   1.00
N890   N     0.71598   0.49999   0.74999   0.00000  Uiso   1.00
C891   C     0.69672   0.46871   0.72592   0.00000  Uiso   1.00
C892   C     0.98073   0.46911   0.72602   0.00000  Uiso   1.00
H893   H     0.96670   0.44451   0.70651   0.00000  Uiso   1.00
N894   N     0.95069   0.50002   0.74999   0.00000  Uiso   1.00
N895   N     0.94050   0.56450   0.80107   0.00000  Uiso   1.00
O896   O     0.90999   0.55849   0.84634   0.00000  Uiso   1.00
O897   O     0.95455   0.60205   0.78817   0.00000  Uiso   1.00
N898   N     0.72531   0.43433   0.70115   0.00000  Uiso   1.00
O899   O     0.70958   0.39723   0.71442   0.00000  Uiso   1.00
O900   O     0.75772   0.43920   0.65683   0.00000  Uiso   1.00
O901   O     0.12708   0.89345   0.75001   0.00000  Uiso   1.00
O902   O     0.20627   0.89346   0.75000   0.00000  Uiso   1.00
C903   C     0.16681   0.91256   0.75014   0.00000  Uiso   1.00
O904   O     0.10775   0.83332   0.82549   0.00000  Uiso   1.00
O905   O     0.18694   0.83333   0.82549   0.00000  Uiso   1.00
C906   C     0.14134   0.82834   0.84923   0.00000  Uiso   1.00
Cu907  Cu    0.11978   0.83333   0.75000   0.00000  Uiso   1.00
Cu908  Cu    0.21355   0.83334   0.75000   0.00000  Uiso   1.00
O909   O     0.12706   0.77321   0.74999   0.00000  Uiso   1.00
O910   O     0.20625   0.77322   0.74999   0.00000  Uiso   1.00
O911   O     0.14640   0.83334   0.67451   0.00000  Uiso   1.00
O912   O     0.22559   0.83335   0.67451   0.00000  Uiso   1.00
C913   C     0.16651   0.75410   0.74991   0.00000  Uiso   1.00
C914   C     0.19248   0.83378   0.65021   0.00000  Uiso   1.00
C915   C     0.26907   0.83165   0.51125   0.00000  Uiso   1.00
H916   H     0.28396   0.84160   0.58403   0.00000  Uiso   1.00
H917   H     0.28653   0.81153   0.91173   0.00000  Uiso   1.00
H918   H     0.30649   0.83591   0.98921   0.00000  Uiso   1.00
C919   C     0.20715   0.83240   0.59350   0.00000  Uiso   1.00
C920   C     0.07917   0.81116   0.93164   0.00000  Uiso   1.00
C921   C     0.06552   0.80344   0.98451   0.00000  Uiso   1.00
C922   C     0.09930   0.80648   0.51241   0.00000  Uiso   1.00
C923   C     0.14883   0.81358   0.98691   0.00000  Uiso   1.00
C924   C     0.16388   0.81299   0.93197   0.00000  Uiso   1.00
C925   C     0.18421   0.82029   0.51392   0.00000  Uiso   1.00
C926   C     0.23401   0.82223   0.98588   0.00000  Uiso   1.00
C927   C     0.24841   0.81367   0.93296   0.00000  Uiso   1.00
C928   C     0.21387   0.80740   0.90676   0.00000  Uiso   1.00
C929   C     0.17157   0.82670   0.56773   0.00000  Uiso   1.00
C930   C     0.25599   0.83577   0.56496   0.00000  Uiso   1.00
C931   C     0.12822   0.81724   0.90473   0.00000  Uiso   1.00
H932   H     0.13413   0.82782   0.59030   0.00000  Uiso   1.00
H933   H     0.05138   0.81156   0.91165   0.00000  Uiso   1.00
H934   H     0.08588   0.80147   0.55354   0.00000  Uiso   1.00
H935   H     0.02840   0.79577   0.50463   0.00000  Uiso   1.00
H936   H     0.22755   0.79668   0.86716   0.00000  Uiso   1.00
C937   C     0.21070   0.97889   0.73320   0.00000  Uiso   1.00
H938   H     0.24492   0.96290   0.71917   0.00000  Uiso   1.00
C939   C     0.21053   0.68824   0.73313   0.00000  Uiso   1.00
H940   H     0.24476   0.70459   0.71945   0.00000  Uiso   1.00
C941   C     0.16647   0.70946   0.74990   0.00000  Uiso   1.00
C942   C     0.12263   0.68779   0.76703   0.00000  Uiso   1.00
H943   H     0.08842   0.70379   0.78110   0.00000  Uiso   1.00
C944   C     0.12279   0.97843   0.76708   0.00000  Uiso   1.00
H945   H     0.08857   0.96209   0.78077   0.00000  Uiso   1.00
C946   C     0.16685   0.95721   0.75026   0.00000  Uiso   1.00
C947   C     0.30307   0.86437   0.77459   0.00000  Uiso   1.00
C948   C     0.01918   0.86417   0.77413   0.00000  Uiso   1.00
H949   H     0.03312   0.88868   0.79387   0.00000  Uiso   1.00
N950   N     0.04931   0.83332   0.74999   0.00000  Uiso   1.00
C951   C     0.03005   0.80204   0.72592   0.00000  Uiso   1.00
C952   C     0.31407   0.80245   0.72602   0.00000  Uiso   1.00
H953   H     0.30003   0.77784   0.70651   0.00000  Uiso   1.00
N954   N     0.28402   0.83335   0.74999   0.00000  Uiso   1.00
N955   N     0.27383   0.89783   0.80107   0.00000  Uiso   1.00
O956   O     0.24333   0.89183   0.84634   0.00000  Uiso   1.00
O957   O     0.28788   0.93538   0.78817   0.00000  Uiso   1.00
N958   N     0.05864   0.76767   0.70115   0.00000  Uiso   1.00
O959   O     0.04291   0.73056   0.71442   0.00000  Uiso   1.00
O960   O     0.09105   0.77253   0.65683   0.00000  Uiso   1.00
O961   O     0.46042   0.89345   0.75001   0.00000  Uiso   1.00
O962   O     0.53961   0.89346   0.75000   0.00000  Uiso   1.00
C963   C     0.50015   0.91256   0.75014   0.00000  Uiso   1.00
O964   O     0.44108   0.83332   0.82549   0.00000  Uiso   1.00
O965   O     0.52027   0.83333   0.82549   0.00000  Uiso   1.00
C966   C     0.47467   0.82834   0.84923   0.00000  Uiso   1.00
Cu967  Cu    0.45311   0.83333   0.75000   0.00000  Uiso   1.00
Cu968  Cu    0.54689   0.83334   0.75000   0.00000  Uiso   1.00
O969   O     0.46039   0.77321   0.74999   0.00000  Uiso   1.00
O970   O     0.53958   0.77322   0.74999   0.00000  Uiso   1.00
O971   O     0.47973   0.83334   0.67451   0.00000  Uiso   1.00
O972   O     0.55892   0.83335   0.67451   0.00000  Uiso   1.00
C973   C     0.49985   0.75410   0.74991   0.00000  Uiso   1.00
C974   C     0.52582   0.83378   0.65021   0.00000  Uiso   1.00
C975   C     0.60241   0.83165   0.51125   0.00000  Uiso   1.00
H976   H     0.61730   0.84160   0.58403   0.00000  Uiso   1.00
H977   H     0.61987   0.81153   0.91173   0.00000  Uiso   1.00
H978   H     0.63982   0.83591   0.98921   0.00000  Uiso   1.00
C979   C     0.54048   0.83240   0.59350   0.00000  Uiso   1.00
C980   C     0.41250   0.81116   0.93164   0.00000  Uiso   1.00
C981   C     0.39885   0.80344   0.98451   0.00000  Uiso   1.00
C982   C     0.43263   0.80648   0.51241   0.00000  Uiso   1.00
C983   C     0.48217   0.81358   0.98691   0.00000  Uiso   1.00
C984   C     0.49721   0.81299   0.93197   0.00000  Uiso   1.00
C985   C     0.51754   0.82029   0.51392   0.00000  Uiso   1.00
C986   C     0.56734   0.82223   0.98588   0.00000  Uiso   1.00
C987   C     0.58174   0.81367   0.93296   0.00000  Uiso   1.00
C988   C     0.54720   0.80740   0.90676   0.00000  Uiso   1.00
C989   C     0.50490   0.82670   0.56773   0.00000  Uiso   1.00
C990   C     0.58933   0.83577   0.56496   0.00000  Uiso   1.00
C991   C     0.46155   0.81724   0.90473   0.00000  Uiso   1.00
H992   H     0.46746   0.82782   0.59030   0.00000  Uiso   1.00
H993   H     0.38471   0.81156   0.91165   0.00000  Uiso   1.00
H994   H     0.41922   0.80147   0.55354   0.00000  Uiso   1.00
H995   H     0.36174   0.79577   0.50463   0.00000  Uiso   1.00
H996   H     0.56088   0.79668   0.86716   0.00000  Uiso   1.00
C997   C     0.54403   0.97889   0.73320   0.00000  Uiso   1.00
H998   H     0.57825   0.96290   0.71917   0.00000  Uiso   1.00
C999   C     0.54387   0.68824   0.73313   0.00000  Uiso   1.00
H1000  H     0.57809   0.70459   0.71945   0.00000  Uiso   1.00
C1001  C     0.49980   0.70946   0.74990   0.00000  Uiso   1.00
C1002  C     0.45596   0.68779   0.76703   0.00000  Uiso   1.00
H1003  H     0.42176   0.70379   0.78110   0.00000  Uiso   1.00
C1004  C     0.45612   0.97843   0.76708   0.00000  Uiso   1.00
H1005  H     0.42190   0.96209   0.78077   0.00000  Uiso   1.00
C1006  C     0.50019   0.95721   0.75026   0.00000  Uiso   1.00
C1007  C     0.63641   0.86437   0.77459   0.00000  Uiso   1.00
C1008  C     0.35251   0.86417   0.77413   0.00000  Uiso   1.00
H1009  H     0.36645   0.88868   0.79387   0.00000  Uiso   1.00
N1010  N     0.38265   0.83332   0.74999   0.00000  Uiso   1.00
C1011  C     0.36338   0.80204   0.72592   0.00000  Uiso   1.00
C1012  C     0.64740   0.80245   0.72602   0.00000  Uiso   1.00
H1013  H     0.63336   0.77784   0.70651   0.00000  Uiso   1.00
N1014  N     0.61735   0.83335   0.74999   0.00000  Uiso   1.00
N1015  N     0.60717   0.89783   0.80107   0.00000  Uiso   1.00
O1016  O     0.57666   0.89183   0.84634   0.00000  Uiso   1.00
O1017  O     0.62121   0.93538   0.78817   0.00000  Uiso   1.00
N1018  N     0.39198   0.76767   0.70115   0.00000  Uiso   1.00
O1019  O     0.37625   0.73056   0.71442   0.00000  Uiso   1.00
O1020  O     0.42438   0.77253   0.65683   0.00000  Uiso   1.00
O1021  O     0.79375   0.89345   0.75001   0.00000  Uiso   1.00
O1022  O     0.87294   0.89346   0.75000   0.00000  Uiso   1.00
C1023  C     0.83348   0.91256   0.75014   0.00000  Uiso   1.00
O1024  O     0.77441   0.83332   0.82549   0.00000  Uiso   1.00
O1025  O     0.85360   0.83333   0.82549   0.00000  Uiso   1.00
C1026  C     0.80800   0.82834   0.84923   0.00000  Uiso   1.00
Cu1027 Cu    0.78645   0.83333   0.75000   0.00000  Uiso   1.00
Cu1028 Cu    0.88022   0.83334   0.75000   0.00000  Uiso   1.00
O1029  O     0.79373   0.77321   0.74999   0.00000  Uiso   1.00
O1030  O     0.87292   0.77322   0.74999   0.00000  Uiso   1.00
O1031  O     0.81306   0.83334   0.67451   0.00000  Uiso   1.00
O1032  O     0.89225   0.83335   0.67451   0.00000  Uiso   1.00
C1033  C     0.83318   0.75410   0.74991   0.00000  Uiso   1.00
C1034  C     0.85915   0.83378   0.65021   0.00000  Uiso   1.00
C1035  C     0.93574   0.83165   0.51125   0.00000  Uiso   1.00
H1036  H     0.95063   0.84160   0.58403   0.00000  Uiso   1.00
H1037  H     0.95320   0.81153   0.91173   0.00000  Uiso   1.00
H1038  H     0.97316   0.83591   0.98921   0.00000  Uiso   1.00
C1039  C     0.87382   0.83240   0.59350   0.00000  Uiso   1.00
C1040  C     0.74583   0.81116   0.93164   0.00000  Uiso   1.00
C1041  C     0.73219   0.80344   0.98451   0.00000  Uiso   1.00
C1042  C     0.76597   0.80648   0.51241   0.00000  Uiso   1.00
C1043  C     0.81550   0.81358   0.98691   0.00000  Uiso   1.00
C1044  C     0.83054   0.81299   0.93197   0.00000  Uiso   1.00
C1045  C     0.85088   0.82029   0.51392   0.00000  Uiso   1.00
C1046  C     0.90067   0.82223   0.98588   0.00000  Uiso   1.00
C1047  C     0.91507   0.81367   0.93296   0.00000  Uiso   1.00
C1048  C     0.88053   0.80740   0.90676   0.00000  Uiso   1.00
C1049  C     0.83824   0.82670   0.56773   0.00000  Uiso   1.00
C1050  C     0.92266   0.83577   0.56496   0.00000  Uiso   1.00
C1051  C     0.79489   0.81724   0.90473   0.00000  Uiso   1.00
H1052  H     0.80080   0.82782   0.59030   0.00000  Uiso   1.00
H1053  H     0.71804   0.81156   0.91165   0.00000  Uiso   1.00
H1054  H     0.75255   0.80147   0.55354   0.00000  Uiso   1.00
H1055  H     0.69507   0.79577   0.50463   0.00000  Uiso   1.00
H1056  H     0.89422   0.79668   0.86716   0.00000  Uiso   1.00
C1057  C     0.87737   0.97889   0.73320   0.00000  Uiso   1.00
H1058  H     0.91159   0.96290   0.71917   0.00000  Uiso   1.00
C1059  C     0.87720   0.68824   0.73313   0.00000  Uiso   1.00
H1060  H     0.91142   0.70459   0.71945   0.00000  Uiso   1.00
C1061  C     0.83313   0.70946   0.74990   0.00000  Uiso   1.00
C1062  C     0.78930   0.68779   0.76703   0.00000  Uiso   1.00
H1063  H     0.75509   0.70379   0.78110   0.00000  Uiso   1.00
C1064  C     0.78946   0.97843   0.76708   0.00000  Uiso   1.00
H1065  H     0.75524   0.96209   0.78077   0.00000  Uiso   1.00
C1066  C     0.83352   0.95721   0.75026   0.00000  Uiso   1.00
C1067  C     0.96974   0.86437   0.77459   0.00000  Uiso   1.00
C1068  C     0.68585   0.86417   0.77413   0.00000  Uiso   1.00
H1069  H     0.69979   0.88868   0.79387   0.00000  Uiso   1.00
N1070  N     0.71598   0.83332   0.74999   0.00000  Uiso   1.00
C1071  C     0.69672   0.80204   0.72592   0.00000  Uiso   1.00
C1072  C     0.98073   0.80245   0.72602   0.00000  Uiso   1.00
H1073  H     0.96670   0.77784   0.70651   0.00000  Uiso   1.00
N1074  N     0.95069   0.83335   0.74999   0.00000  Uiso   1.00
N1075  N     0.94050   0.89783   0.80107   0.00000  Uiso   1.00
O1076  O     0.90999   0.89183   0.84634   0.00000  Uiso   1.00
O1077  O     0.95455   0.93538   0.78817   0.00000  Uiso   1.00
N1078  N     0.72531   0.76767   0.70115   0.00000  Uiso   1.00
O1079  O     0.70958   0.73056   0.71442   0.00000  Uiso   1.00
O1080  O     0.75772   0.77253   0.65683   0.00000  Uiso   1.00
loop_
_geom_bond_atom_site_label_1
_geom_bond_atom_site_label_2
_geom_bond_distance
_geom_bond_site_symmetry_2
_ccdc_geom_bond_type
O1     Cu7     1.958   .     S
O1     C3      1.294   .     A
O2     C3      1.298   .     A
O2     Cu8     1.963   .     S
C3     C46     1.448   .     S
O4     Cu7     1.961   .     S
O4     C6      1.314   .     A
O5     Cu8     1.956   .     S
O5     C6      1.294   .     A
C6     C31     1.483   .     S
Cu7    Cu8     2.696   .     S
Cu7    O11     1.956   .     S
Cu7    O9      1.963   .     S
Cu7    N50     2.026   .     S
Cu8    O12     1.961   .     S
Cu8    N54     2.026   .     S
Cu8    O10     1.958   .     S
O9     C13     1.299   .     A
O10    C13     1.294   .     A
O11    C14     1.300   .     A
O12    C14     1.300   .     A
C13    C41     1.448   .     S
C14    C19     1.462   .     S
C15    C30     1.390   .     A
C15    H558    1.079   1_554 S
C15    C566    1.397   1_554 S
H16    C30     1.083   .     S
H17    C27     1.085   .     S
H18    C555    1.079   .     S
C19    C30     1.400   .     A
C19    C29     1.398   .     A
C20    H33     1.083   .     S
C20    C21     1.391   .     A
C20    C31     1.404   .     A
C21    C562    1.388   .     S
C21    H575    1.079   .     S
C22    H34     1.078   .     S
C22    C561    1.388   1_554 S
C22    C563    1.412   1_554 S
C23    C24     1.417   .     A
C23    C562    1.412   .     S
C23    C565    1.421   .     S
C24    C31     1.429   .     A
C24    C28     1.416   .     A
C25    C29     1.400   .     A
C25    C563    1.421   1_554 S
C25    C566    1.417   1_554 S
C26    C27     1.388   .     A
C26    C555    1.397   .     S
C26    C565    1.417   .     S
C27    C28     1.383   .     A
C28    H36     1.077   .     S
C29    H32     1.075   .     S
H35    C561    1.079   1_554 S
C37    H38     1.083   .     S
C37    C46     1.399   .     A
C37    C219    1.384   .     S
C39    C41     1.402   .     A
C39    H40     1.083   .     S
C39    C397    1.384   1_545 S
C41    C42     1.399   .     A
C42    H43     1.083   .     S
C42    C404    1.384   1_545 S
C44    H45     1.083   .     S
C44    C46     1.402   .     A
C44    C222    1.384   .     S
C47    N55     1.429   .     S
C47    N54     1.384   .     A
C47    C108    1.418   .     S
C48    N50     1.359   .     A
C48    H49     1.082   .     S
C48    C167    1.418   1_455 S
N50    C51     1.385   .     A
C51    N58     1.429   .     S
C51    C172    1.418   1_455 S
C52    H53     1.082   .     S
C52    N54     1.358   .     A
C52    C111    1.418   .     S
N55    O56     1.299   .     A
N55    O57     1.301   .     A
N58    O60     1.299   .     A
N58    O59     1.301   .     A
O61    Cu67    1.958   .     S
O61    C63     1.294   .     A
O62    C63     1.298   .     A
O62    Cu68    1.963   .     S
C63    C106    1.448   .     S
O64    Cu67    1.961   .     S
O64    C66     1.314   .     A
O65    Cu68    1.956   .     S
O65    C66     1.294   .     A
C66    C91     1.483   .     S
Cu67   Cu68    2.696   .     S
Cu67   O71     1.956   .     S
Cu67   O69     1.963   .     S
Cu67   N110    2.026   .     S
Cu68   O72     1.961   .     S
Cu68   N114    2.026   .     S
Cu68   O70     1.958   .     S
O69    C73     1.299   .     A
O70    C73     1.294   .     A
O71    C74     1.300   .     A
O72    C74     1.300   .     A
C73    C101    1.448   .     S
C74    C79     1.462   .     S
C75    C90     1.390   .     A
C75    H618    1.079   1_554 S
C75    C626    1.397   1_554 S
H76    C90     1.083   .     S
H77    C87     1.085   .     S
H78    C615    1.079   .     S
C79    C90     1.400   .     A
C79    C89     1.398   .     A
C80    H93     1.083   .     S
C80    C81     1.391   .     A
C80    C91     1.404   .     A
C81    C622    1.388   .     S
C81    H635    1.079   .     S
C82    H94     1.078   .     S
C82    C621    1.388   1_554 S
C82    C623    1.412   1_554 S
C83    C84     1.417   .     A
C83    C622    1.412   .     S
C83    C625    1.421   .     S
C84    C91     1.429   .     A
C84    C88     1.416   .     A
C85    C89     1.400   .     A
C85    C623    1.421   1_554 S
C85    C626    1.417   1_554 S
C86    C87     1.388   .     A
C86    C615    1.397   .     S
C86    C625    1.417   .     S
C87    C88     1.383   .     A
C88    H96     1.077   .     S
C89    H92     1.075   .     S
H95    C621    1.079   1_554 S
C97    H98     1.083   .     S
C97    C106    1.399   .     A
C97    C279    1.384   .     S
C99    C101    1.402   .     A
C99    H100    1.083   .     S
C99    C457    1.384   1_545 S
C101   C102    1.399   .     A
C102   H103    1.083   .     S
C102   C464    1.384   1_545 S
C104   H105    1.083   .     S
C104   C106    1.402   .     A
C104   C282    1.384   .     S
C107   N115    1.429   .     S
C107   N114    1.384   .     A
C107   C168    1.418   .     S
C108   N110    1.359   .     A
C108   H109    1.082   .     S
N110   C111    1.385   .     A
C111   N118    1.429   .     S
C112   H113    1.082   .     S
C112   N114    1.358   .     A
C112   C171    1.418   .     S
N115   O116    1.299   .     A
N115   O117    1.301   .     A
N118   O120    1.299   .     A
N118   O119    1.301   .     A
O121   Cu127   1.958   .     S
O121   C123    1.294   .     A
O122   C123    1.298   .     A
O122   Cu128   1.963   .     S
C123   C166    1.448   .     S
O124   Cu127   1.961   .     S
O124   C126    1.314   .     A
O125   Cu128   1.956   .     S
O125   C126    1.294   .     A
C126   C151    1.483   .     S
Cu127  Cu128   2.696   .     S
Cu127  O131    1.956   .     S
Cu127  O129    1.963   .     S
Cu127  N170    2.026   .     S
Cu128  O132    1.961   .     S
Cu128  N174    2.026   .     S
Cu128  O130    1.958   .     S
O129   C133    1.299   .     A
O130   C133    1.294   .     A
O131   C134    1.300   .     A
O132   C134    1.300   .     A
C133   C161    1.448   .     S
C134   C139    1.462   .     S
C135   C150    1.390   .     A
C135   H678    1.079   1_554 S
C135   C686    1.397   1_554 S
H136   C150    1.083   .     S
H137   C147    1.085   .     S
H138   C675    1.079   .     S
C139   C150    1.400   .     A
C139   C149    1.398   .     A
C140   H153    1.083   .     S
C140   C141    1.391   .     A
C140   C151    1.404   .     A
C141   C682    1.388   .     S
C141   H695    1.079   .     S
C142   H154    1.078   .     S
C142   C681    1.388   1_554 S
C142   C683    1.412   1_554 S
C143   C144    1.417   .     A
C143   C682    1.412   .     S
C143   C685    1.421   .     S
C144   C151    1.429   .     A
C144   C148    1.416   .     A
C145   C149    1.400   .     A
C145   C683    1.421   1_554 S
C145   C686    1.417   1_554 S
C146   C147    1.388   .     A
C146   C675    1.397   .     S
C146   C685    1.417   .     S
C147   C148    1.383   .     A
C148   H156    1.077   .     S
C149   H152    1.075   .     S
H155   C681    1.079   1_554 S
C157   H158    1.083   .     S
C157   C166    1.399   .     A
C157   C339    1.384   .     S
C159   C161    1.402   .     A
C159   H160    1.083   .     S
C159   C517    1.384   1_545 S
C161   C162    1.399   .     A
C162   H163    1.083   .     S
C162   C524    1.384   1_545 S
C164   H165    1.083   .     S
C164   C166    1.402   .     A
C164   C342    1.384   .     S
C167   N175    1.429   .     S
C167   N174    1.384   .     A
C167   C48     1.418   1_655 S
C168   N170    1.359   .     A
C168   H169    1.082   .     S
N170   C171    1.385   .     A
C171   N178    1.429   .     S
C172   H173    1.082   .     S
C172   N174    1.358   .     A
C172   C51     1.418   1_655 S
N175   O176    1.299   .     A
N175   O177    1.301   .     A
N178   O180    1.299   .     A
N178   O179    1.301   .     A
O181   Cu187   1.958   .     S
O181   C183    1.294   .     A
O182   C183    1.298   .     A
O182   Cu188   1.963   .     S
C183   C226    1.448   .     S
O184   Cu187   1.961   .     S
O184   C186    1.314   .     A
O185   Cu188   1.956   .     S
O185   C186    1.294   .     A
C186   C211    1.483   .     S
Cu187  Cu188   2.696   .     S
Cu187  O191    1.956   .     S
Cu187  O189    1.963   .     S
Cu187  N230    2.026   .     S
Cu188  O192    1.961   .     S
Cu188  N234    2.026   .     S
Cu188  O190    1.958   .     S
O189   C193    1.299   .     A
O190   C193    1.294   .     A
O191   C194    1.300   .     A
O192   C194    1.300   .     A
C193   C221    1.448   .     S
C194   C199    1.462   .     S
C195   C210    1.390   .     A
C195   H738    1.079   1_554 S
C195   C746    1.397   1_554 S
H196   C210    1.083   .     S
H197   C207    1.085   .     S
H198   C735    1.079   .     S
C199   C210    1.400   .     A
C199   C209    1.398   .     A
C200   H213    1.083   .     S
C200   C201    1.391   .     A
C200   C211    1.404   .     A
C201   C742    1.388   .     S
C201   H755    1.079   .     S
C202   H214    1.078   .     S
C202   C741    1.388   1_554 S
C202   C743    1.412   1_554 S
C203   C204    1.417   .     A
C203   C742    1.412   .     S
C203   C745    1.421   .     S
C204   C211    1.429   .     A
C204   C208    1.416   .     A
C205   C209    1.400   .     A
C205   C743    1.421   1_554 S
C205   C746    1.417   1_554 S
C206   C207    1.388   .     A
C206   C735    1.397   .     S
C206   C745    1.417   .     S
C207   C208    1.383   .     A
C208   H216    1.077   .     S
C209   H212    1.075   .     S
H215   C741    1.079   1_554 S
C217   H218    1.083   .     S
C217   C226    1.399   .     A
C217   C399    1.384   .     S
C219   C221    1.402   .     A
C219   H220    1.083   .     S
C221   C222    1.399   .     A
C222   H223    1.083   .     S
C224   H225    1.083   .     S
C224   C226    1.402   .     A
C224   C402    1.384   .     S
C227   N235    1.429   .     S
C227   N234    1.384   .     A
C227   C288    1.418   .     S
C228   N230    1.359   .     A
C228   H229    1.082   .     S
C228   C347    1.418   1_455 S
N230   C231    1.385   .     A
C231   N238    1.429   .     S
C231   C352    1.418   1_455 S
C232   H233    1.082   .     S
C232   N234    1.358   .     A
C232   C291    1.418   .     S
N235   O236    1.299   .     A
N235   O237    1.301   .     A
N238   O240    1.299   .     A
N238   O239    1.301   .     A
O241   Cu247   1.958   .     S
O241   C243    1.294   .     A
O242   C243    1.298   .     A
O242   Cu248   1.963   .     S
C243   C286    1.448   .     S
O244   Cu247   1.961   .     S
O244   C246    1.314   .     A
O245   Cu248   1.956   .     S
O245   C246    1.294   .     A
C246   C271    1.483   .     S
Cu247  Cu248   2.696   .     S
Cu247  O251    1.956   .     S
Cu247  O249    1.963   .     S
Cu247  N290    2.026   .     S
Cu248  O252    1.961   .     S
Cu248  N294    2.026   .     S
Cu248  O250    1.958   .     S
O249   C253    1.299   .     A
O250   C253    1.294   .     A
O251   C254    1.300   .     A
O252   C254    1.300   .     A
C253   C281    1.448   .     S
C254   C259    1.462   .     S
C255   C270    1.390   .     A
C255   H798    1.079   1_554 S
C255   C806    1.397   1_554 S
H256   C270    1.083   .     S
H257   C267    1.085   .     S
H258   C795    1.079   .     S
C259   C270    1.400   .     A
C259   C269    1.398   .     A
C260   H273    1.083   .     S
C260   C261    1.391   .     A
C260   C271    1.404   .     A
C261   C802    1.388   .     S
C261   H815    1.079   .     S
C262   H274    1.078   .     S
C262   C801    1.388   1_554 S
C262   C803    1.412   1_554 S
C263   C264    1.417   .     A
C263   C802    1.412   .     S
C263   C805    1.421   .     S
C264   C271    1.429   .     A
C264   C268    1.416   .     A
C265   C269    1.400   .     A
C265   C803    1.421   1_554 S
C265   C806    1.417   1_554 S
C266   C267    1.388   .     A
C266   C795    1.397   .     S
C266   C805    1.417   .     S
C267   C268    1.383   .     A
C268   H276    1.077   .     S
C269   H272    1.075   .     S
H275   C801    1.079   1_554 S
C277   H278    1.083   .     S
C277   C286    1.399   .     A
C277   C459    1.384   .     S
C279   C281    1.402   .     A
C279   H280    1.083   .     S
C281   C282    1.399   .     A
C282   H283    1.083   .     S
C284   H285    1.083   .     S
C284   C286    1.402   .     A
C284   C462    1.384   .     S
C287   N295    1.429   .     S
C287   N294    1.384   .     A
C287   C348    1.418   .     S
C288   N290    1.359   .     A
C288   H289    1.082   .     S
N290   C291    1.385   .     A
C291   N298    1.429   .     S
C292   H293    1.082   .     S
C292   N294    1.358   .     A
C292   C351    1.418   .     S
N295   O296    1.299   .     A
N295   O297    1.301   .     A
N298   O300    1.299   .     A
N298   O299    1.301   .     A
O301   Cu307   1.958   .     S
O301   C303    1.294   .     A
O302   C303    1.298   .     A
O302   Cu308   1.963   .     S
C303   C346    1.448   .     S
O304   Cu307   1.961   .     S
O304   C306    1.314   .     A
O305   Cu308   1.956   .     S
O305   C306    1.294   .     A
C306   C331    1.483   .     S
Cu307  Cu308   2.696   .     S
Cu307  O311    1.956   .     S
Cu307  O309    1.963   .     S
Cu307  N350    2.026   .     S
Cu308  O312    1.961   .     S
Cu308  N354    2.026   .     S
Cu308  O310    1.958   .     S
O309   C313    1.299   .     A
O310   C313    1.294   .     A
O311   C314    1.300   .     A
O312   C314    1.300   .     A
C313   C341    1.448   .     S
C314   C319    1.462   .     S
C315   C330    1.390   .     A
C315   H858    1.079   1_554 S
C315   C866    1.397   1_554 S
H316   C330    1.083   .     S
H317   C327    1.085   .     S
H318   C855    1.079   .     S
C319   C330    1.400   .     A
C319   C329    1.398   .     A
C320   H333    1.083   .     S
C320   C321    1.391   .     A
C320   C331    1.404   .     A
C321   C862    1.388   .     S
C321   H875    1.079   .     S
C322   H334    1.078   .     S
C322   C861    1.388   1_554 S
C322   C863    1.412   1_554 S
C323   C324    1.417   .     A
C323   C862    1.412   .     S
C323   C865    1.421   .     S
C324   C331    1.429   .     A
C324   C328    1.416   .     A
C325   C329    1.400   .     A
C325   C863    1.421   1_554 S
C325   C866    1.417   1_554 S
C326   C327    1.388   .     A
C326   C855    1.397   .     S
C326   C865    1.417   .     S
C327   C328    1.383   .     A
C328   H336    1.077   .     S
C329   H332    1.075   .     S
H335   C861    1.079   1_554 S
C337   H338    1.083   .     S
C337   C346    1.399   .     A
C337   C519    1.384   .     S
C339   C341    1.402   .     A
C339   H340    1.083   .     S
C341   C342    1.399   .     A
C342   H343    1.083   .     S
C344   H345    1.083   .     S
C344   C346    1.402   .     A
C344   C522    1.384   .     S
C347   N355    1.429   .     S
C347   N354    1.384   .     A
C347   C228    1.418   1_655 S
C348   N350    1.359   .     A
C348   H349    1.082   .     S
N350   C351    1.385   .     A
C351   N358    1.429   .     S
C352   H353    1.082   .     S
C352   N354    1.358   .     A
C352   C231    1.418   1_655 S
N355   O356    1.299   .     A
N355   O357    1.301   .     A
N358   O360    1.299   .     A
N358   O359    1.301   .     A
O361   Cu367   1.958   .     S
O361   C363    1.294   .     A
O362   C363    1.298   .     A
O362   Cu368   1.963   .     S
C363   C406    1.448   .     S
O364   Cu367   1.961   .     S
O364   C366    1.314   .     A
O365   Cu368   1.956   .     S
O365   C366    1.294   .     A
C366   C391    1.483   .     S
Cu367  Cu368   2.696   .     S
Cu367  O371    1.956   .     S
Cu367  O369    1.963   .     S
Cu367  N410    2.026   .     S
Cu368  O372    1.961   .     S
Cu368  N414    2.026   .     S
Cu368  O370    1.958   .     S
O369   C373    1.299   .     A
O370   C373    1.294   .     A
O371   C374    1.300   .     A
O372   C374    1.300   .     A
C373   C401    1.448   .     S
C374   C379    1.462   .     S
C375   C390    1.390   .     A
C375   H918    1.079   1_554 S
C375   C926    1.397   1_554 S
H376   C390    1.083   .     S
H377   C387    1.085   .     S
H378   C915    1.079   .     S
C379   C390    1.400   .     A
C379   C389    1.398   .     A
C380   H393    1.083   .     S
C380   C381    1.391   .     A
C380   C391    1.404   .     A
C381   C922    1.388   .     S
C381   H935    1.079   .     S
C382   H394    1.078   .     S
C382   C921    1.388   1_554 S
C382   C923    1.412   1_554 S
C383   C384    1.417   .     A
C383   C922    1.412   .     S
C383   C925    1.421   .     S
C384   C391    1.429   .     A
C384   C388    1.416   .     A
C385   C389    1.400   .     A
C385   C923    1.421   1_554 S
C385   C926    1.417   1_554 S
C386   C387    1.388   .     A
C386   C915    1.397   .     S
C386   C925    1.417   .     S
C387   C388    1.383   .     A
C388   H396    1.077   .     S
C389   H392    1.075   .     S
H395   C921    1.079   1_554 S
C397   H398    1.083   .     S
C397   C406    1.399   .     A
C397   C39     1.384   1_565 S
C399   C401    1.402   .     A
C399   H400    1.083   .     S
C401   C402    1.399   .     A
C402   H403    1.083   .     S
C404   H405    1.083   .     S
C404   C406    1.402   .     A
C404   C42     1.384   1_565 S
C407   N415    1.429   .     S
C407   N414    1.384   .     A
C407   C468    1.418   .     S
C408   N410    1.359   .     A
C408   H409    1.082   .     S
C408   C527    1.418   1_455 S
N410   C411    1.385   .     A
C411   N418    1.429   .     S
C411   C532    1.418   1_455 S
C412   H413    1.082   .     S
C412   N414    1.358   .     A
C412   C471    1.418   .     S
N415   O416    1.299   .     A
N415   O417    1.301   .     A
N418   O420    1.299   .     A
N418   O419    1.301   .     A
O421   Cu427   1.958   .     S
O421   C423    1.294   .     A
O422   C423    1.298   .     A
O422   Cu428   1.963   .     S
C423   C466    1.448   .     S
O424   Cu427   1.961   .     S
O424   C426    1.314   .     A
O425   Cu428   1.956   .     S
O425   C426    1.294   .     A
C426   C451    1.483   .     S
Cu427  Cu428   2.696   .     S
Cu427  O431    1.956   .     S
Cu427  O429    1.963   .     S
Cu427  N470    2.026   .     S
Cu428  O432    1.961   .     S
Cu428  N474    2.026   .     S
Cu428  O430    1.958   .     S
O429   C433    1.299   .     A
O430   C433    1.294   .     A
O431   C434    1.300   .     A
O432   C434    1.300   .     A
C433   C461    1.448   .     S
C434   C439    1.462   .     S
C435   C450    1.390   .     A
C435   H978    1.079   1_554 S
C435   C986    1.397   1_554 S
H436   C450    1.083   .     S
H437   C447    1.085   .     S
H438   C975    1.079   .     S
C439   C450    1.400   .     A
C439   C449    1.398   .     A
C440   H453    1.083   .     S
C440   C441    1.391   .     A
C440   C451    1.404   .     A
C441   C982    1.388   .     S
C441   H995    1.079   .     S
C442   H454    1.078   .     S
C442   C981    1.388   1_554 S
C442   C983    1.412   1_554 S
C443   C444    1.417   .     A
C443   C982    1.412   .     S
C443   C985    1.421   .     S
C444   C451    1.429   .     A
C444   C448    1.416   .     A
C445   C449    1.400   .     A
C445   C983    1.421   1_554 S
C445   C986    1.417   1_554 S
C446   C447    1.388   .     A
C446   C975    1.397   .     S
C446   C985    1.417   .     S
C447   C448    1.383   .     A
C448   H456    1.077   .     S
C449   H452    1.075   .     S
H455   C981    1.079   1_554 S
C457   H458    1.083   .     S
C457   C466    1.399   .     A
C457   C99     1.384   1_565 S
C459   C461    1.402   .     A
C459   H460    1.083   .     S
C461   C462    1.399   .     A
C462   H463    1.083   .     S
C464   H465    1.083   .     S
C464   C466    1.402   .     A
C464   C102    1.384   1_565 S
C467   N475    1.429   .     S
C467   N474    1.384   .     A
C467   C528    1.418   .     S
C468   N470    1.359   .     A
C468   H469    1.082   .     S
N470   C471    1.385   .     A
C471   N478    1.429   .     S
C472   H473    1.082   .     S
C472   N474    1.358   .     A
C472   C531    1.418   .     S
N475   O476    1.299   .     A
N475   O477    1.301   .     A
N478   O480    1.299   .     A
N478   O479    1.301   .     A
O481   Cu487   1.958   .     S
O481   C483    1.294   .     A
O482   C483    1.298   .     A
O482   Cu488   1.963   .     S
C483   C526    1.448   .     S
O484   Cu487   1.961   .     S
O484   C486    1.314   .     A
O485   Cu488   1.956   .     S
O485   C486    1.294   .     A
C486   C511    1.483   .     S
Cu487  Cu488   2.696   .     S
Cu487  O491    1.956   .     S
Cu487  O489    1.963   .     S
Cu487  N530    2.026   .     S
Cu488  O492    1.961   .     S
Cu488  N534    2.026   .     S
Cu488  O490    1.958   .     S
O489   C493    1.299   .     A
O490   C493    1.294   .     A
O491   C494    1.300   .     A
O492   C494    1.300   .     A
C493   C521    1.448   .     S
C494   C499    1.462   .     S
C495   C510    1.390   .     A
C495   H1038   1.079   1_554 S
C495   C1046   1.397   1_554 S
H496   C510    1.083   .     S
H497   C507    1.085   .     S
H498   C1035   1.079   .     S
C499   C510    1.400   .     A
C499   C509    1.398   .     A
C500   H513    1.083   .     S
C500   C501    1.391   .     A
C500   C511    1.404   .     A
C501   C1042   1.388   .     S
C501   H1055   1.079   .     S
C502   H514    1.078   .     S
C502   C1041   1.388   1_554 S
C502   C1043   1.412   1_554 S
C503   C504    1.417   .     A
C503   C1042   1.412   .     S
C503   C1045   1.421   .     S
C504   C511    1.429   .     A
C504   C508    1.416   .     A
C505   C509    1.400   .     A
C505   C1043   1.421   1_554 S
C505   C1046   1.417   1_554 S
C506   C507    1.388   .     A
C506   C1035   1.397   .     S
C506   C1045   1.417   .     S
C507   C508    1.383   .     A
C508   H516    1.077   .     S
C509   H512    1.075   .     S
H515   C1041   1.079   1_554 S
C517   H518    1.083   .     S
C517   C526    1.399   .     A
C517   C159    1.384   1_565 S
C519   C521    1.402   .     A
C519   H520    1.083   .     S
C521   C522    1.399   .     A
C522   H523    1.083   .     S
C524   H525    1.083   .     S
C524   C526    1.402   .     A
C524   C162    1.384   1_565 S
C527   N535    1.429   .     S
C527   N534    1.384   .     A
C527   C408    1.418   1_655 S
C528   N530    1.359   .     A
C528   H529    1.082   .     S
N530   C531    1.385   .     A
C531   N538    1.429   .     S
C532   H533    1.082   .     S
C532   N534    1.358   .     A
C532   C411    1.418   1_655 S
N535   O536    1.299   .     A
N535   O537    1.301   .     A
N538   O540    1.299   .     A
N538   O539    1.301   .     A
O541   Cu547   1.958   .     S
O541   C543    1.294   .     A
O542   C543    1.298   .     A
O542   Cu548   1.963   .     S
C543   C586    1.448   .     S
O544   Cu547   1.961   .     S
O544   C546    1.314   .     A
O545   Cu548   1.956   .     S
O545   C546    1.294   .     A
C546   C571    1.483   .     S
Cu547  Cu548   2.696   .     S
Cu547  O551    1.956   .     S
Cu547  O549    1.963   .     S
Cu547  N590    2.026   .     S
Cu548  O552    1.961   .     S
Cu548  N594    2.026   .     S
Cu548  O550    1.958   .     S
O549   C553    1.299   .     A
O550   C553    1.294   .     A
O551   C554    1.300   .     A
O552   C554    1.300   .     A
C553   C581    1.448   .     S
C554   C559    1.462   .     S
C555   C570    1.390   .     A
H556   C570    1.083   .     S
H557   C567    1.085   .     S
H558   C15     1.079   1_556 S
C559   C570    1.400   .     A
C559   C569    1.398   .     A
C560   H573    1.083   .     S
C560   C561    1.391   .     A
C560   C571    1.404   .     A
C561   C22     1.388   1_556 S
C561   H35     1.079   1_556 S
C562   H574    1.078   .     S
C563   C564    1.417   .     A
C563   C22     1.412   1_556 S
C563   C25     1.421   1_556 S
C564   C571    1.429   .     A
C564   C568    1.416   .     A
C565   C569    1.400   .     A
C566   C567    1.388   .     A
C566   C15     1.397   1_556 S
C566   C25     1.417   1_556 S
C567   C568    1.383   .     A
C568   H576    1.077   .     S
C569   H572    1.075   .     S
C577   H578    1.083   .     S
C577   C586    1.399   .     A
C577   C759    1.384   .     S
C579   C581    1.402   .     A
C579   H580    1.083   .     S
C579   C937    1.384   1_545 S
C581   C582    1.399   .     A
C582   H583    1.083   .     S
C582   C944    1.384   1_545 S
C584   H585    1.083   .     S
C584   C586    1.402   .     A
C584   C762    1.384   .     S
C587   N595    1.429   .     S
C587   N594    1.384   .     A
C587   C648    1.418   .     S
C588   N590    1.359   .     A
C588   H589    1.082   .     S
C588   C707    1.418   1_455 S
N590   C591    1.385   .     A
C591   N598    1.429   .     S
C591   C712    1.418   1_455 S
C592   H593    1.082   .     S
C592   N594    1.358   .     A
C592   C651    1.418   .     S
N595   O596    1.299   .     A
N595   O597    1.301   .     A
N598   O600    1.299   .     A
N598   O599    1.301   .     A
O601   Cu607   1.958   .     S
O601   C603    1.294   .     A
O602   C603    1.298   .     A
O602   Cu608   1.963   .     S
C603   C646    1.448   .     S
O604   Cu607   1.961   .     S
O604   C606    1.314   .     A
O605   Cu608   1.956   .     S
O605   C606    1.294   .     A
C606   C631    1.483   .     S
Cu607  Cu608   2.696   .     S
Cu607  O611    1.956   .     S
Cu607  O609    1.963   .     S
Cu607  N650    2.026   .     S
Cu608  O612    1.961   .     S
Cu608  N654    2.026   .     S
Cu608  O610    1.958   .     S
O609   C613    1.299   .     A
O610   C613    1.294   .     A
O611   C614    1.300   .     A
O612   C614    1.300   .     A
C613   C641    1.448   .     S
C614   C619    1.462   .     S
C615   C630    1.390   .     A
H616   C630    1.083   .     S
H617   C627    1.085   .     S
H618   C75     1.079   1_556 S
C619   C630    1.400   .     A
C619   C629    1.398   .     A
C620   H633    1.083   .     S
C620   C621    1.391   .     A
C620   C631    1.404   .     A
C621   C82     1.388   1_556 S
C621   H95     1.079   1_556 S
C622   H634    1.078   .     S
C623   C624    1.417   .     A
C623   C82     1.412   1_556 S
C623   C85     1.421   1_556 S
C624   C631    1.429   .     A
C624   C628    1.416   .     A
C625   C629    1.400   .     A
C626   C627    1.388   .     A
C626   C75     1.397   1_556 S
C626   C85     1.417   1_556 S
C627   C628    1.383   .     A
C628   H636    1.077   .     S
C629   H632    1.075   .     S
C637   H638    1.083   .     S
C637   C646    1.399   .     A
C637   C819    1.384   .     S
C639   C641    1.402   .     A
C639   H640    1.083   .     S
C639   C997    1.384   1_545 S
C641   C642    1.399   .     A
C642   H643    1.083   .     S
C642   C1004   1.384   1_545 S
C644   H645    1.083   .     S
C644   C646    1.402   .     A
C644   C822    1.384   .     S
C647   N655    1.429   .     S
C647   N654    1.384   .     A
C647   C708    1.418   .     S
C648   N650    1.359   .     A
C648   H649    1.082   .     S
N650   C651    1.385   .     A
C651   N658    1.429   .     S
C652   H653    1.082   .     S
C652   N654    1.358   .     A
C652   C711    1.418   .     S
N655   O656    1.299   .     A
N655   O657    1.301   .     A
N658   O660    1.299   .     A
N658   O659    1.301   .     A
O661   Cu667   1.958   .     S
O661   C663    1.294   .     A
O662   C663    1.298   .     A
O662   Cu668   1.963   .     S
C663   C706    1.448   .     S
O664   Cu667   1.961   .     S
O664   C666    1.314   .     A
O665   Cu668   1.956   .     S
O665   C666    1.294   .     A
C666   C691    1.483   .     S
Cu667  Cu668   2.696   .     S
Cu667  O671    1.956   .     S
Cu667  O669    1.963   .     S
Cu667  N710    2.026   .     S
Cu668  O672    1.961   .     S
Cu668  N714    2.026   .     S
Cu668  O670    1.958   .     S
O669   C673    1.299   .     A
O670   C673    1.294   .     A
O671   C674    1.300   .     A
O672   C674    1.300   .     A
C673   C701    1.448   .     S
C674   C679    1.462   .     S
C675   C690    1.390   .     A
H676   C690    1.083   .     S
H677   C687    1.085   .     S
H678   C135    1.079   1_556 S
C679   C690    1.400   .     A
C679   C689    1.398   .     A
C680   H693    1.083   .     S
C680   C681    1.391   .     A
C680   C691    1.404   .     A
C681   C142    1.388   1_556 S
C681   H155    1.079   1_556 S
C682   H694    1.078   .     S
C683   C684    1.417   .     A
C683   C142    1.412   1_556 S
C683   C145    1.421   1_556 S
C684   C691    1.429   .     A
C684   C688    1.416   .     A
C685   C689    1.400   .     A
C686   C687    1.388   .     A
C686   C135    1.397   1_556 S
C686   C145    1.417   1_556 S
C687   C688    1.383   .     A
C688   H696    1.077   .     S
C689   H692    1.075   .     S
C697   H698    1.083   .     S
C697   C706    1.399   .     A
C697   C879    1.384   .     S
C699   C701    1.402   .     A
C699   H700    1.083   .     S
C699   C1057   1.384   1_545 S
C701   C702    1.399   .     A
C702   H703    1.083   .     S
C702   C1064   1.384   1_545 S
C704   H705    1.083   .     S
C704   C706    1.402   .     A
C704   C882    1.384   .     S
C707   N715    1.429   .     S
C707   N714    1.384   .     A
C707   C588    1.418   1_655 S
C708   N710    1.359   .     A
C708   H709    1.082   .     S
N710   C711    1.385   .     A
C711   N718    1.429   .     S
C712   H713    1.082   .     S
C712   N714    1.358   .     A
C712   C591    1.418   1_655 S
N715   O716    1.299   .     A
N715   O717    1.301   .     A
N718   O720    1.299   .     A
N718   O719    1.301   .     A
O721   Cu727   1.958   .     S
O721   C723    1.294   .     A
O722   C723    1.298   .     A
O722   Cu728   1.963   .     S
C723   C766    1.448   .     S
O724   Cu727   1.961   .     S
O724   C726    1.314   .     A
O725   Cu728   1.956   .     S
O725   C726    1.294   .     A
C726   C751    1.483   .     S
Cu727  Cu728   2.696   .     S
Cu727  O731    1.956   .     S
Cu727  O729    1.963   .     S
Cu727  N770    2.026   .     S
Cu728  O732    1.961   .     S
Cu728  N774    2.026   .     S
Cu728  O730    1.958   .     S
O729   C733    1.299   .     A
O730   C733    1.294   .     A
O731   C734    1.300   .     A
O732   C734    1.300   .     A
C733   C761    1.448   .     S
C734   C739    1.462   .     S
C735   C750    1.390   .     A
H736   C750    1.083   .     S
H737   C747    1.085   .     S
H738   C195    1.079   1_556 S
C739   C750    1.400   .     A
C739   C749    1.398   .     A
C740   H753    1.083   .     S
C740   C741    1.391   .     A
C740   C751    1.404   .     A
C741   C202    1.388   1_556 S
C741   H215    1.079   1_556 S
C742   H754    1.078   .     S
C743   C744    1.417   .     A
C743   C202    1.412   1_556 S
C743   C205    1.421   1_556 S
C744   C751    1.429   .     A
C744   C748    1.416   .     A
C745   C749    1.400   .     A
C746   C747    1.388   .     A
C746   C195    1.397   1_556 S
C746   C205    1.417   1_556 S
C747   C748    1.383   .     A
C748   H756    1.077   .     S
C749   H752    1.075   .     S
C757   H758    1.083   .     S
C757   C766    1.399   .     A
C757   C939    1.384   .     S
C759   C761    1.402   .     A
C759   H760    1.083   .     S
C761   C762    1.399   .     A
C762   H763    1.083   .     S
C764   H765    1.083   .     S
C764   C766    1.402   .     A
C764   C942    1.384   .     S
C767   N775    1.429   .     S
C767   N774    1.384   .     A
C767   C828    1.418   .     S
C768   N770    1.359   .     A
C768   H769    1.082   .     S
C768   C887    1.418   1_455 S
N770   C771    1.385   .     A
C771   N778    1.429   .     S
C771   C892    1.418   1_455 S
C772   H773    1.082   .     S
C772   N774    1.358   .     A
C772   C831    1.418   .     S
N775   O776    1.299   .     A
N775   O777    1.301   .     A
N778   O780    1.299   .     A
N778   O779    1.301   .     A
O781   Cu787   1.958   .     S
O781   C783    1.294   .     A
O782   C783    1.298   .     A
O782   Cu788   1.963   .     S
C783   C826    1.448   .     S
O784   Cu787   1.961   .     S
O784   C786    1.314   .     A
O785   Cu788   1.956   .     S
O785   C786    1.294   .     A
C786   C811    1.483   .     S
Cu787  Cu788   2.696   .     S
Cu787  O791    1.956   .     S
Cu787  O789    1.963   .     S
Cu787  N830    2.026   .     S
Cu788  O792    1.961   .     S
Cu788  N834    2.026   .     S
Cu788  O790    1.958   .     S
O789   C793    1.299   .     A
O790   C793    1.294   .     A
O791   C794    1.300   .     A
O792   C794    1.300   .     A
C793   C821    1.448   .     S
C794   C799    1.462   .     S
C795   C810    1.390   .     A
H796   C810    1.083   .     S
H797   C807    1.085   .     S
H798   C255    1.079   1_556 S
C799   C810    1.400   .     A
C799   C809    1.398   .     A
C800   H813    1.083   .     S
C800   C801    1.391   .     A
C800   C811    1.404   .     A
C801   C262    1.388   1_556 S
C801   H275    1.079   1_556 S
C802   H814    1.078   .     S
C803   C804    1.417   .     A
C803   C262    1.412   1_556 S
C803   C265    1.421   1_556 S
C804   C811    1.429   .     A
C804   C808    1.416   .     A
C805   C809    1.400   .     A
C806   C807    1.388   .     A
C806   C255    1.397   1_556 S
C806   C265    1.417   1_556 S
C807   C808    1.383   .     A
C808   H816    1.077   .     S
C809   H812    1.075   .     S
C817   H818    1.083   .     S
C817   C826    1.399   .     A
C817   C999    1.384   .     S
C819   C821    1.402   .     A
C819   H820    1.083   .     S
C821   C822    1.399   .     A
C822   H823    1.083   .     S
C824   H825    1.083   .     S
C824   C826    1.402   .     A
C824   C1002   1.384   .     S
C827   N835    1.429   .     S
C827   N834    1.384   .     A
C827   C888    1.418   .     S
C828   N830    1.359   .     A
C828   H829    1.082   .     S
N830   C831    1.385   .     A
C831   N838    1.429   .     S
C832   H833    1.082   .     S
C832   N834    1.358   .     A
C832   C891    1.418   .     S
N835   O836    1.299   .     A
N835   O837    1.301   .     A
N838   O840    1.299   .     A
N838   O839    1.301   .     A
O841   Cu847   1.958   .     S
O841   C843    1.294   .     A
O842   C843    1.298   .     A
O842   Cu848   1.963   .     S
C843   C886    1.448   .     S
O844   Cu847   1.961   .     S
O844   C846    1.314   .     A
O845   Cu848   1.956   .     S
O845   C846    1.294   .     A
C846   C871    1.483   .     S
Cu847  Cu848   2.696   .     S
Cu847  O851    1.956   .     S
Cu847  O849    1.963   .     S
Cu847  N890    2.026   .     S
Cu848  O852    1.961   .     S
Cu848  N894    2.026   .     S
Cu848  O850    1.958   .     S
O849   C853    1.299   .     A
O850   C853    1.294   .     A
O851   C854    1.300   .     A
O852   C854    1.300   .     A
C853   C881    1.448   .     S
C854   C859    1.462   .     S
C855   C870    1.390   .     A
H856   C870    1.083   .     S
H857   C867    1.085   .     S
H858   C315    1.079   1_556 S
C859   C870    1.400   .     A
C859   C869    1.398   .     A
C860   H873    1.083   .     S
C860   C861    1.391   .     A
C860   C871    1.404   .     A
C861   C322    1.388   1_556 S
C861   H335    1.079   1_556 S
C862   H874    1.078   .     S
C863   C864    1.417   .     A
C863   C322    1.412   1_556 S
C863   C325    1.421   1_556 S
C864   C871    1.429   .     A
C864   C868    1.416   .     A
C865   C869    1.400   .     A
C866   C867    1.388   .     A
C866   C315    1.397   1_556 S
C866   C325    1.417   1_556 S
C867   C868    1.383   .     A
C868   H876    1.077   .     S
C869   H872    1.075   .     S
C877   H878    1.083   .     S
C877   C886    1.399   .     A
C877   C1059   1.384   .     S
C879   C881    1.402   .     A
C879   H880    1.083   .     S
C881   C882    1.399   .     A
C882   H883    1.083   .     S
C884   H885    1.083   .     S
C884   C886    1.402   .     A
C884   C1062   1.384   .     S
C887   N895    1.429   .     S
C887   N894    1.384   .     A
C887   C768    1.418   1_655 S
C888   N890    1.359   .     A
C888   H889    1.082   .     S
N890   C891    1.385   .     A
C891   N898    1.429   .     S
C892   H893    1.082   .     S
C892   N894    1.358   .     A
C892   C771    1.418   1_655 S
N895   O896    1.299   .     A
N895   O897    1.301   .     A
N898   O900    1.299   .     A
N898   O899    1.301   .     A
O901   Cu907   1.958   .     S
O901   C903    1.294   .     A
O902   C903    1.298   .     A
O902   Cu908   1.963   .     S
C903   C946    1.448   .     S
O904   Cu907   1.961   .     S
O904   C906    1.314   .     A
O905   Cu908   1.956   .     S
O905   C906    1.294   .     A
C906   C931    1.483   .     S
Cu907  Cu908   2.696   .     S
Cu907  O911    1.956   .     S
Cu907  O909    1.963   .     S
Cu907  N950    2.026   .     S
Cu908  O912    1.961   .     S
Cu908  N954    2.026   .     S
Cu908  O910    1.958   .     S
O909   C913    1.299   .     A
O910   C913    1.294   .     A
O911   C914    1.300   .     A
O912   C914    1.300   .     A
C913   C941    1.448   .     S
C914   C919    1.462   .     S
C915   C930    1.390   .     A
H916   C930    1.083   .     S
H917   C927    1.085   .     S
H918   C375    1.079   1_556 S
C919   C930    1.400   .     A
C919   C929    1.398   .     A
C920   H933    1.083   .     S
C920   C921    1.391   .     A
C920   C931    1.404   .     A
C921   C382    1.388   1_556 S
C921   H395    1.079   1_556 S
C922   H934    1.078   .     S
C923   C924    1.417   .     A
C923   C382    1.412   1_556 S
C923   C385    1.421   1_556 S
C924   C931    1.429   .     A
C924   C928    1.416   .     A
C925   C929    1.400   .     A
C926   C927    1.388   .     A
C926   C375    1.397   1_556 S
C926   C385    1.417   1_556 S
C927   C928    1.383   .     A
C928   H936    1.077   .     S
C929   H932    1.075   .     S
C937   H938    1.083   .     S
C937   C946    1.399   .     A
C937   C579    1.384   1_565 S
C939   C941    1.402   .     A
C939   H940    1.083   .     S
C941   C942    1.399   .     A
C942   H943    1.083   .     S
C944   H945    1.083   .     S
C944   C946    1.402   .     A
C944   C582    1.384   1_565 S
C947   N955    1.429   .     S
C947   N954    1.384   .     A
C947   C1008   1.418   .     S
C948   N950    1.359   .     A
C948   H949    1.082   .     S
C948   C1067   1.418   1_455 S
N950   C951    1.385   .     A
C951   N958    1.429   .     S
C951   C1072   1.418   1_455 S
C952   H953    1.082   .     S
C952   N954    1.358   .     A
C952   C1011   1.418   .     S
N955   O956    1.299   .     A
N955   O957    1.301   .     A
N958   O960    1.299   .     A
N958   O959    1.301   .     A
O961   Cu967   1.958   .     S
O961   C963    1.294   .     A
O962   C963    1.298   .     A
O962   Cu968   1.963   .     S
C963   C1006   1.448   .     S
O964   Cu967   1.961   .     S
O964   C966    1.314   .     A
O965   Cu968   1.956   .     S
O965   C966    1.294   .     A
C966   C991    1.483   .     S
Cu967  Cu968   2.696   .     S
Cu967  O971    1.956   .     S
Cu967  O969    1.963   .     S
Cu967  N1010   2.026   .     S
Cu968  O972    1.961   .     S
Cu968  N1014   2.026   .     S
Cu968  O970    1.958   .     S
O969   C973    1.299   .     A
O970   C973    1.294   .     A
O971   C974    1.300   .     A
O972   C974    1.300   .     A
C973   C1001   1.448   .     S
C974   C979    1.462   .     S
C975   C990    1.390   .     A
H976   C990    1.083   .     S
H977   C987    1.085   .     S
H978   C435    1.079   1_556 S
C979   C990    1.400   .     A
C979   C989    1.398   .     A
C980   H993    1.083   .     S
C980   C981    1.391   .     A
C980   C991    1.404   .     A
C981   C442    1.388   1_556 S
C981   H455    1.079   1_556 S
C982   H994    1.078   .     S
C983   C984    1.417   .     A
C983   C442    1.412   1_556 S
C983   C445    1.421   1_556 S
C984   C991    1.429   .     A
C984   C988    1.416   .     A
C985   C989    1.400   .     A
C986   C987    1.388   .     A
C986   C435    1.397   1_556 S
C986   C445    1.417   1_556 S
C987   C988    1.383   .     A
C988   H996    1.077   .     S
C989   H992    1.075   .     S
C997   H998    1.083   .     S
C997   C1006   1.399   .     A
C997   C639    1.384   1_565 S
C999   C1001   1.402   .     A
C999   H1000   1.083   .     S
C1001  C1002   1.399   .     A
C1002  H1003   1.083   .     S
C1004  H1005   1.083   .     S
C1004  C1006   1.402   .     A
C1004  C642    1.384   1_565 S
C1007  N1015   1.429   .     S
C1007  N1014   1.384   .     A
C1007  C1068   1.418   .     S
C1008  N1010   1.359   .     A
C1008  H1009   1.082   .     S
N1010  C1011   1.385   .     A
C1011  N1018   1.429   .     S
C1012  H1013   1.082   .     S
C1012  N1014   1.358   .     A
C1012  C1071   1.418   .     S
N1015  O1016   1.299   .     A
N1015  O1017   1.301   .     A
N1018  O1020   1.299   .     A
N1018  O1019   1.301   .     A
O1021  Cu1027  1.958   .     S
O1021  C1023   1.294   .     A
O1022  C1023   1.298   .     A
O1022  Cu1028  1.963   .     S
C1023  C1066   1.448   .     S
O1024  Cu1027  1.961   .     S
O1024  C1026   1.314   .     A
O1025  Cu1028  1.956   .     S
O1025  C1026   1.294   .     A
C1026  C1051   1.483   .     S
Cu1027 Cu1028  2.696   .     S
Cu1027 O1031   1.956   .     S
Cu1027 O1029   1.963   .     S
Cu1027 N1070   2.026   .     S
Cu1028 O1032   1.961   .     S
Cu1028 N1074   2.026   .     S
Cu1028 O1030   1.958   .     S
O1029  C1033   1.299   .     A
O1030  C1033   1.294   .     A
O1031  C1034   1.300   .     A
O1032  C1034   1.300   .     A
C1033  C1061   1.448   .     S
C1034  C1039   1.462   .     S
C1035  C1050   1.390   .     A
H1036  C1050   1.083   .     S
H1037  C1047   1.085   .     S
H1038  C495    1.079   1_556 S
C1039  C1050   1.400   .     A
C1039  C1049   1.398   .     A
C1040  H1053   1.083   .     S
C1040  C1041   1.391   .     A
C1040  C1051   1.404   .     A
C1041  C502    1.388   1_556 S
C1041  H515    1.079   1_556 S
C1042  H1054   1.078   .     S
C1043  C1044   1.417   .     A
C1043  C502    1.412   1_556 S
C1043  C505    1.421   1_556 S
C1044  C1051   1.429   .     A
C1044  C1048   1.416   .     A
C1045  C1049   1.400   .     A
C1046  C1047   1.388   .     A
C1046  C495    1.397   1_556 S
C1046  C505    1.417   1_556 S
C1047  C1048   1.383   .     A
C1048  H1056   1.077   .     S
C1049  H1052   1.075   .     S
C1057  H1058   1.083   .     S
C1057  C1066   1.399   .     A
C1057  C699    1.384   1_565 S
C1059  C1061   1.402   .     A
C1059  H1060   1.083   .     S
C1061  C1062   1.399   .     A
C1062  H1063   1.083   .     S
C1064  H1065   1.083   .     S
C1064  C1066   1.402   .     A
C1064  C702    1.384   1_565 S
C1067  N1075   1.429   .     S
C1067  N1074   1.384   .     A
C1067  C948    1.418   1_655 S
C1068  N1070   1.359   .     A
C1068  H1069   1.082   .     S
N1070  C1071   1.385   .     A
C1071  N1078   1.429   .     S
C1072  H1073   1.082   .     S
C1072  N1074   1.358   .     A
C1072  C951    1.418   1_655 S
N1075  O1076   1.299   .     A
N1075  O1077   1.301   .     A
N1078  O1080   1.299   .     A
N1078  O1079   1.301   .     A
