data_str_m2_o1_o10_pcu_sym.49
_audit_creation_date              2020-01-03
_audit_creation_method            'Materials Studio'
_symmetry_space_group_name_H-M    'P1'
_symmetry_Int_Tables_number       1
_symmetry_cell_setting            triclinic
loop_
_symmetry_equiv_pos_as_xyz
  x,y,z
_cell_length_a                    26.1695
_cell_length_b                    32.4245
_cell_length_c                    28.8561
_cell_angle_alpha                 89.1407
_cell_angle_beta                  97.0123
_cell_angle_gamma                 92.5639
loop_
_atom_site_label
_atom_site_type_symbol
_atom_site_fract_x
_atom_site_fract_y
_atom_site_fract_z
_atom_site_U_iso_or_equiv
_atom_site_adp_type
_atom_site_occupancy
C1     C     0.16621   0.08746   0.16686   0.00000  Uiso   1.00
C2     C     0.18279   0.02137   0.20808   0.00000  Uiso   1.00
C3     C     0.16611   0.29053   0.16656   0.00000  Uiso   1.00
C4     C     0.16549   0.04279   0.16711   0.00000  Uiso   1.00
C5     C     0.13559   0.13959   0.02264   0.00000  Uiso   1.00
C6     C     0.19931   0.19255   0.31092   0.00000  Uiso   1.00
C7     C     0.13389   0.13998   0.30644   0.00000  Uiso   1.00
C8     C     0.19882   0.19377   0.02684   0.00000  Uiso   1.00
C9     C     0.09551   0.10906   0.28084   0.00000  Uiso   1.00
C10    C     0.03981   0.11614   0.28924   0.00000  Uiso   1.00
C11    C     0.23533   0.22600   0.05218   0.00000  Uiso   1.00
C12    C     0.16658   0.24587   0.16650   0.00000  Uiso   1.00
C13    C     0.21920   0.26989   0.03909   0.00000  Uiso   1.00
C14    C     0.06811   0.16667   0.15479   0.00000  Uiso   1.00
C15    C     0.26522   0.16753   0.17843   0.00000  Uiso   1.00
C16    C     0.01289   0.16607   0.14810   0.00000  Uiso   1.00
C17    C     0.32040   0.16972   0.18462   0.00000  Uiso   1.00
C18    C     0.14768   0.02128   0.12611   0.00000  Uiso   1.00
C19    C     0.18334   0.31202   0.20775   0.00000  Uiso   1.00
C20    C     0.14752   0.31191   0.12601   0.00000  Uiso   1.00
Cu21   Cu    0.16667   0.16667   0.21355   0.00000  Uiso   1.00
Cu22   Cu    0.16667   0.16666   0.11978   0.00000  Uiso   1.00
F23    F     0.10592   0.11185   0.04423   0.00000  Uiso   1.00
F24    F     0.23280   0.21750   0.28992   0.00000  Uiso   1.00
H25    H     0.32671   0.16206   0.11287   0.00000  Uiso   1.00
H26    H     0.09611   0.10920   0.24326   0.00000  Uiso   1.00
H27    H     0.10557   0.07736   0.29280   0.00000  Uiso   1.00
H28    H     0.17689   0.27199   0.03788   0.00000  Uiso   1.00
H29    H     0.23858   0.29202   0.06529   0.00000  Uiso   1.00
H30    H     0.23041   0.27920   0.00446   0.00000  Uiso   1.00
H31    H     0.23874   0.22324   0.09002   0.00000  Uiso   1.00
H32    H     0.27493   0.22210   0.04317   0.00000  Uiso   1.00
H33    H     0.00663   0.17474   0.21949   0.00000  Uiso   1.00
H34    H     0.13327   0.03739   0.09437   0.00000  Uiso   1.00
H35    H     0.19763   0.29590   0.23954   0.00000  Uiso   1.00
H36    H     0.13202   0.29565   0.09462   0.00000  Uiso   1.00
H37    H     0.19667   0.03760   0.24002   0.00000  Uiso   1.00
H38    H     0.03344   0.14957   0.29221   0.00000  Uiso   1.00
H39    H     0.01265   0.10317   0.25994   0.00000  Uiso   1.00
H40    H     0.03045   0.10028   0.32166   0.00000  Uiso   1.00
N41    N     0.16668   0.16668   0.28403   0.00000  Uiso   1.00
N42    N     0.16665   0.16666   0.04931   0.00000  Uiso   1.00
O43    O     0.16666   0.10655   0.20625   0.00000  Uiso   1.00
O44    O     0.16667   0.22678   0.12709   0.00000  Uiso   1.00
O45    O     0.16666   0.10654   0.12706   0.00000  Uiso   1.00
O46    O     0.16667   0.22679   0.20628   0.00000  Uiso   1.00
O47    O     0.09161   0.16667   0.19712   0.00000  Uiso   1.00
O48    O     0.24172   0.16666   0.13621   0.00000  Uiso   1.00
O49    O     0.09161   0.16666   0.11793   0.00000  Uiso   1.00
O50    O     0.24172   0.16667   0.21540   0.00000  Uiso   1.00
C51    C     0.49954   0.08746   0.16686   0.00000  Uiso   1.00
C52    C     0.51612   0.02137   0.20808   0.00000  Uiso   1.00
C53    C     0.49944   0.29053   0.16656   0.00000  Uiso   1.00
C54    C     0.49882   0.04279   0.16711   0.00000  Uiso   1.00
C55    C     0.46892   0.13959   0.02264   0.00000  Uiso   1.00
C56    C     0.53264   0.19255   0.31092   0.00000  Uiso   1.00
C57    C     0.46722   0.13998   0.30644   0.00000  Uiso   1.00
C58    C     0.53215   0.19377   0.02684   0.00000  Uiso   1.00
C59    C     0.42885   0.10906   0.28084   0.00000  Uiso   1.00
C60    C     0.37315   0.11614   0.28924   0.00000  Uiso   1.00
C61    C     0.56866   0.22600   0.05218   0.00000  Uiso   1.00
C62    C     0.49991   0.24587   0.16650   0.00000  Uiso   1.00
C63    C     0.55254   0.26989   0.03909   0.00000  Uiso   1.00
C64    C     0.40144   0.16667   0.15479   0.00000  Uiso   1.00
C65    C     0.59855   0.16753   0.17843   0.00000  Uiso   1.00
C66    C     0.34622   0.16607   0.14810   0.00000  Uiso   1.00
C67    C     0.65373   0.16972   0.18462   0.00000  Uiso   1.00
C68    C     0.48102   0.02128   0.12611   0.00000  Uiso   1.00
C69    C     0.51667   0.31202   0.20775   0.00000  Uiso   1.00
C70    C     0.48085   0.31191   0.12601   0.00000  Uiso   1.00
Cu71   Cu    0.50000   0.16667   0.21355   0.00000  Uiso   1.00
Cu72   Cu    0.50000   0.16666   0.11978   0.00000  Uiso   1.00
F73    F     0.43925   0.11185   0.04423   0.00000  Uiso   1.00
F74    F     0.56613   0.21750   0.28992   0.00000  Uiso   1.00
H75    H     0.66004   0.16206   0.11287   0.00000  Uiso   1.00
H76    H     0.42944   0.10920   0.24326   0.00000  Uiso   1.00
H77    H     0.43890   0.07736   0.29280   0.00000  Uiso   1.00
H78    H     0.51023   0.27199   0.03788   0.00000  Uiso   1.00
H79    H     0.57192   0.29202   0.06529   0.00000  Uiso   1.00
H80    H     0.56374   0.27920   0.00446   0.00000  Uiso   1.00
H81    H     0.57208   0.22324   0.09002   0.00000  Uiso   1.00
H82    H     0.60827   0.22210   0.04317   0.00000  Uiso   1.00
H83    H     0.33996   0.17474   0.21949   0.00000  Uiso   1.00
H84    H     0.46660   0.03739   0.09437   0.00000  Uiso   1.00
H85    H     0.53096   0.29590   0.23954   0.00000  Uiso   1.00
H86    H     0.46535   0.29565   0.09462   0.00000  Uiso   1.00
H87    H     0.53001   0.03760   0.24002   0.00000  Uiso   1.00
H88    H     0.36677   0.14957   0.29221   0.00000  Uiso   1.00
H89    H     0.34598   0.10317   0.25994   0.00000  Uiso   1.00
H90    H     0.36378   0.10028   0.32166   0.00000  Uiso   1.00
N91    N     0.50001   0.16668   0.28403   0.00000  Uiso   1.00
N92    N     0.49999   0.16666   0.04931   0.00000  Uiso   1.00
O93    O     0.50000   0.10655   0.20625   0.00000  Uiso   1.00
O94    O     0.50000   0.22678   0.12709   0.00000  Uiso   1.00
O95    O     0.50000   0.10654   0.12706   0.00000  Uiso   1.00
O96    O     0.50000   0.22679   0.20628   0.00000  Uiso   1.00
O97    O     0.42495   0.16667   0.19712   0.00000  Uiso   1.00
O98    O     0.57505   0.16666   0.13621   0.00000  Uiso   1.00
O99    O     0.42494   0.16666   0.11793   0.00000  Uiso   1.00
O100   O     0.57506   0.16667   0.21540   0.00000  Uiso   1.00
C101   C     0.83288   0.08746   0.16686   0.00000  Uiso   1.00
C102   C     0.84946   0.02137   0.20808   0.00000  Uiso   1.00
C103   C     0.83278   0.29053   0.16656   0.00000  Uiso   1.00
C104   C     0.83215   0.04279   0.16711   0.00000  Uiso   1.00
C105   C     0.80225   0.13959   0.02264   0.00000  Uiso   1.00
C106   C     0.86597   0.19255   0.31092   0.00000  Uiso   1.00
C107   C     0.80055   0.13998   0.30644   0.00000  Uiso   1.00
C108   C     0.86549   0.19377   0.02684   0.00000  Uiso   1.00
C109   C     0.76218   0.10906   0.28084   0.00000  Uiso   1.00
C110   C     0.70648   0.11614   0.28924   0.00000  Uiso   1.00
C111   C     0.90199   0.22600   0.05218   0.00000  Uiso   1.00
C112   C     0.83325   0.24587   0.16650   0.00000  Uiso   1.00
C113   C     0.88587   0.26989   0.03909   0.00000  Uiso   1.00
C114   C     0.73478   0.16667   0.15479   0.00000  Uiso   1.00
C115   C     0.93189   0.16753   0.17843   0.00000  Uiso   1.00
C116   C     0.67956   0.16607   0.14810   0.00000  Uiso   1.00
C117   C     0.98707   0.16972   0.18462   0.00000  Uiso   1.00
C118   C     0.81435   0.02128   0.12611   0.00000  Uiso   1.00
C119   C     0.85000   0.31202   0.20775   0.00000  Uiso   1.00
C120   C     0.81419   0.31191   0.12601   0.00000  Uiso   1.00
Cu121  Cu    0.83333   0.16667   0.21355   0.00000  Uiso   1.00
Cu122  Cu    0.83333   0.16666   0.11978   0.00000  Uiso   1.00
F123   F     0.77258   0.11185   0.04423   0.00000  Uiso   1.00
F124   F     0.89946   0.21750   0.28992   0.00000  Uiso   1.00
H125   H     0.99338   0.16206   0.11287   0.00000  Uiso   1.00
H126   H     0.76277   0.10920   0.24326   0.00000  Uiso   1.00
H127   H     0.77223   0.07736   0.29280   0.00000  Uiso   1.00
H128   H     0.84356   0.27199   0.03788   0.00000  Uiso   1.00
H129   H     0.90525   0.29202   0.06529   0.00000  Uiso   1.00
H130   H     0.89707   0.27920   0.00446   0.00000  Uiso   1.00
H131   H     0.90541   0.22324   0.09002   0.00000  Uiso   1.00
H132   H     0.94160   0.22210   0.04317   0.00000  Uiso   1.00
H133   H     0.67329   0.17474   0.21949   0.00000  Uiso   1.00
H134   H     0.79993   0.03739   0.09437   0.00000  Uiso   1.00
H135   H     0.86429   0.29590   0.23954   0.00000  Uiso   1.00
H136   H     0.79869   0.29565   0.09462   0.00000  Uiso   1.00
H137   H     0.86334   0.03760   0.24002   0.00000  Uiso   1.00
H138   H     0.70010   0.14957   0.29221   0.00000  Uiso   1.00
H139   H     0.67931   0.10317   0.25994   0.00000  Uiso   1.00
H140   H     0.69711   0.10028   0.32166   0.00000  Uiso   1.00
N141   N     0.83335   0.16668   0.28403   0.00000  Uiso   1.00
N142   N     0.83332   0.16666   0.04931   0.00000  Uiso   1.00
O143   O     0.83333   0.10655   0.20625   0.00000  Uiso   1.00
O144   O     0.83334   0.22678   0.12709   0.00000  Uiso   1.00
O145   O     0.83333   0.10654   0.12706   0.00000  Uiso   1.00
O146   O     0.83334   0.22679   0.20628   0.00000  Uiso   1.00
O147   O     0.75828   0.16667   0.19712   0.00000  Uiso   1.00
O148   O     0.90839   0.16666   0.13621   0.00000  Uiso   1.00
O149   O     0.75828   0.16666   0.11793   0.00000  Uiso   1.00
O150   O     0.90839   0.16667   0.21540   0.00000  Uiso   1.00
C151   C     0.16621   0.42080   0.16686   0.00000  Uiso   1.00
C152   C     0.18279   0.35471   0.20808   0.00000  Uiso   1.00
C153   C     0.16611   0.62386   0.16656   0.00000  Uiso   1.00
C154   C     0.16549   0.37612   0.16711   0.00000  Uiso   1.00
C155   C     0.13559   0.47292   0.02264   0.00000  Uiso   1.00
C156   C     0.19931   0.52589   0.31092   0.00000  Uiso   1.00
C157   C     0.13389   0.47331   0.30644   0.00000  Uiso   1.00
C158   C     0.19882   0.52711   0.02684   0.00000  Uiso   1.00
C159   C     0.09551   0.44239   0.28084   0.00000  Uiso   1.00
C160   C     0.03981   0.44948   0.28924   0.00000  Uiso   1.00
C161   C     0.23533   0.55933   0.05218   0.00000  Uiso   1.00
C162   C     0.16658   0.57920   0.16650   0.00000  Uiso   1.00
C163   C     0.21920   0.60322   0.03909   0.00000  Uiso   1.00
C164   C     0.06811   0.50000   0.15479   0.00000  Uiso   1.00
C165   C     0.26522   0.50087   0.17843   0.00000  Uiso   1.00
C166   C     0.01289   0.49940   0.14810   0.00000  Uiso   1.00
C167   C     0.32040   0.50305   0.18462   0.00000  Uiso   1.00
C168   C     0.14768   0.35461   0.12611   0.00000  Uiso   1.00
C169   C     0.18334   0.64535   0.20775   0.00000  Uiso   1.00
C170   C     0.14752   0.64524   0.12601   0.00000  Uiso   1.00
Cu171  Cu    0.16667   0.50001   0.21355   0.00000  Uiso   1.00
Cu172  Cu    0.16667   0.49999   0.11978   0.00000  Uiso   1.00
F173   F     0.10592   0.44518   0.04423   0.00000  Uiso   1.00
F174   F     0.23280   0.55084   0.28992   0.00000  Uiso   1.00
H175   H     0.32671   0.49539   0.11287   0.00000  Uiso   1.00
H176   H     0.09611   0.44254   0.24326   0.00000  Uiso   1.00
H177   H     0.10557   0.41069   0.29280   0.00000  Uiso   1.00
H178   H     0.17689   0.60532   0.03788   0.00000  Uiso   1.00
H179   H     0.23858   0.62535   0.06529   0.00000  Uiso   1.00
H180   H     0.23041   0.61254   0.00446   0.00000  Uiso   1.00
H181   H     0.23874   0.55657   0.09002   0.00000  Uiso   1.00
H182   H     0.27493   0.55543   0.04317   0.00000  Uiso   1.00
H183   H     0.00663   0.50808   0.21949   0.00000  Uiso   1.00
H184   H     0.13327   0.37073   0.09437   0.00000  Uiso   1.00
H185   H     0.19763   0.62923   0.23954   0.00000  Uiso   1.00
H186   H     0.13202   0.62899   0.09462   0.00000  Uiso   1.00
H187   H     0.19667   0.37093   0.24002   0.00000  Uiso   1.00
H188   H     0.03344   0.48290   0.29221   0.00000  Uiso   1.00
H189   H     0.01265   0.43650   0.25994   0.00000  Uiso   1.00
H190   H     0.03045   0.43361   0.32166   0.00000  Uiso   1.00
N191   N     0.16668   0.50001   0.28403   0.00000  Uiso   1.00
N192   N     0.16665   0.49999   0.04931   0.00000  Uiso   1.00
O193   O     0.16666   0.43989   0.20625   0.00000  Uiso   1.00
O194   O     0.16667   0.56011   0.12709   0.00000  Uiso   1.00
O195   O     0.16666   0.43988   0.12706   0.00000  Uiso   1.00
O196   O     0.16667   0.56012   0.20628   0.00000  Uiso   1.00
O197   O     0.09161   0.50000   0.19712   0.00000  Uiso   1.00
O198   O     0.24172   0.50000   0.13621   0.00000  Uiso   1.00
O199   O     0.09161   0.49999   0.11793   0.00000  Uiso   1.00
O200   O     0.24172   0.50001   0.21540   0.00000  Uiso   1.00
C201   C     0.49954   0.42080   0.16686   0.00000  Uiso   1.00
C202   C     0.51612   0.35471   0.20808   0.00000  Uiso   1.00
C203   C     0.49944   0.62386   0.16656   0.00000  Uiso   1.00
C204   C     0.49882   0.37612   0.16711   0.00000  Uiso   1.00
C205   C     0.46892   0.47292   0.02264   0.00000  Uiso   1.00
C206   C     0.53264   0.52589   0.31092   0.00000  Uiso   1.00
C207   C     0.46722   0.47331   0.30644   0.00000  Uiso   1.00
C208   C     0.53215   0.52711   0.02684   0.00000  Uiso   1.00
C209   C     0.42885   0.44239   0.28084   0.00000  Uiso   1.00
C210   C     0.37315   0.44948   0.28924   0.00000  Uiso   1.00
C211   C     0.56866   0.55933   0.05218   0.00000  Uiso   1.00
C212   C     0.49991   0.57920   0.16650   0.00000  Uiso   1.00
C213   C     0.55254   0.60322   0.03909   0.00000  Uiso   1.00
C214   C     0.40144   0.50000   0.15479   0.00000  Uiso   1.00
C215   C     0.59855   0.50087   0.17843   0.00000  Uiso   1.00
C216   C     0.34622   0.49940   0.14810   0.00000  Uiso   1.00
C217   C     0.65373   0.50305   0.18462   0.00000  Uiso   1.00
C218   C     0.48102   0.35461   0.12611   0.00000  Uiso   1.00
C219   C     0.51667   0.64535   0.20775   0.00000  Uiso   1.00
C220   C     0.48085   0.64524   0.12601   0.00000  Uiso   1.00
Cu221  Cu    0.50000   0.50001   0.21355   0.00000  Uiso   1.00
Cu222  Cu    0.50000   0.49999   0.11978   0.00000  Uiso   1.00
F223   F     0.43925   0.44518   0.04423   0.00000  Uiso   1.00
F224   F     0.56613   0.55084   0.28992   0.00000  Uiso   1.00
H225   H     0.66004   0.49539   0.11287   0.00000  Uiso   1.00
H226   H     0.42944   0.44254   0.24326   0.00000  Uiso   1.00
H227   H     0.43890   0.41069   0.29280   0.00000  Uiso   1.00
H228   H     0.51023   0.60532   0.03788   0.00000  Uiso   1.00
H229   H     0.57192   0.62535   0.06529   0.00000  Uiso   1.00
H230   H     0.56374   0.61254   0.00446   0.00000  Uiso   1.00
H231   H     0.57208   0.55657   0.09002   0.00000  Uiso   1.00
H232   H     0.60827   0.55543   0.04317   0.00000  Uiso   1.00
H233   H     0.33996   0.50808   0.21949   0.00000  Uiso   1.00
H234   H     0.46660   0.37073   0.09437   0.00000  Uiso   1.00
H235   H     0.53096   0.62923   0.23954   0.00000  Uiso   1.00
H236   H     0.46535   0.62899   0.09462   0.00000  Uiso   1.00
H237   H     0.53001   0.37093   0.24002   0.00000  Uiso   1.00
H238   H     0.36677   0.48290   0.29221   0.00000  Uiso   1.00
H239   H     0.34598   0.43650   0.25994   0.00000  Uiso   1.00
H240   H     0.36378   0.43361   0.32166   0.00000  Uiso   1.00
N241   N     0.50001   0.50001   0.28403   0.00000  Uiso   1.00
N242   N     0.49999   0.49999   0.04931   0.00000  Uiso   1.00
O243   O     0.50000   0.43989   0.20625   0.00000  Uiso   1.00
O244   O     0.50000   0.56011   0.12709   0.00000  Uiso   1.00
O245   O     0.50000   0.43988   0.12706   0.00000  Uiso   1.00
O246   O     0.50000   0.56012   0.20628   0.00000  Uiso   1.00
O247   O     0.42495   0.50000   0.19712   0.00000  Uiso   1.00
O248   O     0.57505   0.50000   0.13621   0.00000  Uiso   1.00
O249   O     0.42494   0.49999   0.11793   0.00000  Uiso   1.00
O250   O     0.57506   0.50001   0.21540   0.00000  Uiso   1.00
C251   C     0.83288   0.42080   0.16686   0.00000  Uiso   1.00
C252   C     0.84946   0.35471   0.20808   0.00000  Uiso   1.00
C253   C     0.83278   0.62386   0.16656   0.00000  Uiso   1.00
C254   C     0.83215   0.37612   0.16711   0.00000  Uiso   1.00
C255   C     0.80225   0.47292   0.02264   0.00000  Uiso   1.00
C256   C     0.86597   0.52589   0.31092   0.00000  Uiso   1.00
C257   C     0.80055   0.47331   0.30644   0.00000  Uiso   1.00
C258   C     0.86549   0.52711   0.02684   0.00000  Uiso   1.00
C259   C     0.76218   0.44239   0.28084   0.00000  Uiso   1.00
C260   C     0.70648   0.44948   0.28924   0.00000  Uiso   1.00
C261   C     0.90199   0.55933   0.05218   0.00000  Uiso   1.00
C262   C     0.83325   0.57920   0.16650   0.00000  Uiso   1.00
C263   C     0.88587   0.60322   0.03909   0.00000  Uiso   1.00
C264   C     0.73478   0.50000   0.15479   0.00000  Uiso   1.00
C265   C     0.93189   0.50087   0.17843   0.00000  Uiso   1.00
C266   C     0.67956   0.49940   0.14810   0.00000  Uiso   1.00
C267   C     0.98707   0.50305   0.18462   0.00000  Uiso   1.00
C268   C     0.81435   0.35461   0.12611   0.00000  Uiso   1.00
C269   C     0.85000   0.64535   0.20775   0.00000  Uiso   1.00
C270   C     0.81419   0.64524   0.12601   0.00000  Uiso   1.00
Cu271  Cu    0.83333   0.50001   0.21355   0.00000  Uiso   1.00
Cu272  Cu    0.83333   0.49999   0.11978   0.00000  Uiso   1.00
F273   F     0.77258   0.44518   0.04423   0.00000  Uiso   1.00
F274   F     0.89946   0.55084   0.28992   0.00000  Uiso   1.00
H275   H     0.99338   0.49539   0.11287   0.00000  Uiso   1.00
H276   H     0.76277   0.44254   0.24326   0.00000  Uiso   1.00
H277   H     0.77223   0.41069   0.29280   0.00000  Uiso   1.00
H278   H     0.84356   0.60532   0.03788   0.00000  Uiso   1.00
H279   H     0.90525   0.62535   0.06529   0.00000  Uiso   1.00
H280   H     0.89707   0.61254   0.00446   0.00000  Uiso   1.00
H281   H     0.90541   0.55657   0.09002   0.00000  Uiso   1.00
H282   H     0.94160   0.55543   0.04317   0.00000  Uiso   1.00
H283   H     0.67329   0.50808   0.21949   0.00000  Uiso   1.00
H284   H     0.79993   0.37073   0.09437   0.00000  Uiso   1.00
H285   H     0.86429   0.62923   0.23954   0.00000  Uiso   1.00
H286   H     0.79869   0.62899   0.09462   0.00000  Uiso   1.00
H287   H     0.86334   0.37093   0.24002   0.00000  Uiso   1.00
H288   H     0.70010   0.48290   0.29221   0.00000  Uiso   1.00
H289   H     0.67931   0.43650   0.25994   0.00000  Uiso   1.00
H290   H     0.69711   0.43361   0.32166   0.00000  Uiso   1.00
N291   N     0.83335   0.50001   0.28403   0.00000  Uiso   1.00
N292   N     0.83332   0.49999   0.04931   0.00000  Uiso   1.00
O293   O     0.83333   0.43989   0.20625   0.00000  Uiso   1.00
O294   O     0.83334   0.56011   0.12709   0.00000  Uiso   1.00
O295   O     0.83333   0.43988   0.12706   0.00000  Uiso   1.00
O296   O     0.83334   0.56012   0.20628   0.00000  Uiso   1.00
O297   O     0.75828   0.50000   0.19712   0.00000  Uiso   1.00
O298   O     0.90839   0.50000   0.13621   0.00000  Uiso   1.00
O299   O     0.75828   0.49999   0.11793   0.00000  Uiso   1.00
O300   O     0.90839   0.50001   0.21540   0.00000  Uiso   1.00
C301   C     0.16621   0.75413   0.16686   0.00000  Uiso   1.00
C302   C     0.18279   0.68804   0.20808   0.00000  Uiso   1.00
C303   C     0.16611   0.95720   0.16656   0.00000  Uiso   1.00
C304   C     0.16549   0.70945   0.16711   0.00000  Uiso   1.00
C305   C     0.13559   0.80626   0.02264   0.00000  Uiso   1.00
C306   C     0.19931   0.85922   0.31092   0.00000  Uiso   1.00
C307   C     0.13389   0.80664   0.30644   0.00000  Uiso   1.00
C308   C     0.19882   0.86044   0.02684   0.00000  Uiso   1.00
C309   C     0.09551   0.77572   0.28084   0.00000  Uiso   1.00
C310   C     0.03981   0.78281   0.28924   0.00000  Uiso   1.00
C311   C     0.23533   0.89267   0.05218   0.00000  Uiso   1.00
C312   C     0.16658   0.91254   0.16650   0.00000  Uiso   1.00
C313   C     0.21920   0.93655   0.03909   0.00000  Uiso   1.00
C314   C     0.06811   0.83334   0.15479   0.00000  Uiso   1.00
C315   C     0.26522   0.83420   0.17843   0.00000  Uiso   1.00
C316   C     0.01289   0.83273   0.14810   0.00000  Uiso   1.00
C317   C     0.32040   0.83639   0.18462   0.00000  Uiso   1.00
C318   C     0.14768   0.68794   0.12611   0.00000  Uiso   1.00
C319   C     0.18334   0.97869   0.20775   0.00000  Uiso   1.00
C320   C     0.14752   0.97858   0.12601   0.00000  Uiso   1.00
Cu321  Cu    0.16667   0.83334   0.21355   0.00000  Uiso   1.00
Cu322  Cu    0.16667   0.83333   0.11978   0.00000  Uiso   1.00
F323   F     0.10592   0.77852   0.04423   0.00000  Uiso   1.00
F324   F     0.23280   0.88417   0.28992   0.00000  Uiso   1.00
H325   H     0.32671   0.82872   0.11287   0.00000  Uiso   1.00
H326   H     0.09611   0.77587   0.24326   0.00000  Uiso   1.00
H327   H     0.10557   0.74402   0.29280   0.00000  Uiso   1.00
H328   H     0.17689   0.93865   0.03788   0.00000  Uiso   1.00
H329   H     0.23858   0.95869   0.06529   0.00000  Uiso   1.00
H330   H     0.23041   0.94587   0.00446   0.00000  Uiso   1.00
H331   H     0.23874   0.88991   0.09002   0.00000  Uiso   1.00
H332   H     0.27493   0.88876   0.04317   0.00000  Uiso   1.00
H333   H     0.00663   0.84141   0.21949   0.00000  Uiso   1.00
H334   H     0.13327   0.70406   0.09437   0.00000  Uiso   1.00
H335   H     0.19763   0.96256   0.23954   0.00000  Uiso   1.00
H336   H     0.13202   0.96232   0.09462   0.00000  Uiso   1.00
H337   H     0.19667   0.70426   0.24002   0.00000  Uiso   1.00
H338   H     0.03344   0.81623   0.29221   0.00000  Uiso   1.00
H339   H     0.01265   0.76983   0.25994   0.00000  Uiso   1.00
H340   H     0.03045   0.76694   0.32166   0.00000  Uiso   1.00
N341   N     0.16668   0.83334   0.28403   0.00000  Uiso   1.00
N342   N     0.16665   0.83332   0.04931   0.00000  Uiso   1.00
O343   O     0.16666   0.77322   0.20625   0.00000  Uiso   1.00
O344   O     0.16667   0.89345   0.12709   0.00000  Uiso   1.00
O345   O     0.16666   0.77321   0.12706   0.00000  Uiso   1.00
O346   O     0.16667   0.89346   0.20628   0.00000  Uiso   1.00
O347   O     0.09161   0.83334   0.19712   0.00000  Uiso   1.00
O348   O     0.24172   0.83333   0.13621   0.00000  Uiso   1.00
O349   O     0.09161   0.83333   0.11793   0.00000  Uiso   1.00
O350   O     0.24172   0.83334   0.21540   0.00000  Uiso   1.00
C351   C     0.49954   0.75413   0.16686   0.00000  Uiso   1.00
C352   C     0.51612   0.68804   0.20808   0.00000  Uiso   1.00
C353   C     0.49944   0.95720   0.16656   0.00000  Uiso   1.00
C354   C     0.49882   0.70945   0.16711   0.00000  Uiso   1.00
C355   C     0.46892   0.80626   0.02264   0.00000  Uiso   1.00
C356   C     0.53264   0.85922   0.31092   0.00000  Uiso   1.00
C357   C     0.46722   0.80664   0.30644   0.00000  Uiso   1.00
C358   C     0.53215   0.86044   0.02684   0.00000  Uiso   1.00
C359   C     0.42885   0.77572   0.28084   0.00000  Uiso   1.00
C360   C     0.37315   0.78281   0.28924   0.00000  Uiso   1.00
C361   C     0.56866   0.89267   0.05218   0.00000  Uiso   1.00
C362   C     0.49991   0.91254   0.16650   0.00000  Uiso   1.00
C363   C     0.55254   0.93655   0.03909   0.00000  Uiso   1.00
C364   C     0.40144   0.83334   0.15479   0.00000  Uiso   1.00
C365   C     0.59855   0.83420   0.17843   0.00000  Uiso   1.00
C366   C     0.34622   0.83273   0.14810   0.00000  Uiso   1.00
C367   C     0.65373   0.83639   0.18462   0.00000  Uiso   1.00
C368   C     0.48102   0.68794   0.12611   0.00000  Uiso   1.00
C369   C     0.51667   0.97869   0.20775   0.00000  Uiso   1.00
C370   C     0.48085   0.97858   0.12601   0.00000  Uiso   1.00
Cu371  Cu    0.50000   0.83334   0.21355   0.00000  Uiso   1.00
Cu372  Cu    0.50000   0.83333   0.11978   0.00000  Uiso   1.00
F373   F     0.43925   0.77852   0.04423   0.00000  Uiso   1.00
F374   F     0.56613   0.88417   0.28992   0.00000  Uiso   1.00
H375   H     0.66004   0.82872   0.11287   0.00000  Uiso   1.00
H376   H     0.42944   0.77587   0.24326   0.00000  Uiso   1.00
H377   H     0.43890   0.74402   0.29280   0.00000  Uiso   1.00
H378   H     0.51023   0.93865   0.03788   0.00000  Uiso   1.00
H379   H     0.57192   0.95869   0.06529   0.00000  Uiso   1.00
H380   H     0.56374   0.94587   0.00446   0.00000  Uiso   1.00
H381   H     0.57208   0.88991   0.09002   0.00000  Uiso   1.00
H382   H     0.60827   0.88876   0.04317   0.00000  Uiso   1.00
H383   H     0.33996   0.84141   0.21949   0.00000  Uiso   1.00
H384   H     0.46660   0.70406   0.09437   0.00000  Uiso   1.00
H385   H     0.53096   0.96256   0.23954   0.00000  Uiso   1.00
H386   H     0.46535   0.96232   0.09462   0.00000  Uiso   1.00
H387   H     0.53001   0.70426   0.24002   0.00000  Uiso   1.00
H388   H     0.36677   0.81623   0.29221   0.00000  Uiso   1.00
H389   H     0.34598   0.76983   0.25994   0.00000  Uiso   1.00
H390   H     0.36378   0.76694   0.32166   0.00000  Uiso   1.00
N391   N     0.50001   0.83334   0.28403   0.00000  Uiso   1.00
N392   N     0.49999   0.83332   0.04931   0.00000  Uiso   1.00
O393   O     0.50000   0.77322   0.20625   0.00000  Uiso   1.00
O394   O     0.50000   0.89345   0.12709   0.00000  Uiso   1.00
O395   O     0.50000   0.77321   0.12706   0.00000  Uiso   1.00
O396   O     0.50000   0.89346   0.20628   0.00000  Uiso   1.00
O397   O     0.42495   0.83334   0.19712   0.00000  Uiso   1.00
O398   O     0.57505   0.83333   0.13621   0.00000  Uiso   1.00
O399   O     0.42494   0.83333   0.11793   0.00000  Uiso   1.00
O400   O     0.57506   0.83334   0.21540   0.00000  Uiso   1.00
C401   C     0.83288   0.75413   0.16686   0.00000  Uiso   1.00
C402   C     0.84946   0.68804   0.20808   0.00000  Uiso   1.00
C403   C     0.83278   0.95720   0.16656   0.00000  Uiso   1.00
C404   C     0.83215   0.70945   0.16711   0.00000  Uiso   1.00
C405   C     0.80225   0.80626   0.02264   0.00000  Uiso   1.00
C406   C     0.86597   0.85922   0.31092   0.00000  Uiso   1.00
C407   C     0.80055   0.80664   0.30644   0.00000  Uiso   1.00
C408   C     0.86549   0.86044   0.02684   0.00000  Uiso   1.00
C409   C     0.76218   0.77572   0.28084   0.00000  Uiso   1.00
C410   C     0.70648   0.78281   0.28924   0.00000  Uiso   1.00
C411   C     0.90199   0.89267   0.05218   0.00000  Uiso   1.00
C412   C     0.83325   0.91254   0.16650   0.00000  Uiso   1.00
C413   C     0.88587   0.93655   0.03909   0.00000  Uiso   1.00
C414   C     0.73478   0.83334   0.15479   0.00000  Uiso   1.00
C415   C     0.93189   0.83420   0.17843   0.00000  Uiso   1.00
C416   C     0.67956   0.83273   0.14810   0.00000  Uiso   1.00
C417   C     0.98707   0.83639   0.18462   0.00000  Uiso   1.00
C418   C     0.81435   0.68794   0.12611   0.00000  Uiso   1.00
C419   C     0.85000   0.97869   0.20775   0.00000  Uiso   1.00
C420   C     0.81419   0.97858   0.12601   0.00000  Uiso   1.00
Cu421  Cu    0.83333   0.83334   0.21355   0.00000  Uiso   1.00
Cu422  Cu    0.83333   0.83333   0.11978   0.00000  Uiso   1.00
F423   F     0.77258   0.77852   0.04423   0.00000  Uiso   1.00
F424   F     0.89946   0.88417   0.28992   0.00000  Uiso   1.00
H425   H     0.99338   0.82872   0.11287   0.00000  Uiso   1.00
H426   H     0.76277   0.77587   0.24326   0.00000  Uiso   1.00
H427   H     0.77223   0.74402   0.29280   0.00000  Uiso   1.00
H428   H     0.84356   0.93865   0.03788   0.00000  Uiso   1.00
H429   H     0.90525   0.95869   0.06529   0.00000  Uiso   1.00
H430   H     0.89707   0.94587   0.00446   0.00000  Uiso   1.00
H431   H     0.90541   0.88991   0.09002   0.00000  Uiso   1.00
H432   H     0.94160   0.88876   0.04317   0.00000  Uiso   1.00
H433   H     0.67329   0.84141   0.21949   0.00000  Uiso   1.00
H434   H     0.79993   0.70406   0.09437   0.00000  Uiso   1.00
H435   H     0.86429   0.96256   0.23954   0.00000  Uiso   1.00
H436   H     0.79869   0.96232   0.09462   0.00000  Uiso   1.00
H437   H     0.86334   0.70426   0.24002   0.00000  Uiso   1.00
H438   H     0.70010   0.81623   0.29221   0.00000  Uiso   1.00
H439   H     0.67931   0.76983   0.25994   0.00000  Uiso   1.00
H440   H     0.69711   0.76694   0.32166   0.00000  Uiso   1.00
N441   N     0.83335   0.83334   0.28403   0.00000  Uiso   1.00
N442   N     0.83332   0.83332   0.04931   0.00000  Uiso   1.00
O443   O     0.83333   0.77322   0.20625   0.00000  Uiso   1.00
O444   O     0.83334   0.89345   0.12709   0.00000  Uiso   1.00
O445   O     0.83333   0.77321   0.12706   0.00000  Uiso   1.00
O446   O     0.83334   0.89346   0.20628   0.00000  Uiso   1.00
O447   O     0.75828   0.83334   0.19712   0.00000  Uiso   1.00
O448   O     0.90839   0.83333   0.13621   0.00000  Uiso   1.00
O449   O     0.75828   0.83333   0.11793   0.00000  Uiso   1.00
O450   O     0.90839   0.83334   0.21540   0.00000  Uiso   1.00
C451   C     0.16621   0.08746   0.50019   0.00000  Uiso   1.00
C452   C     0.18279   0.02137   0.54141   0.00000  Uiso   1.00
C453   C     0.16611   0.29053   0.49990   0.00000  Uiso   1.00
C454   C     0.16549   0.04279   0.50044   0.00000  Uiso   1.00
C455   C     0.13559   0.13959   0.35597   0.00000  Uiso   1.00
C456   C     0.19931   0.19255   0.64425   0.00000  Uiso   1.00
C457   C     0.13389   0.13998   0.63977   0.00000  Uiso   1.00
C458   C     0.19882   0.19377   0.36017   0.00000  Uiso   1.00
C459   C     0.09551   0.10906   0.61418   0.00000  Uiso   1.00
C460   C     0.03981   0.11614   0.62257   0.00000  Uiso   1.00
C461   C     0.23533   0.22600   0.38551   0.00000  Uiso   1.00
C462   C     0.16658   0.24587   0.49983   0.00000  Uiso   1.00
C463   C     0.21920   0.26989   0.37242   0.00000  Uiso   1.00
C464   C     0.06811   0.16667   0.48812   0.00000  Uiso   1.00
C465   C     0.26522   0.16753   0.51177   0.00000  Uiso   1.00
C466   C     0.01289   0.16607   0.48144   0.00000  Uiso   1.00
C467   C     0.32040   0.16972   0.51796   0.00000  Uiso   1.00
C468   C     0.14768   0.02128   0.45945   0.00000  Uiso   1.00
C469   C     0.18334   0.31202   0.54108   0.00000  Uiso   1.00
C470   C     0.14752   0.31191   0.45935   0.00000  Uiso   1.00
Cu471  Cu    0.16667   0.16667   0.54689   0.00000  Uiso   1.00
Cu472  Cu    0.16667   0.16666   0.45311   0.00000  Uiso   1.00
F473   F     0.10592   0.11185   0.37757   0.00000  Uiso   1.00
F474   F     0.23280   0.21750   0.62325   0.00000  Uiso   1.00
H475   H     0.32671   0.16206   0.44620   0.00000  Uiso   1.00
H476   H     0.09611   0.10920   0.57659   0.00000  Uiso   1.00
H477   H     0.10557   0.07736   0.62613   0.00000  Uiso   1.00
H478   H     0.17689   0.27199   0.37122   0.00000  Uiso   1.00
H479   H     0.23858   0.29202   0.39863   0.00000  Uiso   1.00
H480   H     0.23041   0.27920   0.33779   0.00000  Uiso   1.00
H481   H     0.23874   0.22324   0.42336   0.00000  Uiso   1.00
H482   H     0.27493   0.22210   0.37651   0.00000  Uiso   1.00
H483   H     0.00663   0.17474   0.55282   0.00000  Uiso   1.00
H484   H     0.13327   0.03739   0.42770   0.00000  Uiso   1.00
H485   H     0.19763   0.29590   0.57287   0.00000  Uiso   1.00
H486   H     0.13202   0.29565   0.42795   0.00000  Uiso   1.00
H487   H     0.19667   0.03760   0.57336   0.00000  Uiso   1.00
H488   H     0.03344   0.14957   0.62555   0.00000  Uiso   1.00
H489   H     0.01265   0.10317   0.59327   0.00000  Uiso   1.00
H490   H     0.03045   0.10028   0.65499   0.00000  Uiso   1.00
N491   N     0.16668   0.16668   0.61736   0.00000  Uiso   1.00
N492   N     0.16665   0.16666   0.38264   0.00000  Uiso   1.00
O493   O     0.16666   0.10655   0.53958   0.00000  Uiso   1.00
O494   O     0.16667   0.22678   0.46042   0.00000  Uiso   1.00
O495   O     0.16666   0.10654   0.46039   0.00000  Uiso   1.00
O496   O     0.16667   0.22679   0.53961   0.00000  Uiso   1.00
O497   O     0.09161   0.16667   0.53046   0.00000  Uiso   1.00
O498   O     0.24172   0.16666   0.46954   0.00000  Uiso   1.00
O499   O     0.09161   0.16666   0.45127   0.00000  Uiso   1.00
O500   O     0.24172   0.16667   0.54873   0.00000  Uiso   1.00
C501   C     0.49954   0.08746   0.50019   0.00000  Uiso   1.00
C502   C     0.51612   0.02137   0.54141   0.00000  Uiso   1.00
C503   C     0.49944   0.29053   0.49990   0.00000  Uiso   1.00
C504   C     0.49882   0.04279   0.50044   0.00000  Uiso   1.00
C505   C     0.46892   0.13959   0.35597   0.00000  Uiso   1.00
C506   C     0.53264   0.19255   0.64425   0.00000  Uiso   1.00
C507   C     0.46722   0.13998   0.63977   0.00000  Uiso   1.00
C508   C     0.53215   0.19377   0.36017   0.00000  Uiso   1.00
C509   C     0.42885   0.10906   0.61418   0.00000  Uiso   1.00
C510   C     0.37315   0.11614   0.62257   0.00000  Uiso   1.00
C511   C     0.56866   0.22600   0.38551   0.00000  Uiso   1.00
C512   C     0.49991   0.24587   0.49983   0.00000  Uiso   1.00
C513   C     0.55254   0.26989   0.37242   0.00000  Uiso   1.00
C514   C     0.40144   0.16667   0.48812   0.00000  Uiso   1.00
C515   C     0.59855   0.16753   0.51177   0.00000  Uiso   1.00
C516   C     0.34622   0.16607   0.48144   0.00000  Uiso   1.00
C517   C     0.65373   0.16972   0.51796   0.00000  Uiso   1.00
C518   C     0.48102   0.02128   0.45945   0.00000  Uiso   1.00
C519   C     0.51667   0.31202   0.54108   0.00000  Uiso   1.00
C520   C     0.48085   0.31191   0.45935   0.00000  Uiso   1.00
Cu521  Cu    0.50000   0.16667   0.54689   0.00000  Uiso   1.00
Cu522  Cu    0.50000   0.16666   0.45311   0.00000  Uiso   1.00
F523   F     0.43925   0.11185   0.37757   0.00000  Uiso   1.00
F524   F     0.56613   0.21750   0.62325   0.00000  Uiso   1.00
H525   H     0.66004   0.16206   0.44620   0.00000  Uiso   1.00
H526   H     0.42944   0.10920   0.57659   0.00000  Uiso   1.00
H527   H     0.43890   0.07736   0.62613   0.00000  Uiso   1.00
H528   H     0.51023   0.27199   0.37122   0.00000  Uiso   1.00
H529   H     0.57192   0.29202   0.39863   0.00000  Uiso   1.00
H530   H     0.56374   0.27920   0.33779   0.00000  Uiso   1.00
H531   H     0.57208   0.22324   0.42336   0.00000  Uiso   1.00
H532   H     0.60827   0.22210   0.37651   0.00000  Uiso   1.00
H533   H     0.33996   0.17474   0.55282   0.00000  Uiso   1.00
H534   H     0.46660   0.03739   0.42770   0.00000  Uiso   1.00
H535   H     0.53096   0.29590   0.57287   0.00000  Uiso   1.00
H536   H     0.46535   0.29565   0.42795   0.00000  Uiso   1.00
H537   H     0.53001   0.03760   0.57336   0.00000  Uiso   1.00
H538   H     0.36677   0.14957   0.62555   0.00000  Uiso   1.00
H539   H     0.34598   0.10317   0.59327   0.00000  Uiso   1.00
H540   H     0.36378   0.10028   0.65499   0.00000  Uiso   1.00
N541   N     0.50001   0.16668   0.61736   0.00000  Uiso   1.00
N542   N     0.49999   0.16666   0.38264   0.00000  Uiso   1.00
O543   O     0.50000   0.10655   0.53958   0.00000  Uiso   1.00
O544   O     0.50000   0.22678   0.46042   0.00000  Uiso   1.00
O545   O     0.50000   0.10654   0.46039   0.00000  Uiso   1.00
O546   O     0.50000   0.22679   0.53961   0.00000  Uiso   1.00
O547   O     0.42495   0.16667   0.53046   0.00000  Uiso   1.00
O548   O     0.57505   0.16666   0.46954   0.00000  Uiso   1.00
O549   O     0.42494   0.16666   0.45127   0.00000  Uiso   1.00
O550   O     0.57506   0.16667   0.54873   0.00000  Uiso   1.00
C551   C     0.83288   0.08746   0.50019   0.00000  Uiso   1.00
C552   C     0.84946   0.02137   0.54141   0.00000  Uiso   1.00
C553   C     0.83278   0.29053   0.49990   0.00000  Uiso   1.00
C554   C     0.83215   0.04279   0.50044   0.00000  Uiso   1.00
C555   C     0.80225   0.13959   0.35597   0.00000  Uiso   1.00
C556   C     0.86597   0.19255   0.64425   0.00000  Uiso   1.00
C557   C     0.80055   0.13998   0.63977   0.00000  Uiso   1.00
C558   C     0.86549   0.19377   0.36017   0.00000  Uiso   1.00
C559   C     0.76218   0.10906   0.61418   0.00000  Uiso   1.00
C560   C     0.70648   0.11614   0.62257   0.00000  Uiso   1.00
C561   C     0.90199   0.22600   0.38551   0.00000  Uiso   1.00
C562   C     0.83325   0.24587   0.49983   0.00000  Uiso   1.00
C563   C     0.88587   0.26989   0.37242   0.00000  Uiso   1.00
C564   C     0.73478   0.16667   0.48812   0.00000  Uiso   1.00
C565   C     0.93189   0.16753   0.51177   0.00000  Uiso   1.00
C566   C     0.67956   0.16607   0.48144   0.00000  Uiso   1.00
C567   C     0.98707   0.16972   0.51796   0.00000  Uiso   1.00
C568   C     0.81435   0.02128   0.45945   0.00000  Uiso   1.00
C569   C     0.85000   0.31202   0.54108   0.00000  Uiso   1.00
C570   C     0.81419   0.31191   0.45935   0.00000  Uiso   1.00
Cu571  Cu    0.83333   0.16667   0.54689   0.00000  Uiso   1.00
Cu572  Cu    0.83333   0.16666   0.45311   0.00000  Uiso   1.00
F573   F     0.77258   0.11185   0.37757   0.00000  Uiso   1.00
F574   F     0.89946   0.21750   0.62325   0.00000  Uiso   1.00
H575   H     0.99338   0.16206   0.44620   0.00000  Uiso   1.00
H576   H     0.76277   0.10920   0.57659   0.00000  Uiso   1.00
H577   H     0.77223   0.07736   0.62613   0.00000  Uiso   1.00
H578   H     0.84356   0.27199   0.37122   0.00000  Uiso   1.00
H579   H     0.90525   0.29202   0.39863   0.00000  Uiso   1.00
H580   H     0.89707   0.27920   0.33779   0.00000  Uiso   1.00
H581   H     0.90541   0.22324   0.42336   0.00000  Uiso   1.00
H582   H     0.94160   0.22210   0.37651   0.00000  Uiso   1.00
H583   H     0.67329   0.17474   0.55282   0.00000  Uiso   1.00
H584   H     0.79993   0.03739   0.42770   0.00000  Uiso   1.00
H585   H     0.86429   0.29590   0.57287   0.00000  Uiso   1.00
H586   H     0.79869   0.29565   0.42795   0.00000  Uiso   1.00
H587   H     0.86334   0.03760   0.57336   0.00000  Uiso   1.00
H588   H     0.70010   0.14957   0.62555   0.00000  Uiso   1.00
H589   H     0.67931   0.10317   0.59327   0.00000  Uiso   1.00
H590   H     0.69711   0.10028   0.65499   0.00000  Uiso   1.00
N591   N     0.83335   0.16668   0.61736   0.00000  Uiso   1.00
N592   N     0.83332   0.16666   0.38264   0.00000  Uiso   1.00
O593   O     0.83333   0.10655   0.53958   0.00000  Uiso   1.00
O594   O     0.83334   0.22678   0.46042   0.00000  Uiso   1.00
O595   O     0.83333   0.10654   0.46039   0.00000  Uiso   1.00
O596   O     0.83334   0.22679   0.53961   0.00000  Uiso   1.00
O597   O     0.75828   0.16667   0.53046   0.00000  Uiso   1.00
O598   O     0.90839   0.16666   0.46954   0.00000  Uiso   1.00
O599   O     0.75828   0.16666   0.45127   0.00000  Uiso   1.00
O600   O     0.90839   0.16667   0.54873   0.00000  Uiso   1.00
C601   C     0.16621   0.42080   0.50019   0.00000  Uiso   1.00
C602   C     0.18279   0.35471   0.54141   0.00000  Uiso   1.00
C603   C     0.16611   0.62386   0.49990   0.00000  Uiso   1.00
C604   C     0.16549   0.37612   0.50044   0.00000  Uiso   1.00
C605   C     0.13559   0.47292   0.35597   0.00000  Uiso   1.00
C606   C     0.19931   0.52589   0.64425   0.00000  Uiso   1.00
C607   C     0.13389   0.47331   0.63977   0.00000  Uiso   1.00
C608   C     0.19882   0.52711   0.36017   0.00000  Uiso   1.00
C609   C     0.09551   0.44239   0.61418   0.00000  Uiso   1.00
C610   C     0.03981   0.44948   0.62257   0.00000  Uiso   1.00
C611   C     0.23533   0.55933   0.38551   0.00000  Uiso   1.00
C612   C     0.16658   0.57920   0.49983   0.00000  Uiso   1.00
C613   C     0.21920   0.60322   0.37242   0.00000  Uiso   1.00
C614   C     0.06811   0.50000   0.48812   0.00000  Uiso   1.00
C615   C     0.26522   0.50087   0.51177   0.00000  Uiso   1.00
C616   C     0.01289   0.49940   0.48144   0.00000  Uiso   1.00
C617   C     0.32040   0.50305   0.51796   0.00000  Uiso   1.00
C618   C     0.14768   0.35461   0.45945   0.00000  Uiso   1.00
C619   C     0.18334   0.64535   0.54108   0.00000  Uiso   1.00
C620   C     0.14752   0.64524   0.45935   0.00000  Uiso   1.00
Cu621  Cu    0.16667   0.50001   0.54689   0.00000  Uiso   1.00
Cu622  Cu    0.16667   0.49999   0.45311   0.00000  Uiso   1.00
F623   F     0.10592   0.44518   0.37757   0.00000  Uiso   1.00
F624   F     0.23280   0.55084   0.62325   0.00000  Uiso   1.00
H625   H     0.32671   0.49539   0.44620   0.00000  Uiso   1.00
H626   H     0.09611   0.44254   0.57659   0.00000  Uiso   1.00
H627   H     0.10557   0.41069   0.62613   0.00000  Uiso   1.00
H628   H     0.17689   0.60532   0.37122   0.00000  Uiso   1.00
H629   H     0.23858   0.62535   0.39863   0.00000  Uiso   1.00
H630   H     0.23041   0.61254   0.33779   0.00000  Uiso   1.00
H631   H     0.23874   0.55657   0.42336   0.00000  Uiso   1.00
H632   H     0.27493   0.55543   0.37651   0.00000  Uiso   1.00
H633   H     0.00663   0.50808   0.55282   0.00000  Uiso   1.00
H634   H     0.13327   0.37073   0.42770   0.00000  Uiso   1.00
H635   H     0.19763   0.62923   0.57287   0.00000  Uiso   1.00
H636   H     0.13202   0.62899   0.42795   0.00000  Uiso   1.00
H637   H     0.19667   0.37093   0.57336   0.00000  Uiso   1.00
H638   H     0.03344   0.48290   0.62555   0.00000  Uiso   1.00
H639   H     0.01265   0.43650   0.59327   0.00000  Uiso   1.00
H640   H     0.03045   0.43361   0.65499   0.00000  Uiso   1.00
N641   N     0.16668   0.50001   0.61736   0.00000  Uiso   1.00
N642   N     0.16665   0.49999   0.38264   0.00000  Uiso   1.00
O643   O     0.16666   0.43989   0.53958   0.00000  Uiso   1.00
O644   O     0.16667   0.56011   0.46042   0.00000  Uiso   1.00
O645   O     0.16666   0.43988   0.46039   0.00000  Uiso   1.00
O646   O     0.16667   0.56012   0.53961   0.00000  Uiso   1.00
O647   O     0.09161   0.50000   0.53046   0.00000  Uiso   1.00
O648   O     0.24172   0.50000   0.46954   0.00000  Uiso   1.00
O649   O     0.09161   0.49999   0.45127   0.00000  Uiso   1.00
O650   O     0.24172   0.50001   0.54873   0.00000  Uiso   1.00
C651   C     0.49954   0.42080   0.50019   0.00000  Uiso   1.00
C652   C     0.51612   0.35471   0.54141   0.00000  Uiso   1.00
C653   C     0.49944   0.62386   0.49990   0.00000  Uiso   1.00
C654   C     0.49882   0.37612   0.50044   0.00000  Uiso   1.00
C655   C     0.46892   0.47292   0.35597   0.00000  Uiso   1.00
C656   C     0.53264   0.52589   0.64425   0.00000  Uiso   1.00
C657   C     0.46722   0.47331   0.63977   0.00000  Uiso   1.00
C658   C     0.53215   0.52711   0.36017   0.00000  Uiso   1.00
C659   C     0.42885   0.44239   0.61418   0.00000  Uiso   1.00
C660   C     0.37315   0.44948   0.62257   0.00000  Uiso   1.00
C661   C     0.56866   0.55933   0.38551   0.00000  Uiso   1.00
C662   C     0.49991   0.57920   0.49983   0.00000  Uiso   1.00
C663   C     0.55254   0.60322   0.37242   0.00000  Uiso   1.00
C664   C     0.40144   0.50000   0.48812   0.00000  Uiso   1.00
C665   C     0.59855   0.50087   0.51177   0.00000  Uiso   1.00
C666   C     0.34622   0.49940   0.48144   0.00000  Uiso   1.00
C667   C     0.65373   0.50305   0.51796   0.00000  Uiso   1.00
C668   C     0.48102   0.35461   0.45945   0.00000  Uiso   1.00
C669   C     0.51667   0.64535   0.54108   0.00000  Uiso   1.00
C670   C     0.48085   0.64524   0.45935   0.00000  Uiso   1.00
Cu671  Cu    0.50000   0.50001   0.54689   0.00000  Uiso   1.00
Cu672  Cu    0.50000   0.49999   0.45311   0.00000  Uiso   1.00
F673   F     0.43925   0.44518   0.37757   0.00000  Uiso   1.00
F674   F     0.56613   0.55084   0.62325   0.00000  Uiso   1.00
H675   H     0.66004   0.49539   0.44620   0.00000  Uiso   1.00
H676   H     0.42944   0.44254   0.57659   0.00000  Uiso   1.00
H677   H     0.43890   0.41069   0.62613   0.00000  Uiso   1.00
H678   H     0.51023   0.60532   0.37122   0.00000  Uiso   1.00
H679   H     0.57192   0.62535   0.39863   0.00000  Uiso   1.00
H680   H     0.56374   0.61254   0.33779   0.00000  Uiso   1.00
H681   H     0.57208   0.55657   0.42336   0.00000  Uiso   1.00
H682   H     0.60827   0.55543   0.37651   0.00000  Uiso   1.00
H683   H     0.33996   0.50808   0.55282   0.00000  Uiso   1.00
H684   H     0.46660   0.37073   0.42770   0.00000  Uiso   1.00
H685   H     0.53096   0.62923   0.57287   0.00000  Uiso   1.00
H686   H     0.46535   0.62899   0.42795   0.00000  Uiso   1.00
H687   H     0.53001   0.37093   0.57336   0.00000  Uiso   1.00
H688   H     0.36677   0.48290   0.62555   0.00000  Uiso   1.00
H689   H     0.34598   0.43650   0.59327   0.00000  Uiso   1.00
H690   H     0.36378   0.43361   0.65499   0.00000  Uiso   1.00
N691   N     0.50001   0.50001   0.61736   0.00000  Uiso   1.00
N692   N     0.49999   0.49999   0.38264   0.00000  Uiso   1.00
O693   O     0.50000   0.43989   0.53958   0.00000  Uiso   1.00
O694   O     0.50000   0.56011   0.46042   0.00000  Uiso   1.00
O695   O     0.50000   0.43988   0.46039   0.00000  Uiso   1.00
O696   O     0.50000   0.56012   0.53961   0.00000  Uiso   1.00
O697   O     0.42495   0.50000   0.53046   0.00000  Uiso   1.00
O698   O     0.57505   0.50000   0.46954   0.00000  Uiso   1.00
O699   O     0.42494   0.49999   0.45127   0.00000  Uiso   1.00
O700   O     0.57506   0.50001   0.54873   0.00000  Uiso   1.00
C701   C     0.83288   0.42080   0.50019   0.00000  Uiso   1.00
C702   C     0.84946   0.35471   0.54141   0.00000  Uiso   1.00
C703   C     0.83278   0.62386   0.49990   0.00000  Uiso   1.00
C704   C     0.83215   0.37612   0.50044   0.00000  Uiso   1.00
C705   C     0.80225   0.47292   0.35597   0.00000  Uiso   1.00
C706   C     0.86597   0.52589   0.64425   0.00000  Uiso   1.00
C707   C     0.80055   0.47331   0.63977   0.00000  Uiso   1.00
C708   C     0.86549   0.52711   0.36017   0.00000  Uiso   1.00
C709   C     0.76218   0.44239   0.61418   0.00000  Uiso   1.00
C710   C     0.70648   0.44948   0.62257   0.00000  Uiso   1.00
C711   C     0.90199   0.55933   0.38551   0.00000  Uiso   1.00
C712   C     0.83325   0.57920   0.49983   0.00000  Uiso   1.00
C713   C     0.88587   0.60322   0.37242   0.00000  Uiso   1.00
C714   C     0.73478   0.50000   0.48812   0.00000  Uiso   1.00
C715   C     0.93189   0.50087   0.51177   0.00000  Uiso   1.00
C716   C     0.67956   0.49940   0.48144   0.00000  Uiso   1.00
C717   C     0.98707   0.50305   0.51796   0.00000  Uiso   1.00
C718   C     0.81435   0.35461   0.45945   0.00000  Uiso   1.00
C719   C     0.85000   0.64535   0.54108   0.00000  Uiso   1.00
C720   C     0.81419   0.64524   0.45935   0.00000  Uiso   1.00
Cu721  Cu    0.83333   0.50001   0.54689   0.00000  Uiso   1.00
Cu722  Cu    0.83333   0.49999   0.45311   0.00000  Uiso   1.00
F723   F     0.77258   0.44518   0.37757   0.00000  Uiso   1.00
F724   F     0.89946   0.55084   0.62325   0.00000  Uiso   1.00
H725   H     0.99338   0.49539   0.44620   0.00000  Uiso   1.00
H726   H     0.76277   0.44254   0.57659   0.00000  Uiso   1.00
H727   H     0.77223   0.41069   0.62613   0.00000  Uiso   1.00
H728   H     0.84356   0.60532   0.37122   0.00000  Uiso   1.00
H729   H     0.90525   0.62535   0.39863   0.00000  Uiso   1.00
H730   H     0.89707   0.61254   0.33779   0.00000  Uiso   1.00
H731   H     0.90541   0.55657   0.42336   0.00000  Uiso   1.00
H732   H     0.94160   0.55543   0.37651   0.00000  Uiso   1.00
H733   H     0.67329   0.50808   0.55282   0.00000  Uiso   1.00
H734   H     0.79993   0.37073   0.42770   0.00000  Uiso   1.00
H735   H     0.86429   0.62923   0.57287   0.00000  Uiso   1.00
H736   H     0.79869   0.62899   0.42795   0.00000  Uiso   1.00
H737   H     0.86334   0.37093   0.57336   0.00000  Uiso   1.00
H738   H     0.70010   0.48290   0.62555   0.00000  Uiso   1.00
H739   H     0.67931   0.43650   0.59327   0.00000  Uiso   1.00
H740   H     0.69711   0.43361   0.65499   0.00000  Uiso   1.00
N741   N     0.83335   0.50001   0.61736   0.00000  Uiso   1.00
N742   N     0.83332   0.49999   0.38264   0.00000  Uiso   1.00
O743   O     0.83333   0.43989   0.53958   0.00000  Uiso   1.00
O744   O     0.83334   0.56011   0.46042   0.00000  Uiso   1.00
O745   O     0.83333   0.43988   0.46039   0.00000  Uiso   1.00
O746   O     0.83334   0.56012   0.53961   0.00000  Uiso   1.00
O747   O     0.75828   0.50000   0.53046   0.00000  Uiso   1.00
O748   O     0.90839   0.50000   0.46954   0.00000  Uiso   1.00
O749   O     0.75828   0.49999   0.45127   0.00000  Uiso   1.00
O750   O     0.90839   0.50001   0.54873   0.00000  Uiso   1.00
C751   C     0.16621   0.75413   0.50019   0.00000  Uiso   1.00
C752   C     0.18279   0.68804   0.54141   0.00000  Uiso   1.00
C753   C     0.16611   0.95720   0.49990   0.00000  Uiso   1.00
C754   C     0.16549   0.70945   0.50044   0.00000  Uiso   1.00
C755   C     0.13559   0.80626   0.35597   0.00000  Uiso   1.00
C756   C     0.19931   0.85922   0.64425   0.00000  Uiso   1.00
C757   C     0.13389   0.80664   0.63977   0.00000  Uiso   1.00
C758   C     0.19882   0.86044   0.36017   0.00000  Uiso   1.00
C759   C     0.09551   0.77572   0.61418   0.00000  Uiso   1.00
C760   C     0.03981   0.78281   0.62257   0.00000  Uiso   1.00
C761   C     0.23533   0.89267   0.38551   0.00000  Uiso   1.00
C762   C     0.16658   0.91254   0.49983   0.00000  Uiso   1.00
C763   C     0.21920   0.93655   0.37242   0.00000  Uiso   1.00
C764   C     0.06811   0.83334   0.48812   0.00000  Uiso   1.00
C765   C     0.26522   0.83420   0.51177   0.00000  Uiso   1.00
C766   C     0.01289   0.83273   0.48144   0.00000  Uiso   1.00
C767   C     0.32040   0.83639   0.51796   0.00000  Uiso   1.00
C768   C     0.14768   0.68794   0.45945   0.00000  Uiso   1.00
C769   C     0.18334   0.97869   0.54108   0.00000  Uiso   1.00
C770   C     0.14752   0.97858   0.45935   0.00000  Uiso   1.00
Cu771  Cu    0.16667   0.83334   0.54689   0.00000  Uiso   1.00
Cu772  Cu    0.16667   0.83333   0.45311   0.00000  Uiso   1.00
F773   F     0.10592   0.77852   0.37757   0.00000  Uiso   1.00
F774   F     0.23280   0.88417   0.62325   0.00000  Uiso   1.00
H775   H     0.32671   0.82872   0.44620   0.00000  Uiso   1.00
H776   H     0.09611   0.77587   0.57659   0.00000  Uiso   1.00
H777   H     0.10557   0.74402   0.62613   0.00000  Uiso   1.00
H778   H     0.17689   0.93865   0.37122   0.00000  Uiso   1.00
H779   H     0.23858   0.95869   0.39863   0.00000  Uiso   1.00
H780   H     0.23041   0.94587   0.33779   0.00000  Uiso   1.00
H781   H     0.23874   0.88991   0.42336   0.00000  Uiso   1.00
H782   H     0.27493   0.88876   0.37651   0.00000  Uiso   1.00
H783   H     0.00663   0.84141   0.55282   0.00000  Uiso   1.00
H784   H     0.13327   0.70406   0.42770   0.00000  Uiso   1.00
H785   H     0.19763   0.96256   0.57287   0.00000  Uiso   1.00
H786   H     0.13202   0.96232   0.42795   0.00000  Uiso   1.00
H787   H     0.19667   0.70426   0.57336   0.00000  Uiso   1.00
H788   H     0.03344   0.81623   0.62555   0.00000  Uiso   1.00
H789   H     0.01265   0.76983   0.59327   0.00000  Uiso   1.00
H790   H     0.03045   0.76694   0.65499   0.00000  Uiso   1.00
N791   N     0.16668   0.83334   0.61736   0.00000  Uiso   1.00
N792   N     0.16665   0.83332   0.38264   0.00000  Uiso   1.00
O793   O     0.16666   0.77322   0.53958   0.00000  Uiso   1.00
O794   O     0.16667   0.89345   0.46042   0.00000  Uiso   1.00
O795   O     0.16666   0.77321   0.46039   0.00000  Uiso   1.00
O796   O     0.16667   0.89346   0.53961   0.00000  Uiso   1.00
O797   O     0.09161   0.83334   0.53046   0.00000  Uiso   1.00
O798   O     0.24172   0.83333   0.46954   0.00000  Uiso   1.00
O799   O     0.09161   0.83333   0.45127   0.00000  Uiso   1.00
O800   O     0.24172   0.83334   0.54873   0.00000  Uiso   1.00
C801   C     0.49954   0.75413   0.50019   0.00000  Uiso   1.00
C802   C     0.51612   0.68804   0.54141   0.00000  Uiso   1.00
C803   C     0.49944   0.95720   0.49990   0.00000  Uiso   1.00
C804   C     0.49882   0.70945   0.50044   0.00000  Uiso   1.00
C805   C     0.46892   0.80626   0.35597   0.00000  Uiso   1.00
C806   C     0.53264   0.85922   0.64425   0.00000  Uiso   1.00
C807   C     0.46722   0.80664   0.63977   0.00000  Uiso   1.00
C808   C     0.53215   0.86044   0.36017   0.00000  Uiso   1.00
C809   C     0.42885   0.77572   0.61418   0.00000  Uiso   1.00
C810   C     0.37315   0.78281   0.62257   0.00000  Uiso   1.00
C811   C     0.56866   0.89267   0.38551   0.00000  Uiso   1.00
C812   C     0.49991   0.91254   0.49983   0.00000  Uiso   1.00
C813   C     0.55254   0.93655   0.37242   0.00000  Uiso   1.00
C814   C     0.40144   0.83334   0.48812   0.00000  Uiso   1.00
C815   C     0.59855   0.83420   0.51177   0.00000  Uiso   1.00
C816   C     0.34622   0.83273   0.48144   0.00000  Uiso   1.00
C817   C     0.65373   0.83639   0.51796   0.00000  Uiso   1.00
C818   C     0.48102   0.68794   0.45945   0.00000  Uiso   1.00
C819   C     0.51667   0.97869   0.54108   0.00000  Uiso   1.00
C820   C     0.48085   0.97858   0.45935   0.00000  Uiso   1.00
Cu821  Cu    0.50000   0.83334   0.54689   0.00000  Uiso   1.00
Cu822  Cu    0.50000   0.83333   0.45311   0.00000  Uiso   1.00
F823   F     0.43925   0.77852   0.37757   0.00000  Uiso   1.00
F824   F     0.56613   0.88417   0.62325   0.00000  Uiso   1.00
H825   H     0.66004   0.82872   0.44620   0.00000  Uiso   1.00
H826   H     0.42944   0.77587   0.57659   0.00000  Uiso   1.00
H827   H     0.43890   0.74402   0.62613   0.00000  Uiso   1.00
H828   H     0.51023   0.93865   0.37122   0.00000  Uiso   1.00
H829   H     0.57192   0.95869   0.39863   0.00000  Uiso   1.00
H830   H     0.56374   0.94587   0.33779   0.00000  Uiso   1.00
H831   H     0.57208   0.88991   0.42336   0.00000  Uiso   1.00
H832   H     0.60827   0.88876   0.37651   0.00000  Uiso   1.00
H833   H     0.33996   0.84141   0.55282   0.00000  Uiso   1.00
H834   H     0.46660   0.70406   0.42770   0.00000  Uiso   1.00
H835   H     0.53096   0.96256   0.57287   0.00000  Uiso   1.00
H836   H     0.46535   0.96232   0.42795   0.00000  Uiso   1.00
H837   H     0.53001   0.70426   0.57336   0.00000  Uiso   1.00
H838   H     0.36677   0.81623   0.62555   0.00000  Uiso   1.00
H839   H     0.34598   0.76983   0.59327   0.00000  Uiso   1.00
H840   H     0.36378   0.76694   0.65499   0.00000  Uiso   1.00
N841   N     0.50001   0.83334   0.61736   0.00000  Uiso   1.00
N842   N     0.49999   0.83332   0.38264   0.00000  Uiso   1.00
O843   O     0.50000   0.77322   0.53958   0.00000  Uiso   1.00
O844   O     0.50000   0.89345   0.46042   0.00000  Uiso   1.00
O845   O     0.50000   0.77321   0.46039   0.00000  Uiso   1.00
O846   O     0.50000   0.89346   0.53961   0.00000  Uiso   1.00
O847   O     0.42495   0.83334   0.53046   0.00000  Uiso   1.00
O848   O     0.57505   0.83333   0.46954   0.00000  Uiso   1.00
O849   O     0.42494   0.83333   0.45127   0.00000  Uiso   1.00
O850   O     0.57506   0.83334   0.54873   0.00000  Uiso   1.00
C851   C     0.83288   0.75413   0.50019   0.00000  Uiso   1.00
C852   C     0.84946   0.68804   0.54141   0.00000  Uiso   1.00
C853   C     0.83278   0.95720   0.49990   0.00000  Uiso   1.00
C854   C     0.83215   0.70945   0.50044   0.00000  Uiso   1.00
C855   C     0.80225   0.80626   0.35597   0.00000  Uiso   1.00
C856   C     0.86597   0.85922   0.64425   0.00000  Uiso   1.00
C857   C     0.80055   0.80664   0.63977   0.00000  Uiso   1.00
C858   C     0.86549   0.86044   0.36017   0.00000  Uiso   1.00
C859   C     0.76218   0.77572   0.61418   0.00000  Uiso   1.00
C860   C     0.70648   0.78281   0.62257   0.00000  Uiso   1.00
C861   C     0.90199   0.89267   0.38551   0.00000  Uiso   1.00
C862   C     0.83325   0.91254   0.49983   0.00000  Uiso   1.00
C863   C     0.88587   0.93655   0.37242   0.00000  Uiso   1.00
C864   C     0.73478   0.83334   0.48812   0.00000  Uiso   1.00
C865   C     0.93189   0.83420   0.51177   0.00000  Uiso   1.00
C866   C     0.67956   0.83273   0.48144   0.00000  Uiso   1.00
C867   C     0.98707   0.83639   0.51796   0.00000  Uiso   1.00
C868   C     0.81435   0.68794   0.45945   0.00000  Uiso   1.00
C869   C     0.85000   0.97869   0.54108   0.00000  Uiso   1.00
C870   C     0.81419   0.97858   0.45935   0.00000  Uiso   1.00
Cu871  Cu    0.83333   0.83334   0.54689   0.00000  Uiso   1.00
Cu872  Cu    0.83333   0.83333   0.45311   0.00000  Uiso   1.00
F873   F     0.77258   0.77852   0.37757   0.00000  Uiso   1.00
F874   F     0.89946   0.88417   0.62325   0.00000  Uiso   1.00
H875   H     0.99338   0.82872   0.44620   0.00000  Uiso   1.00
H876   H     0.76277   0.77587   0.57659   0.00000  Uiso   1.00
H877   H     0.77223   0.74402   0.62613   0.00000  Uiso   1.00
H878   H     0.84356   0.93865   0.37122   0.00000  Uiso   1.00
H879   H     0.90525   0.95869   0.39863   0.00000  Uiso   1.00
H880   H     0.89707   0.94587   0.33779   0.00000  Uiso   1.00
H881   H     0.90541   0.88991   0.42336   0.00000  Uiso   1.00
H882   H     0.94160   0.88876   0.37651   0.00000  Uiso   1.00
H883   H     0.67329   0.84141   0.55282   0.00000  Uiso   1.00
H884   H     0.79993   0.70406   0.42770   0.00000  Uiso   1.00
H885   H     0.86429   0.96256   0.57287   0.00000  Uiso   1.00
H886   H     0.79869   0.96232   0.42795   0.00000  Uiso   1.00
H887   H     0.86334   0.70426   0.57336   0.00000  Uiso   1.00
H888   H     0.70010   0.81623   0.62555   0.00000  Uiso   1.00
H889   H     0.67931   0.76983   0.59327   0.00000  Uiso   1.00
H890   H     0.69711   0.76694   0.65499   0.00000  Uiso   1.00
N891   N     0.83335   0.83334   0.61736   0.00000  Uiso   1.00
N892   N     0.83332   0.83332   0.38264   0.00000  Uiso   1.00
O893   O     0.83333   0.77322   0.53958   0.00000  Uiso   1.00
O894   O     0.83334   0.89345   0.46042   0.00000  Uiso   1.00
O895   O     0.83333   0.77321   0.46039   0.00000  Uiso   1.00
O896   O     0.83334   0.89346   0.53961   0.00000  Uiso   1.00
O897   O     0.75828   0.83334   0.53046   0.00000  Uiso   1.00
O898   O     0.90839   0.83333   0.46954   0.00000  Uiso   1.00
O899   O     0.75828   0.83333   0.45127   0.00000  Uiso   1.00
O900   O     0.90839   0.83334   0.54873   0.00000  Uiso   1.00
C901   C     0.16621   0.08746   0.83352   0.00000  Uiso   1.00
C902   C     0.18279   0.02137   0.87475   0.00000  Uiso   1.00
C903   C     0.16611   0.29053   0.83323   0.00000  Uiso   1.00
C904   C     0.16549   0.04279   0.83378   0.00000  Uiso   1.00
C905   C     0.13559   0.13959   0.68931   0.00000  Uiso   1.00
C906   C     0.19931   0.19255   0.97759   0.00000  Uiso   1.00
C907   C     0.13389   0.13998   0.97310   0.00000  Uiso   1.00
C908   C     0.19882   0.19377   0.69351   0.00000  Uiso   1.00
C909   C     0.09551   0.10906   0.94751   0.00000  Uiso   1.00
C910   C     0.03981   0.11614   0.95591   0.00000  Uiso   1.00
C911   C     0.23533   0.22600   0.71884   0.00000  Uiso   1.00
C912   C     0.16658   0.24587   0.83316   0.00000  Uiso   1.00
C913   C     0.21920   0.26989   0.70576   0.00000  Uiso   1.00
C914   C     0.06811   0.16667   0.82146   0.00000  Uiso   1.00
C915   C     0.26522   0.16753   0.84510   0.00000  Uiso   1.00
C916   C     0.01289   0.16607   0.81477   0.00000  Uiso   1.00
C917   C     0.32040   0.16972   0.85129   0.00000  Uiso   1.00
C918   C     0.14768   0.02128   0.79278   0.00000  Uiso   1.00
C919   C     0.18334   0.31202   0.87442   0.00000  Uiso   1.00
C920   C     0.14752   0.31191   0.79268   0.00000  Uiso   1.00
Cu921  Cu    0.16667   0.16667   0.88022   0.00000  Uiso   1.00
Cu922  Cu    0.16667   0.16666   0.78645   0.00000  Uiso   1.00
F923   F     0.10592   0.11185   0.71090   0.00000  Uiso   1.00
F924   F     0.23280   0.21750   0.95658   0.00000  Uiso   1.00
H925   H     0.32671   0.16206   0.77953   0.00000  Uiso   1.00
H926   H     0.09611   0.10920   0.90992   0.00000  Uiso   1.00
H927   H     0.10557   0.07736   0.95946   0.00000  Uiso   1.00
H928   H     0.17689   0.27199   0.70455   0.00000  Uiso   1.00
H929   H     0.23858   0.29202   0.73196   0.00000  Uiso   1.00
H930   H     0.23041   0.27920   0.67113   0.00000  Uiso   1.00
H931   H     0.23874   0.22324   0.75669   0.00000  Uiso   1.00
H932   H     0.27493   0.22210   0.70984   0.00000  Uiso   1.00
H933   H     0.00663   0.17474   0.88615   0.00000  Uiso   1.00
H934   H     0.13327   0.03739   0.76103   0.00000  Uiso   1.00
H935   H     0.19763   0.29590   0.90621   0.00000  Uiso   1.00
H936   H     0.13202   0.29565   0.76129   0.00000  Uiso   1.00
H937   H     0.19667   0.03760   0.90669   0.00000  Uiso   1.00
H938   H     0.03344   0.14957   0.95888   0.00000  Uiso   1.00
H939   H     0.01265   0.10317   0.92660   0.00000  Uiso   1.00
H940   H     0.03045   0.10028   0.98832   0.00000  Uiso   1.00
N941   N     0.16668   0.16668   0.95069   0.00000  Uiso   1.00
N942   N     0.16665   0.16666   0.71597   0.00000  Uiso   1.00
O943   O     0.16666   0.10655   0.87291   0.00000  Uiso   1.00
O944   O     0.16667   0.22678   0.79375   0.00000  Uiso   1.00
O945   O     0.16666   0.10654   0.79372   0.00000  Uiso   1.00
O946   O     0.16667   0.22679   0.87294   0.00000  Uiso   1.00
O947   O     0.09161   0.16667   0.86379   0.00000  Uiso   1.00
O948   O     0.24172   0.16666   0.80288   0.00000  Uiso   1.00
O949   O     0.09161   0.16666   0.78460   0.00000  Uiso   1.00
O950   O     0.24172   0.16667   0.88207   0.00000  Uiso   1.00
C951   C     0.49954   0.08746   0.83352   0.00000  Uiso   1.00
C952   C     0.51612   0.02137   0.87475   0.00000  Uiso   1.00
C953   C     0.49944   0.29053   0.83323   0.00000  Uiso   1.00
C954   C     0.49882   0.04279   0.83378   0.00000  Uiso   1.00
C955   C     0.46892   0.13959   0.68931   0.00000  Uiso   1.00
C956   C     0.53264   0.19255   0.97759   0.00000  Uiso   1.00
C957   C     0.46722   0.13998   0.97310   0.00000  Uiso   1.00
C958   C     0.53215   0.19377   0.69351   0.00000  Uiso   1.00
C959   C     0.42885   0.10906   0.94751   0.00000  Uiso   1.00
C960   C     0.37315   0.11614   0.95591   0.00000  Uiso   1.00
C961   C     0.56866   0.22600   0.71884   0.00000  Uiso   1.00
C962   C     0.49991   0.24587   0.83316   0.00000  Uiso   1.00
C963   C     0.55254   0.26989   0.70576   0.00000  Uiso   1.00
C964   C     0.40144   0.16667   0.82146   0.00000  Uiso   1.00
C965   C     0.59855   0.16753   0.84510   0.00000  Uiso   1.00
C966   C     0.34622   0.16607   0.81477   0.00000  Uiso   1.00
C967   C     0.65373   0.16972   0.85129   0.00000  Uiso   1.00
C968   C     0.48102   0.02128   0.79278   0.00000  Uiso   1.00
C969   C     0.51667   0.31202   0.87442   0.00000  Uiso   1.00
C970   C     0.48085   0.31191   0.79268   0.00000  Uiso   1.00
Cu971  Cu    0.50000   0.16667   0.88022   0.00000  Uiso   1.00
Cu972  Cu    0.50000   0.16666   0.78645   0.00000  Uiso   1.00
F973   F     0.43925   0.11185   0.71090   0.00000  Uiso   1.00
F974   F     0.56613   0.21750   0.95658   0.00000  Uiso   1.00
H975   H     0.66004   0.16206   0.77953   0.00000  Uiso   1.00
H976   H     0.42944   0.10920   0.90992   0.00000  Uiso   1.00
H977   H     0.43890   0.07736   0.95946   0.00000  Uiso   1.00
H978   H     0.51023   0.27199   0.70455   0.00000  Uiso   1.00
H979   H     0.57192   0.29202   0.73196   0.00000  Uiso   1.00
H980   H     0.56374   0.27920   0.67113   0.00000  Uiso   1.00
H981   H     0.57208   0.22324   0.75669   0.00000  Uiso   1.00
H982   H     0.60827   0.22210   0.70984   0.00000  Uiso   1.00
H983   H     0.33996   0.17474   0.88615   0.00000  Uiso   1.00
H984   H     0.46660   0.03739   0.76103   0.00000  Uiso   1.00
H985   H     0.53096   0.29590   0.90621   0.00000  Uiso   1.00
H986   H     0.46535   0.29565   0.76129   0.00000  Uiso   1.00
H987   H     0.53001   0.03760   0.90669   0.00000  Uiso   1.00
H988   H     0.36677   0.14957   0.95888   0.00000  Uiso   1.00
H989   H     0.34598   0.10317   0.92660   0.00000  Uiso   1.00
H990   H     0.36378   0.10028   0.98832   0.00000  Uiso   1.00
N991   N     0.50001   0.16668   0.95069   0.00000  Uiso   1.00
N992   N     0.49999   0.16666   0.71597   0.00000  Uiso   1.00
O993   O     0.50000   0.10655   0.87291   0.00000  Uiso   1.00
O994   O     0.50000   0.22678   0.79375   0.00000  Uiso   1.00
O995   O     0.50000   0.10654   0.79372   0.00000  Uiso   1.00
O996   O     0.50000   0.22679   0.87294   0.00000  Uiso   1.00
O997   O     0.42495   0.16667   0.86379   0.00000  Uiso   1.00
O998   O     0.57505   0.16666   0.80288   0.00000  Uiso   1.00
O999   O     0.42494   0.16666   0.78460   0.00000  Uiso   1.00
O1000  O     0.57506   0.16667   0.88207   0.00000  Uiso   1.00
C1001  C     0.83288   0.08746   0.83352   0.00000  Uiso   1.00
C1002  C     0.84946   0.02137   0.87475   0.00000  Uiso   1.00
C1003  C     0.83278   0.29053   0.83323   0.00000  Uiso   1.00
C1004  C     0.83215   0.04279   0.83378   0.00000  Uiso   1.00
C1005  C     0.80225   0.13959   0.68931   0.00000  Uiso   1.00
C1006  C     0.86597   0.19255   0.97759   0.00000  Uiso   1.00
C1007  C     0.80055   0.13998   0.97310   0.00000  Uiso   1.00
C1008  C     0.86549   0.19377   0.69351   0.00000  Uiso   1.00
C1009  C     0.76218   0.10906   0.94751   0.00000  Uiso   1.00
C1010  C     0.70648   0.11614   0.95591   0.00000  Uiso   1.00
C1011  C     0.90199   0.22600   0.71884   0.00000  Uiso   1.00
C1012  C     0.83325   0.24587   0.83316   0.00000  Uiso   1.00
C1013  C     0.88587   0.26989   0.70576   0.00000  Uiso   1.00
C1014  C     0.73478   0.16667   0.82146   0.00000  Uiso   1.00
C1015  C     0.93189   0.16753   0.84510   0.00000  Uiso   1.00
C1016  C     0.67956   0.16607   0.81477   0.00000  Uiso   1.00
C1017  C     0.98707   0.16972   0.85129   0.00000  Uiso   1.00
C1018  C     0.81435   0.02128   0.79278   0.00000  Uiso   1.00
C1019  C     0.85000   0.31202   0.87442   0.00000  Uiso   1.00
C1020  C     0.81419   0.31191   0.79268   0.00000  Uiso   1.00
Cu1021 Cu    0.83333   0.16667   0.88022   0.00000  Uiso   1.00
Cu1022 Cu    0.83333   0.16666   0.78645   0.00000  Uiso   1.00
F1023  F     0.77258   0.11185   0.71090   0.00000  Uiso   1.00
F1024  F     0.89946   0.21750   0.95658   0.00000  Uiso   1.00
H1025  H     0.99338   0.16206   0.77953   0.00000  Uiso   1.00
H1026  H     0.76277   0.10920   0.90992   0.00000  Uiso   1.00
H1027  H     0.77223   0.07736   0.95946   0.00000  Uiso   1.00
H1028  H     0.84356   0.27199   0.70455   0.00000  Uiso   1.00
H1029  H     0.90525   0.29202   0.73196   0.00000  Uiso   1.00
H1030  H     0.89707   0.27920   0.67113   0.00000  Uiso   1.00
H1031  H     0.90541   0.22324   0.75669   0.00000  Uiso   1.00
H1032  H     0.94160   0.22210   0.70984   0.00000  Uiso   1.00
H1033  H     0.67329   0.17474   0.88615   0.00000  Uiso   1.00
H1034  H     0.79993   0.03739   0.76103   0.00000  Uiso   1.00
H1035  H     0.86429   0.29590   0.90621   0.00000  Uiso   1.00
H1036  H     0.79869   0.29565   0.76129   0.00000  Uiso   1.00
H1037  H     0.86334   0.03760   0.90669   0.00000  Uiso   1.00
H1038  H     0.70010   0.14957   0.95888   0.00000  Uiso   1.00
H1039  H     0.67931   0.10317   0.92660   0.00000  Uiso   1.00
H1040  H     0.69711   0.10028   0.98832   0.00000  Uiso   1.00
N1041  N     0.83335   0.16668   0.95069   0.00000  Uiso   1.00
N1042  N     0.83332   0.16666   0.71597   0.00000  Uiso   1.00
O1043  O     0.83333   0.10655   0.87291   0.00000  Uiso   1.00
O1044  O     0.83334   0.22678   0.79375   0.00000  Uiso   1.00
O1045  O     0.83333   0.10654   0.79372   0.00000  Uiso   1.00
O1046  O     0.83334   0.22679   0.87294   0.00000  Uiso   1.00
O1047  O     0.75828   0.16667   0.86379   0.00000  Uiso   1.00
O1048  O     0.90839   0.16666   0.80288   0.00000  Uiso   1.00
O1049  O     0.75828   0.16666   0.78460   0.00000  Uiso   1.00
O1050  O     0.90839   0.16667   0.88207   0.00000  Uiso   1.00
C1051  C     0.16621   0.42080   0.83352   0.00000  Uiso   1.00
C1052  C     0.18279   0.35471   0.87475   0.00000  Uiso   1.00
C1053  C     0.16611   0.62386   0.83323   0.00000  Uiso   1.00
C1054  C     0.16549   0.37612   0.83378   0.00000  Uiso   1.00
C1055  C     0.13559   0.47292   0.68931   0.00000  Uiso   1.00
C1056  C     0.19931   0.52589   0.97759   0.00000  Uiso   1.00
C1057  C     0.13389   0.47331   0.97310   0.00000  Uiso   1.00
C1058  C     0.19882   0.52711   0.69351   0.00000  Uiso   1.00
C1059  C     0.09551   0.44239   0.94751   0.00000  Uiso   1.00
C1060  C     0.03981   0.44948   0.95591   0.00000  Uiso   1.00
C1061  C     0.23533   0.55933   0.71884   0.00000  Uiso   1.00
C1062  C     0.16658   0.57920   0.83316   0.00000  Uiso   1.00
C1063  C     0.21920   0.60322   0.70576   0.00000  Uiso   1.00
C1064  C     0.06811   0.50000   0.82146   0.00000  Uiso   1.00
C1065  C     0.26522   0.50087   0.84510   0.00000  Uiso   1.00
C1066  C     0.01289   0.49940   0.81477   0.00000  Uiso   1.00
C1067  C     0.32040   0.50305   0.85129   0.00000  Uiso   1.00
C1068  C     0.14768   0.35461   0.79278   0.00000  Uiso   1.00
C1069  C     0.18334   0.64535   0.87442   0.00000  Uiso   1.00
C1070  C     0.14752   0.64524   0.79268   0.00000  Uiso   1.00
Cu1071 Cu    0.16667   0.50001   0.88022   0.00000  Uiso   1.00
Cu1072 Cu    0.16667   0.49999   0.78645   0.00000  Uiso   1.00
F1073  F     0.10592   0.44518   0.71090   0.00000  Uiso   1.00
F1074  F     0.23280   0.55084   0.95658   0.00000  Uiso   1.00
H1075  H     0.32671   0.49539   0.77953   0.00000  Uiso   1.00
H1076  H     0.09611   0.44254   0.90992   0.00000  Uiso   1.00
H1077  H     0.10557   0.41069   0.95946   0.00000  Uiso   1.00
H1078  H     0.17689   0.60532   0.70455   0.00000  Uiso   1.00
H1079  H     0.23858   0.62535   0.73196   0.00000  Uiso   1.00
H1080  H     0.23041   0.61254   0.67113   0.00000  Uiso   1.00
H1081  H     0.23874   0.55657   0.75669   0.00000  Uiso   1.00
H1082  H     0.27493   0.55543   0.70984   0.00000  Uiso   1.00
H1083  H     0.00663   0.50808   0.88615   0.00000  Uiso   1.00
H1084  H     0.13327   0.37073   0.76103   0.00000  Uiso   1.00
H1085  H     0.19763   0.62923   0.90621   0.00000  Uiso   1.00
H1086  H     0.13202   0.62899   0.76129   0.00000  Uiso   1.00
H1087  H     0.19667   0.37093   0.90669   0.00000  Uiso   1.00
H1088  H     0.03344   0.48290   0.95888   0.00000  Uiso   1.00
H1089  H     0.01265   0.43650   0.92660   0.00000  Uiso   1.00
H1090  H     0.03045   0.43361   0.98832   0.00000  Uiso   1.00
N1091  N     0.16668   0.50001   0.95069   0.00000  Uiso   1.00
N1092  N     0.16665   0.49999   0.71597   0.00000  Uiso   1.00
O1093  O     0.16666   0.43989   0.87291   0.00000  Uiso   1.00
O1094  O     0.16667   0.56011   0.79375   0.00000  Uiso   1.00
O1095  O     0.16666   0.43988   0.79372   0.00000  Uiso   1.00
O1096  O     0.16667   0.56012   0.87294   0.00000  Uiso   1.00
O1097  O     0.09161   0.50000   0.86379   0.00000  Uiso   1.00
O1098  O     0.24172   0.50000   0.80288   0.00000  Uiso   1.00
O1099  O     0.09161   0.49999   0.78460   0.00000  Uiso   1.00
O1100  O     0.24172   0.50001   0.88207   0.00000  Uiso   1.00
C1101  C     0.49954   0.42080   0.83352   0.00000  Uiso   1.00
C1102  C     0.51612   0.35471   0.87475   0.00000  Uiso   1.00
C1103  C     0.49944   0.62386   0.83323   0.00000  Uiso   1.00
C1104  C     0.49882   0.37612   0.83378   0.00000  Uiso   1.00
C1105  C     0.46892   0.47292   0.68931   0.00000  Uiso   1.00
C1106  C     0.53264   0.52589   0.97759   0.00000  Uiso   1.00
C1107  C     0.46722   0.47331   0.97310   0.00000  Uiso   1.00
C1108  C     0.53215   0.52711   0.69351   0.00000  Uiso   1.00
C1109  C     0.42885   0.44239   0.94751   0.00000  Uiso   1.00
C1110  C     0.37315   0.44948   0.95591   0.00000  Uiso   1.00
C1111  C     0.56866   0.55933   0.71884   0.00000  Uiso   1.00
C1112  C     0.49991   0.57920   0.83316   0.00000  Uiso   1.00
C1113  C     0.55254   0.60322   0.70576   0.00000  Uiso   1.00
C1114  C     0.40144   0.50000   0.82146   0.00000  Uiso   1.00
C1115  C     0.59855   0.50087   0.84510   0.00000  Uiso   1.00
C1116  C     0.34622   0.49940   0.81477   0.00000  Uiso   1.00
C1117  C     0.65373   0.50305   0.85129   0.00000  Uiso   1.00
C1118  C     0.48102   0.35461   0.79278   0.00000  Uiso   1.00
C1119  C     0.51667   0.64535   0.87442   0.00000  Uiso   1.00
C1120  C     0.48085   0.64524   0.79268   0.00000  Uiso   1.00
Cu1121 Cu    0.50000   0.50001   0.88022   0.00000  Uiso   1.00
Cu1122 Cu    0.50000   0.49999   0.78645   0.00000  Uiso   1.00
F1123  F     0.43925   0.44518   0.71090   0.00000  Uiso   1.00
F1124  F     0.56613   0.55084   0.95658   0.00000  Uiso   1.00
H1125  H     0.66004   0.49539   0.77953   0.00000  Uiso   1.00
H1126  H     0.42944   0.44254   0.90992   0.00000  Uiso   1.00
H1127  H     0.43890   0.41069   0.95946   0.00000  Uiso   1.00
H1128  H     0.51023   0.60532   0.70455   0.00000  Uiso   1.00
H1129  H     0.57192   0.62535   0.73196   0.00000  Uiso   1.00
H1130  H     0.56374   0.61254   0.67113   0.00000  Uiso   1.00
H1131  H     0.57208   0.55657   0.75669   0.00000  Uiso   1.00
H1132  H     0.60827   0.55543   0.70984   0.00000  Uiso   1.00
H1133  H     0.33996   0.50808   0.88615   0.00000  Uiso   1.00
H1134  H     0.46660   0.37073   0.76103   0.00000  Uiso   1.00
H1135  H     0.53096   0.62923   0.90621   0.00000  Uiso   1.00
H1136  H     0.46535   0.62899   0.76129   0.00000  Uiso   1.00
H1137  H     0.53001   0.37093   0.90669   0.00000  Uiso   1.00
H1138  H     0.36677   0.48290   0.95888   0.00000  Uiso   1.00
H1139  H     0.34598   0.43650   0.92660   0.00000  Uiso   1.00
H1140  H     0.36378   0.43361   0.98832   0.00000  Uiso   1.00
N1141  N     0.50001   0.50001   0.95069   0.00000  Uiso   1.00
N1142  N     0.49999   0.49999   0.71597   0.00000  Uiso   1.00
O1143  O     0.50000   0.43989   0.87291   0.00000  Uiso   1.00
O1144  O     0.50000   0.56011   0.79375   0.00000  Uiso   1.00
O1145  O     0.50000   0.43988   0.79372   0.00000  Uiso   1.00
O1146  O     0.50000   0.56012   0.87294   0.00000  Uiso   1.00
O1147  O     0.42495   0.50000   0.86379   0.00000  Uiso   1.00
O1148  O     0.57505   0.50000   0.80288   0.00000  Uiso   1.00
O1149  O     0.42494   0.49999   0.78460   0.00000  Uiso   1.00
O1150  O     0.57506   0.50001   0.88207   0.00000  Uiso   1.00
C1151  C     0.83288   0.42080   0.83352   0.00000  Uiso   1.00
C1152  C     0.84946   0.35471   0.87475   0.00000  Uiso   1.00
C1153  C     0.83278   0.62386   0.83323   0.00000  Uiso   1.00
C1154  C     0.83215   0.37612   0.83378   0.00000  Uiso   1.00
C1155  C     0.80225   0.47292   0.68931   0.00000  Uiso   1.00
C1156  C     0.86597   0.52589   0.97759   0.00000  Uiso   1.00
C1157  C     0.80055   0.47331   0.97310   0.00000  Uiso   1.00
C1158  C     0.86549   0.52711   0.69351   0.00000  Uiso   1.00
C1159  C     0.76218   0.44239   0.94751   0.00000  Uiso   1.00
C1160  C     0.70648   0.44948   0.95591   0.00000  Uiso   1.00
C1161  C     0.90199   0.55933   0.71884   0.00000  Uiso   1.00
C1162  C     0.83325   0.57920   0.83316   0.00000  Uiso   1.00
C1163  C     0.88587   0.60322   0.70576   0.00000  Uiso   1.00
C1164  C     0.73478   0.50000   0.82146   0.00000  Uiso   1.00
C1165  C     0.93189   0.50087   0.84510   0.00000  Uiso   1.00
C1166  C     0.67956   0.49940   0.81477   0.00000  Uiso   1.00
C1167  C     0.98707   0.50305   0.85129   0.00000  Uiso   1.00
C1168  C     0.81435   0.35461   0.79278   0.00000  Uiso   1.00
C1169  C     0.85000   0.64535   0.87442   0.00000  Uiso   1.00
C1170  C     0.81419   0.64524   0.79268   0.00000  Uiso   1.00
Cu1171 Cu    0.83333   0.50001   0.88022   0.00000  Uiso   1.00
Cu1172 Cu    0.83333   0.49999   0.78645   0.00000  Uiso   1.00
F1173  F     0.77258   0.44518   0.71090   0.00000  Uiso   1.00
F1174  F     0.89946   0.55084   0.95658   0.00000  Uiso   1.00
H1175  H     0.99338   0.49539   0.77953   0.00000  Uiso   1.00
H1176  H     0.76277   0.44254   0.90992   0.00000  Uiso   1.00
H1177  H     0.77223   0.41069   0.95946   0.00000  Uiso   1.00
H1178  H     0.84356   0.60532   0.70455   0.00000  Uiso   1.00
H1179  H     0.90525   0.62535   0.73196   0.00000  Uiso   1.00
H1180  H     0.89707   0.61254   0.67113   0.00000  Uiso   1.00
H1181  H     0.90541   0.55657   0.75669   0.00000  Uiso   1.00
H1182  H     0.94160   0.55543   0.70984   0.00000  Uiso   1.00
H1183  H     0.67329   0.50808   0.88615   0.00000  Uiso   1.00
H1184  H     0.79993   0.37073   0.76103   0.00000  Uiso   1.00
H1185  H     0.86429   0.62923   0.90621   0.00000  Uiso   1.00
H1186  H     0.79869   0.62899   0.76129   0.00000  Uiso   1.00
H1187  H     0.86334   0.37093   0.90669   0.00000  Uiso   1.00
H1188  H     0.70010   0.48290   0.95888   0.00000  Uiso   1.00
H1189  H     0.67931   0.43650   0.92660   0.00000  Uiso   1.00
H1190  H     0.69711   0.43361   0.98832   0.00000  Uiso   1.00
N1191  N     0.83335   0.50001   0.95069   0.00000  Uiso   1.00
N1192  N     0.83332   0.49999   0.71597   0.00000  Uiso   1.00
O1193  O     0.83333   0.43989   0.87291   0.00000  Uiso   1.00
O1194  O     0.83334   0.56011   0.79375   0.00000  Uiso   1.00
O1195  O     0.83333   0.43988   0.79372   0.00000  Uiso   1.00
O1196  O     0.83334   0.56012   0.87294   0.00000  Uiso   1.00
O1197  O     0.75828   0.50000   0.86379   0.00000  Uiso   1.00
O1198  O     0.90839   0.50000   0.80288   0.00000  Uiso   1.00
O1199  O     0.75828   0.49999   0.78460   0.00000  Uiso   1.00
O1200  O     0.90839   0.50001   0.88207   0.00000  Uiso   1.00
C1201  C     0.16621   0.75413   0.83352   0.00000  Uiso   1.00
C1202  C     0.18279   0.68804   0.87475   0.00000  Uiso   1.00
C1203  C     0.16611   0.95720   0.83323   0.00000  Uiso   1.00
C1204  C     0.16549   0.70945   0.83378   0.00000  Uiso   1.00
C1205  C     0.13559   0.80626   0.68931   0.00000  Uiso   1.00
C1206  C     0.19931   0.85922   0.97759   0.00000  Uiso   1.00
C1207  C     0.13389   0.80664   0.97310   0.00000  Uiso   1.00
C1208  C     0.19882   0.86044   0.69351   0.00000  Uiso   1.00
C1209  C     0.09551   0.77572   0.94751   0.00000  Uiso   1.00
C1210  C     0.03981   0.78281   0.95591   0.00000  Uiso   1.00
C1211  C     0.23533   0.89267   0.71884   0.00000  Uiso   1.00
C1212  C     0.16658   0.91254   0.83316   0.00000  Uiso   1.00
C1213  C     0.21920   0.93655   0.70576   0.00000  Uiso   1.00
C1214  C     0.06811   0.83334   0.82146   0.00000  Uiso   1.00
C1215  C     0.26522   0.83420   0.84510   0.00000  Uiso   1.00
C1216  C     0.01289   0.83273   0.81477   0.00000  Uiso   1.00
C1217  C     0.32040   0.83639   0.85129   0.00000  Uiso   1.00
C1218  C     0.14768   0.68794   0.79278   0.00000  Uiso   1.00
C1219  C     0.18334   0.97869   0.87442   0.00000  Uiso   1.00
C1220  C     0.14752   0.97858   0.79268   0.00000  Uiso   1.00
Cu1221 Cu    0.16667   0.83334   0.88022   0.00000  Uiso   1.00
Cu1222 Cu    0.16667   0.83333   0.78645   0.00000  Uiso   1.00
F1223  F     0.10592   0.77852   0.71090   0.00000  Uiso   1.00
F1224  F     0.23280   0.88417   0.95658   0.00000  Uiso   1.00
H1225  H     0.32671   0.82872   0.77953   0.00000  Uiso   1.00
H1226  H     0.09611   0.77587   0.90992   0.00000  Uiso   1.00
H1227  H     0.10557   0.74402   0.95946   0.00000  Uiso   1.00
H1228  H     0.17689   0.93865   0.70455   0.00000  Uiso   1.00
H1229  H     0.23858   0.95869   0.73196   0.00000  Uiso   1.00
H1230  H     0.23041   0.94587   0.67113   0.00000  Uiso   1.00
H1231  H     0.23874   0.88991   0.75669   0.00000  Uiso   1.00
H1232  H     0.27493   0.88876   0.70984   0.00000  Uiso   1.00
H1233  H     0.00663   0.84141   0.88615   0.00000  Uiso   1.00
H1234  H     0.13327   0.70406   0.76103   0.00000  Uiso   1.00
H1235  H     0.19763   0.96256   0.90621   0.00000  Uiso   1.00
H1236  H     0.13202   0.96232   0.76129   0.00000  Uiso   1.00
H1237  H     0.19667   0.70426   0.90669   0.00000  Uiso   1.00
H1238  H     0.03344   0.81623   0.95888   0.00000  Uiso   1.00
H1239  H     0.01265   0.76983   0.92660   0.00000  Uiso   1.00
H1240  H     0.03045   0.76694   0.98832   0.00000  Uiso   1.00
N1241  N     0.16668   0.83334   0.95069   0.00000  Uiso   1.00
N1242  N     0.16665   0.83332   0.71597   0.00000  Uiso   1.00
O1243  O     0.16666   0.77322   0.87291   0.00000  Uiso   1.00
O1244  O     0.16667   0.89345   0.79375   0.00000  Uiso   1.00
O1245  O     0.16666   0.77321   0.79372   0.00000  Uiso   1.00
O1246  O     0.16667   0.89346   0.87294   0.00000  Uiso   1.00
O1247  O     0.09161   0.83334   0.86379   0.00000  Uiso   1.00
O1248  O     0.24172   0.83333   0.80288   0.00000  Uiso   1.00
O1249  O     0.09161   0.83333   0.78460   0.00000  Uiso   1.00
O1250  O     0.24172   0.83334   0.88207   0.00000  Uiso   1.00
C1251  C     0.49954   0.75413   0.83352   0.00000  Uiso   1.00
C1252  C     0.51612   0.68804   0.87475   0.00000  Uiso   1.00
C1253  C     0.49944   0.95720   0.83323   0.00000  Uiso   1.00
C1254  C     0.49882   0.70945   0.83378   0.00000  Uiso   1.00
C1255  C     0.46892   0.80626   0.68931   0.00000  Uiso   1.00
C1256  C     0.53264   0.85922   0.97759   0.00000  Uiso   1.00
C1257  C     0.46722   0.80664   0.97310   0.00000  Uiso   1.00
C1258  C     0.53215   0.86044   0.69351   0.00000  Uiso   1.00
C1259  C     0.42885   0.77572   0.94751   0.00000  Uiso   1.00
C1260  C     0.37315   0.78281   0.95591   0.00000  Uiso   1.00
C1261  C     0.56866   0.89267   0.71884   0.00000  Uiso   1.00
C1262  C     0.49991   0.91254   0.83316   0.00000  Uiso   1.00
C1263  C     0.55254   0.93655   0.70576   0.00000  Uiso   1.00
C1264  C     0.40144   0.83334   0.82146   0.00000  Uiso   1.00
C1265  C     0.59855   0.83420   0.84510   0.00000  Uiso   1.00
C1266  C     0.34622   0.83273   0.81477   0.00000  Uiso   1.00
C1267  C     0.65373   0.83639   0.85129   0.00000  Uiso   1.00
C1268  C     0.48102   0.68794   0.79278   0.00000  Uiso   1.00
C1269  C     0.51667   0.97869   0.87442   0.00000  Uiso   1.00
C1270  C     0.48085   0.97858   0.79268   0.00000  Uiso   1.00
Cu1271 Cu    0.50000   0.83334   0.88022   0.00000  Uiso   1.00
Cu1272 Cu    0.50000   0.83333   0.78645   0.00000  Uiso   1.00
F1273  F     0.43925   0.77852   0.71090   0.00000  Uiso   1.00
F1274  F     0.56613   0.88417   0.95658   0.00000  Uiso   1.00
H1275  H     0.66004   0.82872   0.77953   0.00000  Uiso   1.00
H1276  H     0.42944   0.77587   0.90992   0.00000  Uiso   1.00
H1277  H     0.43890   0.74402   0.95946   0.00000  Uiso   1.00
H1278  H     0.51023   0.93865   0.70455   0.00000  Uiso   1.00
H1279  H     0.57192   0.95869   0.73196   0.00000  Uiso   1.00
H1280  H     0.56374   0.94587   0.67113   0.00000  Uiso   1.00
H1281  H     0.57208   0.88991   0.75669   0.00000  Uiso   1.00
H1282  H     0.60827   0.88876   0.70984   0.00000  Uiso   1.00
H1283  H     0.33996   0.84141   0.88615   0.00000  Uiso   1.00
H1284  H     0.46660   0.70406   0.76103   0.00000  Uiso   1.00
H1285  H     0.53096   0.96256   0.90621   0.00000  Uiso   1.00
H1286  H     0.46535   0.96232   0.76129   0.00000  Uiso   1.00
H1287  H     0.53001   0.70426   0.90669   0.00000  Uiso   1.00
H1288  H     0.36677   0.81623   0.95888   0.00000  Uiso   1.00
H1289  H     0.34598   0.76983   0.92660   0.00000  Uiso   1.00
H1290  H     0.36378   0.76694   0.98832   0.00000  Uiso   1.00
N1291  N     0.50001   0.83334   0.95069   0.00000  Uiso   1.00
N1292  N     0.49999   0.83332   0.71597   0.00000  Uiso   1.00
O1293  O     0.50000   0.77322   0.87291   0.00000  Uiso   1.00
O1294  O     0.50000   0.89345   0.79375   0.00000  Uiso   1.00
O1295  O     0.50000   0.77321   0.79372   0.00000  Uiso   1.00
O1296  O     0.50000   0.89346   0.87294   0.00000  Uiso   1.00
O1297  O     0.42495   0.83334   0.86379   0.00000  Uiso   1.00
O1298  O     0.57505   0.83333   0.80288   0.00000  Uiso   1.00
O1299  O     0.42494   0.83333   0.78460   0.00000  Uiso   1.00
O1300  O     0.57506   0.83334   0.88207   0.00000  Uiso   1.00
C1301  C     0.83288   0.75413   0.83352   0.00000  Uiso   1.00
C1302  C     0.84946   0.68804   0.87475   0.00000  Uiso   1.00
C1303  C     0.83278   0.95720   0.83323   0.00000  Uiso   1.00
C1304  C     0.83215   0.70945   0.83378   0.00000  Uiso   1.00
C1305  C     0.80225   0.80626   0.68931   0.00000  Uiso   1.00
C1306  C     0.86597   0.85922   0.97759   0.00000  Uiso   1.00
C1307  C     0.80055   0.80664   0.97310   0.00000  Uiso   1.00
C1308  C     0.86549   0.86044   0.69351   0.00000  Uiso   1.00
C1309  C     0.76218   0.77572   0.94751   0.00000  Uiso   1.00
C1310  C     0.70648   0.78281   0.95591   0.00000  Uiso   1.00
C1311  C     0.90199   0.89267   0.71884   0.00000  Uiso   1.00
C1312  C     0.83325   0.91254   0.83316   0.00000  Uiso   1.00
C1313  C     0.88587   0.93655   0.70576   0.00000  Uiso   1.00
C1314  C     0.73478   0.83334   0.82146   0.00000  Uiso   1.00
C1315  C     0.93189   0.83420   0.84510   0.00000  Uiso   1.00
C1316  C     0.67956   0.83273   0.81477   0.00000  Uiso   1.00
C1317  C     0.98707   0.83639   0.85129   0.00000  Uiso   1.00
C1318  C     0.81435   0.68794   0.79278   0.00000  Uiso   1.00
C1319  C     0.85000   0.97869   0.87442   0.00000  Uiso   1.00
C1320  C     0.81419   0.97858   0.79268   0.00000  Uiso   1.00
Cu1321 Cu    0.83333   0.83334   0.88022   0.00000  Uiso   1.00
Cu1322 Cu    0.83333   0.83333   0.78645   0.00000  Uiso   1.00
F1323  F     0.77258   0.77852   0.71090   0.00000  Uiso   1.00
F1324  F     0.89946   0.88417   0.95658   0.00000  Uiso   1.00
H1325  H     0.99338   0.82872   0.77953   0.00000  Uiso   1.00
H1326  H     0.76277   0.77587   0.90992   0.00000  Uiso   1.00
H1327  H     0.77223   0.74402   0.95946   0.00000  Uiso   1.00
H1328  H     0.84356   0.93865   0.70455   0.00000  Uiso   1.00
H1329  H     0.90525   0.95869   0.73196   0.00000  Uiso   1.00
H1330  H     0.89707   0.94587   0.67113   0.00000  Uiso   1.00
H1331  H     0.90541   0.88991   0.75669   0.00000  Uiso   1.00
H1332  H     0.94160   0.88876   0.70984   0.00000  Uiso   1.00
H1333  H     0.67329   0.84141   0.88615   0.00000  Uiso   1.00
H1334  H     0.79993   0.70406   0.76103   0.00000  Uiso   1.00
H1335  H     0.86429   0.96256   0.90621   0.00000  Uiso   1.00
H1336  H     0.79869   0.96232   0.76129   0.00000  Uiso   1.00
H1337  H     0.86334   0.70426   0.90669   0.00000  Uiso   1.00
H1338  H     0.70010   0.81623   0.95888   0.00000  Uiso   1.00
H1339  H     0.67931   0.76983   0.92660   0.00000  Uiso   1.00
H1340  H     0.69711   0.76694   0.98832   0.00000  Uiso   1.00
N1341  N     0.83335   0.83334   0.95069   0.00000  Uiso   1.00
N1342  N     0.83332   0.83332   0.71597   0.00000  Uiso   1.00
O1343  O     0.83333   0.77322   0.87291   0.00000  Uiso   1.00
O1344  O     0.83334   0.89345   0.79375   0.00000  Uiso   1.00
O1345  O     0.83333   0.77321   0.79372   0.00000  Uiso   1.00
O1346  O     0.83334   0.89346   0.87294   0.00000  Uiso   1.00
O1347  O     0.75828   0.83334   0.86379   0.00000  Uiso   1.00
O1348  O     0.90839   0.83333   0.80288   0.00000  Uiso   1.00
O1349  O     0.75828   0.83333   0.78460   0.00000  Uiso   1.00
O1350  O     0.90839   0.83334   0.88207   0.00000  Uiso   1.00
loop_
_geom_bond_atom_site_label_1
_geom_bond_atom_site_label_2
_geom_bond_distance
_geom_bond_site_symmetry_2
_ccdc_geom_bond_type
C1     C4      1.448   .     S
C1     O45     1.297   .     A
C1     O43     1.301   .     A
C2     C4      1.399   .     A
C2     H37     1.083   .     S
C2     C319    1.385   1_545 S
C3     C19     1.403   .     A
C3     C20     1.398   .     A
C3     C12     1.449   .     S
C4     C18     1.401   .     A
C5     N42     1.352   .     A
C5     F23     1.356   .     S
C5     C907    1.425   1_554 S
C6     F24     1.357   .     S
C6     N41     1.352   .     A
C6     C458    1.424   .     S
C7     N41     1.399   .     A
C7     C9      1.520   .     S
C7     C455    1.425   .     S
C8     C11     1.517   .     S
C8     N42     1.397   .     A
C8     C906    1.424   1_554 S
C9     C10     1.534   .     S
C9     H26     1.086   .     S
C9     H27     1.112   .     S
C10    H38     1.110   .     S
C10    H40     1.109   .     S
C10    H39     1.111   .     S
C11    H32     1.112   .     S
C11    C13     1.531   .     S
C11    H31     1.087   .     S
C12    O46     1.296   .     A
C12    O44     1.303   .     A
C13    H28     1.109   .     S
C13    H29     1.111   .     S
C13    H30     1.109   .     S
C14    O47     1.299   .     A
C14    C16     1.434   .     S
C14    O49     1.292   .     A
C15    O48     1.296   .     A
C15    C17     1.432   .     S
C15    O50     1.294   .     A
C16    C117    1.329   1_455 S
C16    H125    1.088   1_455 S
C17    C66     1.329   .     S
C17    H83     1.083   .     S
C18    H34     1.083   .     S
C18    C320    1.384   1_545 S
C19    H35     1.083   .     S
C19    C152    1.385   .     S
C20    H36     1.081   .     S
C20    C168    1.384   .     S
Cu21   Cu22    2.706   .     S
Cu21   N41     2.034   .     S
Cu21   O50     1.958   .     S
Cu21   O46     1.957   .     S
Cu21   O43     1.964   .     S
Cu21   O47     1.963   .     S
Cu22   O48     1.963   .     S
Cu22   N42     2.034   .     S
Cu22   O49     1.958   .     S
Cu22   O45     1.957   .     S
Cu22   O44     1.964   .     S
H25    C66     1.088   .     S
H33    C117    1.083   1_455 S
C51    C54     1.448   .     S
C51    O95     1.297   .     A
C51    O93     1.301   .     A
C52    C54     1.399   .     A
C52    H87     1.083   .     S
C52    C369    1.385   1_545 S
C53    C69     1.403   .     A
C53    C70     1.398   .     A
C53    C62     1.449   .     S
C54    C68     1.401   .     A
C55    N92     1.352   .     A
C55    F73     1.356   .     S
C55    C957    1.425   1_554 S
C56    F74     1.357   .     S
C56    N91     1.352   .     A
C56    C508    1.424   .     S
C57    N91     1.399   .     A
C57    C59     1.520   .     S
C57    C505    1.425   .     S
C58    C61     1.517   .     S
C58    N92     1.397   .     A
C58    C956    1.424   1_554 S
C59    C60     1.534   .     S
C59    H76     1.086   .     S
C59    H77     1.112   .     S
C60    H88     1.110   .     S
C60    H90     1.109   .     S
C60    H89     1.111   .     S
C61    H82     1.112   .     S
C61    C63     1.531   .     S
C61    H81     1.087   .     S
C62    O96     1.296   .     A
C62    O94     1.303   .     A
C63    H78     1.109   .     S
C63    H79     1.111   .     S
C63    H80     1.109   .     S
C64    O97     1.299   .     A
C64    C66     1.434   .     S
C64    O99     1.292   .     A
C65    O98     1.296   .     A
C65    C67     1.432   .     S
C65    O100    1.294   .     A
C67    C116    1.329   .     S
C67    H133    1.083   .     S
C68    H84     1.083   .     S
C68    C370    1.384   1_545 S
C69    H85     1.083   .     S
C69    C202    1.385   .     S
C70    H86     1.081   .     S
C70    C218    1.384   .     S
Cu71   Cu72    2.706   .     S
Cu71   N91     2.034   .     S
Cu71   O100    1.958   .     S
Cu71   O96     1.957   .     S
Cu71   O93     1.964   .     S
Cu71   O97     1.963   .     S
Cu72   O98     1.963   .     S
Cu72   N92     2.034   .     S
Cu72   O99     1.958   .     S
Cu72   O95     1.957   .     S
Cu72   O94     1.964   .     S
H75    C116    1.088   .     S
C101   C104    1.448   .     S
C101   O145    1.297   .     A
C101   O143    1.301   .     A
C102   C104    1.399   .     A
C102   H137    1.083   .     S
C102   C419    1.385   1_545 S
C103   C119    1.403   .     A
C103   C120    1.398   .     A
C103   C112    1.449   .     S
C104   C118    1.401   .     A
C105   N142    1.352   .     A
C105   F123    1.356   .     S
C105   C1007   1.425   1_554 S
C106   F124    1.357   .     S
C106   N141    1.352   .     A
C106   C558    1.424   .     S
C107   N141    1.399   .     A
C107   C109    1.520   .     S
C107   C555    1.425   .     S
C108   C111    1.517   .     S
C108   N142    1.397   .     A
C108   C1006   1.424   1_554 S
C109   C110    1.534   .     S
C109   H126    1.086   .     S
C109   H127    1.112   .     S
C110   H138    1.110   .     S
C110   H140    1.109   .     S
C110   H139    1.111   .     S
C111   H132    1.112   .     S
C111   C113    1.531   .     S
C111   H131    1.087   .     S
C112   O146    1.296   .     A
C112   O144    1.303   .     A
C113   H128    1.109   .     S
C113   H129    1.111   .     S
C113   H130    1.109   .     S
C114   O147    1.299   .     A
C114   C116    1.434   .     S
C114   O149    1.292   .     A
C115   O148    1.296   .     A
C115   C117    1.432   .     S
C115   O150    1.294   .     A
C117   C16     1.329   1_655 S
C117   H33     1.083   1_655 S
C118   H134    1.083   .     S
C118   C420    1.384   1_545 S
C119   H135    1.083   .     S
C119   C252    1.385   .     S
C120   H136    1.081   .     S
C120   C268    1.384   .     S
Cu121  Cu122   2.706   .     S
Cu121  N141    2.034   .     S
Cu121  O150    1.958   .     S
Cu121  O146    1.957   .     S
Cu121  O143    1.964   .     S
Cu121  O147    1.963   .     S
Cu122  O148    1.963   .     S
Cu122  N142    2.034   .     S
Cu122  O149    1.958   .     S
Cu122  O145    1.957   .     S
Cu122  O144    1.964   .     S
H125   C16     1.088   1_655 S
C151   C154    1.448   .     S
C151   O195    1.297   .     A
C151   O193    1.301   .     A
C152   C154    1.399   .     A
C152   H187    1.083   .     S
C153   C169    1.403   .     A
C153   C170    1.398   .     A
C153   C162    1.449   .     S
C154   C168    1.401   .     A
C155   N192    1.352   .     A
C155   F173    1.356   .     S
C155   C1057   1.425   1_554 S
C156   F174    1.357   .     S
C156   N191    1.352   .     A
C156   C608    1.424   .     S
C157   N191    1.399   .     A
C157   C159    1.520   .     S
C157   C605    1.425   .     S
C158   C161    1.517   .     S
C158   N192    1.397   .     A
C158   C1056   1.424   1_554 S
C159   C160    1.534   .     S
C159   H176    1.086   .     S
C159   H177    1.112   .     S
C160   H188    1.110   .     S
C160   H190    1.109   .     S
C160   H189    1.111   .     S
C161   H182    1.112   .     S
C161   C163    1.531   .     S
C161   H181    1.087   .     S
C162   O196    1.296   .     A
C162   O194    1.303   .     A
C163   H178    1.109   .     S
C163   H179    1.111   .     S
C163   H180    1.109   .     S
C164   O197    1.299   .     A
C164   C166    1.434   .     S
C164   O199    1.292   .     A
C165   O198    1.296   .     A
C165   C167    1.432   .     S
C165   O200    1.294   .     A
C166   C267    1.329   1_455 S
C166   H275    1.088   1_455 S
C167   C216    1.329   .     S
C167   H233    1.083   .     S
C168   H184    1.083   .     S
C169   H185    1.083   .     S
C169   C302    1.385   .     S
C170   H186    1.081   .     S
C170   C318    1.384   .     S
Cu171  Cu172   2.706   .     S
Cu171  N191    2.034   .     S
Cu171  O200    1.958   .     S
Cu171  O196    1.957   .     S
Cu171  O193    1.964   .     S
Cu171  O197    1.963   .     S
Cu172  O198    1.963   .     S
Cu172  N192    2.034   .     S
Cu172  O199    1.958   .     S
Cu172  O195    1.957   .     S
Cu172  O194    1.964   .     S
H175   C216    1.088   .     S
H183   C267    1.083   1_455 S
C201   C204    1.448   .     S
C201   O245    1.297   .     A
C201   O243    1.301   .     A
C202   C204    1.399   .     A
C202   H237    1.083   .     S
C203   C219    1.403   .     A
C203   C220    1.398   .     A
C203   C212    1.449   .     S
C204   C218    1.401   .     A
C205   N242    1.352   .     A
C205   F223    1.356   .     S
C205   C1107   1.425   1_554 S
C206   F224    1.357   .     S
C206   N241    1.352   .     A
C206   C658    1.424   .     S
C207   N241    1.399   .     A
C207   C209    1.520   .     S
C207   C655    1.425   .     S
C208   C211    1.517   .     S
C208   N242    1.397   .     A
C208   C1106   1.424   1_554 S
C209   C210    1.534   .     S
C209   H226    1.086   .     S
C209   H227    1.112   .     S
C210   H238    1.110   .     S
C210   H240    1.109   .     S
C210   H239    1.111   .     S
C211   H232    1.112   .     S
C211   C213    1.531   .     S
C211   H231    1.087   .     S
C212   O246    1.296   .     A
C212   O244    1.303   .     A
C213   H228    1.109   .     S
C213   H229    1.111   .     S
C213   H230    1.109   .     S
C214   O247    1.299   .     A
C214   C216    1.434   .     S
C214   O249    1.292   .     A
C215   O248    1.296   .     A
C215   C217    1.432   .     S
C215   O250    1.294   .     A
C217   C266    1.329   .     S
C217   H283    1.083   .     S
C218   H234    1.083   .     S
C219   H235    1.083   .     S
C219   C352    1.385   .     S
C220   H236    1.081   .     S
C220   C368    1.384   .     S
Cu221  Cu222   2.706   .     S
Cu221  N241    2.034   .     S
Cu221  O250    1.958   .     S
Cu221  O246    1.957   .     S
Cu221  O243    1.964   .     S
Cu221  O247    1.963   .     S
Cu222  O248    1.963   .     S
Cu222  N242    2.034   .     S
Cu222  O249    1.958   .     S
Cu222  O245    1.957   .     S
Cu222  O244    1.964   .     S
H225   C266    1.088   .     S
C251   C254    1.448   .     S
C251   O295    1.297   .     A
C251   O293    1.301   .     A
C252   C254    1.399   .     A
C252   H287    1.083   .     S
C253   C269    1.403   .     A
C253   C270    1.398   .     A
C253   C262    1.449   .     S
C254   C268    1.401   .     A
C255   N292    1.352   .     A
C255   F273    1.356   .     S
C255   C1157   1.425   1_554 S
C256   F274    1.357   .     S
C256   N291    1.352   .     A
C256   C708    1.424   .     S
C257   N291    1.399   .     A
C257   C259    1.520   .     S
C257   C705    1.425   .     S
C258   C261    1.517   .     S
C258   N292    1.397   .     A
C258   C1156   1.424   1_554 S
C259   C260    1.534   .     S
C259   H276    1.086   .     S
C259   H277    1.112   .     S
C260   H288    1.110   .     S
C260   H290    1.109   .     S
C260   H289    1.111   .     S
C261   H282    1.112   .     S
C261   C263    1.531   .     S
C261   H281    1.087   .     S
C262   O296    1.296   .     A
C262   O294    1.303   .     A
C263   H278    1.109   .     S
C263   H279    1.111   .     S
C263   H280    1.109   .     S
C264   O297    1.299   .     A
C264   C266    1.434   .     S
C264   O299    1.292   .     A
C265   O298    1.296   .     A
C265   C267    1.432   .     S
C265   O300    1.294   .     A
C267   C166    1.329   1_655 S
C267   H183    1.083   1_655 S
C268   H284    1.083   .     S
C269   H285    1.083   .     S
C269   C402    1.385   .     S
C270   H286    1.081   .     S
C270   C418    1.384   .     S
Cu271  Cu272   2.706   .     S
Cu271  N291    2.034   .     S
Cu271  O300    1.958   .     S
Cu271  O296    1.957   .     S
Cu271  O293    1.964   .     S
Cu271  O297    1.963   .     S
Cu272  O298    1.963   .     S
Cu272  N292    2.034   .     S
Cu272  O299    1.958   .     S
Cu272  O295    1.957   .     S
Cu272  O294    1.964   .     S
H275   C166    1.088   1_655 S
C301   C304    1.448   .     S
C301   O345    1.297   .     A
C301   O343    1.301   .     A
C302   C304    1.399   .     A
C302   H337    1.083   .     S
C303   C319    1.403   .     A
C303   C320    1.398   .     A
C303   C312    1.449   .     S
C304   C318    1.401   .     A
C305   N342    1.352   .     A
C305   F323    1.356   .     S
C305   C1207   1.425   1_554 S
C306   F324    1.357   .     S
C306   N341    1.352   .     A
C306   C758    1.424   .     S
C307   N341    1.399   .     A
C307   C309    1.520   .     S
C307   C755    1.425   .     S
C308   C311    1.517   .     S
C308   N342    1.397   .     A
C308   C1206   1.424   1_554 S
C309   C310    1.534   .     S
C309   H326    1.086   .     S
C309   H327    1.112   .     S
C310   H338    1.110   .     S
C310   H340    1.109   .     S
C310   H339    1.111   .     S
C311   H332    1.112   .     S
C311   C313    1.531   .     S
C311   H331    1.087   .     S
C312   O346    1.296   .     A
C312   O344    1.303   .     A
C313   H328    1.109   .     S
C313   H329    1.111   .     S
C313   H330    1.109   .     S
C314   O347    1.299   .     A
C314   C316    1.434   .     S
C314   O349    1.292   .     A
C315   O348    1.296   .     A
C315   C317    1.432   .     S
C315   O350    1.294   .     A
C316   C417    1.329   1_455 S
C316   H425    1.088   1_455 S
C317   C366    1.329   .     S
C317   H383    1.083   .     S
C318   H334    1.083   .     S
C319   H335    1.083   .     S
C319   C2      1.385   1_565 S
C320   H336    1.081   .     S
C320   C18     1.384   1_565 S
Cu321  Cu322   2.706   .     S
Cu321  N341    2.034   .     S
Cu321  O350    1.958   .     S
Cu321  O346    1.957   .     S
Cu321  O343    1.964   .     S
Cu321  O347    1.963   .     S
Cu322  O348    1.963   .     S
Cu322  N342    2.034   .     S
Cu322  O349    1.958   .     S
Cu322  O345    1.957   .     S
Cu322  O344    1.964   .     S
H325   C366    1.088   .     S
H333   C417    1.083   1_455 S
C351   C354    1.448   .     S
C351   O395    1.297   .     A
C351   O393    1.301   .     A
C352   C354    1.399   .     A
C352   H387    1.083   .     S
C353   C369    1.403   .     A
C353   C370    1.398   .     A
C353   C362    1.449   .     S
C354   C368    1.401   .     A
C355   N392    1.352   .     A
C355   F373    1.356   .     S
C355   C1257   1.425   1_554 S
C356   F374    1.357   .     S
C356   N391    1.352   .     A
C356   C808    1.424   .     S
C357   N391    1.399   .     A
C357   C359    1.520   .     S
C357   C805    1.425   .     S
C358   C361    1.517   .     S
C358   N392    1.397   .     A
C358   C1256   1.424   1_554 S
C359   C360    1.534   .     S
C359   H376    1.086   .     S
C359   H377    1.112   .     S
C360   H388    1.110   .     S
C360   H390    1.109   .     S
C360   H389    1.111   .     S
C361   H382    1.112   .     S
C361   C363    1.531   .     S
C361   H381    1.087   .     S
C362   O396    1.296   .     A
C362   O394    1.303   .     A
C363   H378    1.109   .     S
C363   H379    1.111   .     S
C363   H380    1.109   .     S
C364   O397    1.299   .     A
C364   C366    1.434   .     S
C364   O399    1.292   .     A
C365   O398    1.296   .     A
C365   C367    1.432   .     S
C365   O400    1.294   .     A
C367   C416    1.329   .     S
C367   H433    1.083   .     S
C368   H384    1.083   .     S
C369   H385    1.083   .     S
C369   C52     1.385   1_565 S
C370   H386    1.081   .     S
C370   C68     1.384   1_565 S
Cu371  Cu372   2.706   .     S
Cu371  N391    2.034   .     S
Cu371  O400    1.958   .     S
Cu371  O396    1.957   .     S
Cu371  O393    1.964   .     S
Cu371  O397    1.963   .     S
Cu372  O398    1.963   .     S
Cu372  N392    2.034   .     S
Cu372  O399    1.958   .     S
Cu372  O395    1.957   .     S
Cu372  O394    1.964   .     S
H375   C416    1.088   .     S
C401   C404    1.448   .     S
C401   O445    1.297   .     A
C401   O443    1.301   .     A
C402   C404    1.399   .     A
C402   H437    1.083   .     S
C403   C419    1.403   .     A
C403   C420    1.398   .     A
C403   C412    1.449   .     S
C404   C418    1.401   .     A
C405   N442    1.352   .     A
C405   F423    1.356   .     S
C405   C1307   1.425   1_554 S
C406   F424    1.357   .     S
C406   N441    1.352   .     A
C406   C858    1.424   .     S
C407   N441    1.399   .     A
C407   C409    1.520   .     S
C407   C855    1.425   .     S
C408   C411    1.517   .     S
C408   N442    1.397   .     A
C408   C1306   1.424   1_554 S
C409   C410    1.534   .     S
C409   H426    1.086   .     S
C409   H427    1.112   .     S
C410   H438    1.110   .     S
C410   H440    1.109   .     S
C410   H439    1.111   .     S
C411   H432    1.112   .     S
C411   C413    1.531   .     S
C411   H431    1.087   .     S
C412   O446    1.296   .     A
C412   O444    1.303   .     A
C413   H428    1.109   .     S
C413   H429    1.111   .     S
C413   H430    1.109   .     S
C414   O447    1.299   .     A
C414   C416    1.434   .     S
C414   O449    1.292   .     A
C415   O448    1.296   .     A
C415   C417    1.432   .     S
C415   O450    1.294   .     A
C417   C316    1.329   1_655 S
C417   H333    1.083   1_655 S
C418   H434    1.083   .     S
C419   H435    1.083   .     S
C419   C102    1.385   1_565 S
C420   H436    1.081   .     S
C420   C118    1.384   1_565 S
Cu421  Cu422   2.706   .     S
Cu421  N441    2.034   .     S
Cu421  O450    1.958   .     S
Cu421  O446    1.957   .     S
Cu421  O443    1.964   .     S
Cu421  O447    1.963   .     S
Cu422  O448    1.963   .     S
Cu422  N442    2.034   .     S
Cu422  O449    1.958   .     S
Cu422  O445    1.957   .     S
Cu422  O444    1.964   .     S
H425   C316    1.088   1_655 S
C451   C454    1.448   .     S
C451   O495    1.297   .     A
C451   O493    1.301   .     A
C452   C454    1.399   .     A
C452   H487    1.083   .     S
C452   C769    1.385   1_545 S
C453   C469    1.403   .     A
C453   C470    1.398   .     A
C453   C462    1.449   .     S
C454   C468    1.401   .     A
C455   N492    1.352   .     A
C455   F473    1.356   .     S
C456   F474    1.357   .     S
C456   N491    1.352   .     A
C456   C908    1.424   .     S
C457   N491    1.399   .     A
C457   C459    1.520   .     S
C457   C905    1.425   .     S
C458   C461    1.517   .     S
C458   N492    1.397   .     A
C459   C460    1.534   .     S
C459   H476    1.086   .     S
C459   H477    1.112   .     S
C460   H488    1.110   .     S
C460   H490    1.109   .     S
C460   H489    1.111   .     S
C461   H482    1.112   .     S
C461   C463    1.531   .     S
C461   H481    1.087   .     S
C462   O496    1.296   .     A
C462   O494    1.303   .     A
C463   H478    1.109   .     S
C463   H479    1.111   .     S
C463   H480    1.109   .     S
C464   O497    1.299   .     A
C464   C466    1.434   .     S
C464   O499    1.292   .     A
C465   O498    1.296   .     A
C465   C467    1.432   .     S
C465   O500    1.294   .     A
C466   C567    1.329   1_455 S
C466   H575    1.088   1_455 S
C467   C516    1.329   .     S
C467   H533    1.083   .     S
C468   H484    1.083   .     S
C468   C770    1.384   1_545 S
C469   H485    1.083   .     S
C469   C602    1.385   .     S
C470   H486    1.081   .     S
C470   C618    1.384   .     S
Cu471  Cu472   2.706   .     S
Cu471  N491    2.034   .     S
Cu471  O500    1.958   .     S
Cu471  O496    1.957   .     S
Cu471  O493    1.964   .     S
Cu471  O497    1.963   .     S
Cu472  O498    1.963   .     S
Cu472  N492    2.034   .     S
Cu472  O499    1.958   .     S
Cu472  O495    1.957   .     S
Cu472  O494    1.964   .     S
H475   C516    1.088   .     S
H483   C567    1.083   1_455 S
C501   C504    1.448   .     S
C501   O545    1.297   .     A
C501   O543    1.301   .     A
C502   C504    1.399   .     A
C502   H537    1.083   .     S
C502   C819    1.385   1_545 S
C503   C519    1.403   .     A
C503   C520    1.398   .     A
C503   C512    1.449   .     S
C504   C518    1.401   .     A
C505   N542    1.352   .     A
C505   F523    1.356   .     S
C506   F524    1.357   .     S
C506   N541    1.352   .     A
C506   C958    1.424   .     S
C507   N541    1.399   .     A
C507   C509    1.520   .     S
C507   C955    1.425   .     S
C508   C511    1.517   .     S
C508   N542    1.397   .     A
C509   C510    1.534   .     S
C509   H526    1.086   .     S
C509   H527    1.112   .     S
C510   H538    1.110   .     S
C510   H540    1.109   .     S
C510   H539    1.111   .     S
C511   H532    1.112   .     S
C511   C513    1.531   .     S
C511   H531    1.087   .     S
C512   O546    1.296   .     A
C512   O544    1.303   .     A
C513   H528    1.109   .     S
C513   H529    1.111   .     S
C513   H530    1.109   .     S
C514   O547    1.299   .     A
C514   C516    1.434   .     S
C514   O549    1.292   .     A
C515   O548    1.296   .     A
C515   C517    1.432   .     S
C515   O550    1.294   .     A
C517   C566    1.329   .     S
C517   H583    1.083   .     S
C518   H534    1.083   .     S
C518   C820    1.384   1_545 S
C519   H535    1.083   .     S
C519   C652    1.385   .     S
C520   H536    1.081   .     S
C520   C668    1.384   .     S
Cu521  Cu522   2.706   .     S
Cu521  N541    2.034   .     S
Cu521  O550    1.958   .     S
Cu521  O546    1.957   .     S
Cu521  O543    1.964   .     S
Cu521  O547    1.963   .     S
Cu522  O548    1.963   .     S
Cu522  N542    2.034   .     S
Cu522  O549    1.958   .     S
Cu522  O545    1.957   .     S
Cu522  O544    1.964   .     S
H525   C566    1.088   .     S
C551   C554    1.448   .     S
C551   O595    1.297   .     A
C551   O593    1.301   .     A
C552   C554    1.399   .     A
C552   H587    1.083   .     S
C552   C869    1.385   1_545 S
C553   C569    1.403   .     A
C553   C570    1.398   .     A
C553   C562    1.449   .     S
C554   C568    1.401   .     A
C555   N592    1.352   .     A
C555   F573    1.356   .     S
C556   F574    1.357   .     S
C556   N591    1.352   .     A
C556   C1008   1.424   .     S
C557   N591    1.399   .     A
C557   C559    1.520   .     S
C557   C1005   1.425   .     S
C558   C561    1.517   .     S
C558   N592    1.397   .     A
C559   C560    1.534   .     S
C559   H576    1.086   .     S
C559   H577    1.112   .     S
C560   H588    1.110   .     S
C560   H590    1.109   .     S
C560   H589    1.111   .     S
C561   H582    1.112   .     S
C561   C563    1.531   .     S
C561   H581    1.087   .     S
C562   O596    1.296   .     A
C562   O594    1.303   .     A
C563   H578    1.109   .     S
C563   H579    1.111   .     S
C563   H580    1.109   .     S
C564   O597    1.299   .     A
C564   C566    1.434   .     S
C564   O599    1.292   .     A
C565   O598    1.296   .     A
C565   C567    1.432   .     S
C565   O600    1.294   .     A
C567   C466    1.329   1_655 S
C567   H483    1.083   1_655 S
C568   H584    1.083   .     S
C568   C870    1.384   1_545 S
C569   H585    1.083   .     S
C569   C702    1.385   .     S
C570   H586    1.081   .     S
C570   C718    1.384   .     S
Cu571  Cu572   2.706   .     S
Cu571  N591    2.034   .     S
Cu571  O600    1.958   .     S
Cu571  O596    1.957   .     S
Cu571  O593    1.964   .     S
Cu571  O597    1.963   .     S
Cu572  O598    1.963   .     S
Cu572  N592    2.034   .     S
Cu572  O599    1.958   .     S
Cu572  O595    1.957   .     S
Cu572  O594    1.964   .     S
H575   C466    1.088   1_655 S
C601   C604    1.448   .     S
C601   O645    1.297   .     A
C601   O643    1.301   .     A
C602   C604    1.399   .     A
C602   H637    1.083   .     S
C603   C619    1.403   .     A
C603   C620    1.398   .     A
C603   C612    1.449   .     S
C604   C618    1.401   .     A
C605   N642    1.352   .     A
C605   F623    1.356   .     S
C606   F624    1.357   .     S
C606   N641    1.352   .     A
C606   C1058   1.424   .     S
C607   N641    1.399   .     A
C607   C609    1.520   .     S
C607   C1055   1.425   .     S
C608   C611    1.517   .     S
C608   N642    1.397   .     A
C609   C610    1.534   .     S
C609   H626    1.086   .     S
C609   H627    1.112   .     S
C610   H638    1.110   .     S
C610   H640    1.109   .     S
C610   H639    1.111   .     S
C611   H632    1.112   .     S
C611   C613    1.531   .     S
C611   H631    1.087   .     S
C612   O646    1.296   .     A
C612   O644    1.303   .     A
C613   H628    1.109   .     S
C613   H629    1.111   .     S
C613   H630    1.109   .     S
C614   O647    1.299   .     A
C614   C616    1.434   .     S
C614   O649    1.292   .     A
C615   O648    1.296   .     A
C615   C617    1.432   .     S
C615   O650    1.294   .     A
C616   C717    1.329   1_455 S
C616   H725    1.088   1_455 S
C617   C666    1.329   .     S
C617   H683    1.083   .     S
C618   H634    1.083   .     S
C619   H635    1.083   .     S
C619   C752    1.385   .     S
C620   H636    1.081   .     S
C620   C768    1.384   .     S
Cu621  Cu622   2.706   .     S
Cu621  N641    2.034   .     S
Cu621  O650    1.958   .     S
Cu621  O646    1.957   .     S
Cu621  O643    1.964   .     S
Cu621  O647    1.963   .     S
Cu622  O648    1.963   .     S
Cu622  N642    2.034   .     S
Cu622  O649    1.958   .     S
Cu622  O645    1.957   .     S
Cu622  O644    1.964   .     S
H625   C666    1.088   .     S
H633   C717    1.083   1_455 S
C651   C654    1.448   .     S
C651   O695    1.297   .     A
C651   O693    1.301   .     A
C652   C654    1.399   .     A
C652   H687    1.083   .     S
C653   C669    1.403   .     A
C653   C670    1.398   .     A
C653   C662    1.449   .     S
C654   C668    1.401   .     A
C655   N692    1.352   .     A
C655   F673    1.356   .     S
C656   F674    1.357   .     S
C656   N691    1.352   .     A
C656   C1108   1.424   .     S
C657   N691    1.399   .     A
C657   C659    1.520   .     S
C657   C1105   1.425   .     S
C658   C661    1.517   .     S
C658   N692    1.397   .     A
C659   C660    1.534   .     S
C659   H676    1.086   .     S
C659   H677    1.112   .     S
C660   H688    1.110   .     S
C660   H690    1.109   .     S
C660   H689    1.111   .     S
C661   H682    1.112   .     S
C661   C663    1.531   .     S
C661   H681    1.087   .     S
C662   O696    1.296   .     A
C662   O694    1.303   .     A
C663   H678    1.109   .     S
C663   H679    1.111   .     S
C663   H680    1.109   .     S
C664   O697    1.299   .     A
C664   C666    1.434   .     S
C664   O699    1.292   .     A
C665   O698    1.296   .     A
C665   C667    1.432   .     S
C665   O700    1.294   .     A
C667   C716    1.329   .     S
C667   H733    1.083   .     S
C668   H684    1.083   .     S
C669   H685    1.083   .     S
C669   C802    1.385   .     S
C670   H686    1.081   .     S
C670   C818    1.384   .     S
Cu671  Cu672   2.706   .     S
Cu671  N691    2.034   .     S
Cu671  O700    1.958   .     S
Cu671  O696    1.957   .     S
Cu671  O693    1.964   .     S
Cu671  O697    1.963   .     S
Cu672  O698    1.963   .     S
Cu672  N692    2.034   .     S
Cu672  O699    1.958   .     S
Cu672  O695    1.957   .     S
Cu672  O694    1.964   .     S
H675   C716    1.088   .     S
C701   C704    1.448   .     S
C701   O745    1.297   .     A
C701   O743    1.301   .     A
C702   C704    1.399   .     A
C702   H737    1.083   .     S
C703   C719    1.403   .     A
C703   C720    1.398   .     A
C703   C712    1.449   .     S
C704   C718    1.401   .     A
C705   N742    1.352   .     A
C705   F723    1.356   .     S
C706   F724    1.357   .     S
C706   N741    1.352   .     A
C706   C1158   1.424   .     S
C707   N741    1.399   .     A
C707   C709    1.520   .     S
C707   C1155   1.425   .     S
C708   C711    1.517   .     S
C708   N742    1.397   .     A
C709   C710    1.534   .     S
C709   H726    1.086   .     S
C709   H727    1.112   .     S
C710   H738    1.110   .     S
C710   H740    1.109   .     S
C710   H739    1.111   .     S
C711   H732    1.112   .     S
C711   C713    1.531   .     S
C711   H731    1.087   .     S
C712   O746    1.296   .     A
C712   O744    1.303   .     A
C713   H728    1.109   .     S
C713   H729    1.111   .     S
C713   H730    1.109   .     S
C714   O747    1.299   .     A
C714   C716    1.434   .     S
C714   O749    1.292   .     A
C715   O748    1.296   .     A
C715   C717    1.432   .     S
C715   O750    1.294   .     A
C717   C616    1.329   1_655 S
C717   H633    1.083   1_655 S
C718   H734    1.083   .     S
C719   H735    1.083   .     S
C719   C852    1.385   .     S
C720   H736    1.081   .     S
C720   C868    1.384   .     S
Cu721  Cu722   2.706   .     S
Cu721  N741    2.034   .     S
Cu721  O750    1.958   .     S
Cu721  O746    1.957   .     S
Cu721  O743    1.964   .     S
Cu721  O747    1.963   .     S
Cu722  O748    1.963   .     S
Cu722  N742    2.034   .     S
Cu722  O749    1.958   .     S
Cu722  O745    1.957   .     S
Cu722  O744    1.964   .     S
H725   C616    1.088   1_655 S
C751   C754    1.448   .     S
C751   O795    1.297   .     A
C751   O793    1.301   .     A
C752   C754    1.399   .     A
C752   H787    1.083   .     S
C753   C769    1.403   .     A
C753   C770    1.398   .     A
C753   C762    1.449   .     S
C754   C768    1.401   .     A
C755   N792    1.352   .     A
C755   F773    1.356   .     S
C756   F774    1.357   .     S
C756   N791    1.352   .     A
C756   C1208   1.424   .     S
C757   N791    1.399   .     A
C757   C759    1.520   .     S
C757   C1205   1.425   .     S
C758   C761    1.517   .     S
C758   N792    1.397   .     A
C759   C760    1.534   .     S
C759   H776    1.086   .     S
C759   H777    1.112   .     S
C760   H788    1.110   .     S
C760   H790    1.109   .     S
C760   H789    1.111   .     S
C761   H782    1.112   .     S
C761   C763    1.531   .     S
C761   H781    1.087   .     S
C762   O796    1.296   .     A
C762   O794    1.303   .     A
C763   H778    1.109   .     S
C763   H779    1.111   .     S
C763   H780    1.109   .     S
C764   O797    1.299   .     A
C764   C766    1.434   .     S
C764   O799    1.292   .     A
C765   O798    1.296   .     A
C765   C767    1.432   .     S
C765   O800    1.294   .     A
C766   C867    1.329   1_455 S
C766   H875    1.088   1_455 S
C767   C816    1.329   .     S
C767   H833    1.083   .     S
C768   H784    1.083   .     S
C769   H785    1.083   .     S
C769   C452    1.385   1_565 S
C770   H786    1.081   .     S
C770   C468    1.384   1_565 S
Cu771  Cu772   2.706   .     S
Cu771  N791    2.034   .     S
Cu771  O800    1.958   .     S
Cu771  O796    1.957   .     S
Cu771  O793    1.964   .     S
Cu771  O797    1.963   .     S
Cu772  O798    1.963   .     S
Cu772  N792    2.034   .     S
Cu772  O799    1.958   .     S
Cu772  O795    1.957   .     S
Cu772  O794    1.964   .     S
H775   C816    1.088   .     S
H783   C867    1.083   1_455 S
C801   C804    1.448   .     S
C801   O845    1.297   .     A
C801   O843    1.301   .     A
C802   C804    1.399   .     A
C802   H837    1.083   .     S
C803   C819    1.403   .     A
C803   C820    1.398   .     A
C803   C812    1.449   .     S
C804   C818    1.401   .     A
C805   N842    1.352   .     A
C805   F823    1.356   .     S
C806   F824    1.357   .     S
C806   N841    1.352   .     A
C806   C1258   1.424   .     S
C807   N841    1.399   .     A
C807   C809    1.520   .     S
C807   C1255   1.425   .     S
C808   C811    1.517   .     S
C808   N842    1.397   .     A
C809   C810    1.534   .     S
C809   H826    1.086   .     S
C809   H827    1.112   .     S
C810   H838    1.110   .     S
C810   H840    1.109   .     S
C810   H839    1.111   .     S
C811   H832    1.112   .     S
C811   C813    1.531   .     S
C811   H831    1.087   .     S
C812   O846    1.296   .     A
C812   O844    1.303   .     A
C813   H828    1.109   .     S
C813   H829    1.111   .     S
C813   H830    1.109   .     S
C814   O847    1.299   .     A
C814   C816    1.434   .     S
C814   O849    1.292   .     A
C815   O848    1.296   .     A
C815   C817    1.432   .     S
C815   O850    1.294   .     A
C817   C866    1.329   .     S
C817   H883    1.083   .     S
C818   H834    1.083   .     S
C819   H835    1.083   .     S
C819   C502    1.385   1_565 S
C820   H836    1.081   .     S
C820   C518    1.384   1_565 S
Cu821  Cu822   2.706   .     S
Cu821  N841    2.034   .     S
Cu821  O850    1.958   .     S
Cu821  O846    1.957   .     S
Cu821  O843    1.964   .     S
Cu821  O847    1.963   .     S
Cu822  O848    1.963   .     S
Cu822  N842    2.034   .     S
Cu822  O849    1.958   .     S
Cu822  O845    1.957   .     S
Cu822  O844    1.964   .     S
H825   C866    1.088   .     S
C851   C854    1.448   .     S
C851   O895    1.297   .     A
C851   O893    1.301   .     A
C852   C854    1.399   .     A
C852   H887    1.083   .     S
C853   C869    1.403   .     A
C853   C870    1.398   .     A
C853   C862    1.449   .     S
C854   C868    1.401   .     A
C855   N892    1.352   .     A
C855   F873    1.356   .     S
C856   F874    1.357   .     S
C856   N891    1.352   .     A
C856   C1308   1.424   .     S
C857   N891    1.399   .     A
C857   C859    1.520   .     S
C857   C1305   1.425   .     S
C858   C861    1.517   .     S
C858   N892    1.397   .     A
C859   C860    1.534   .     S
C859   H876    1.086   .     S
C859   H877    1.112   .     S
C860   H888    1.110   .     S
C860   H890    1.109   .     S
C860   H889    1.111   .     S
C861   H882    1.112   .     S
C861   C863    1.531   .     S
C861   H881    1.087   .     S
C862   O896    1.296   .     A
C862   O894    1.303   .     A
C863   H878    1.109   .     S
C863   H879    1.111   .     S
C863   H880    1.109   .     S
C864   O897    1.299   .     A
C864   C866    1.434   .     S
C864   O899    1.292   .     A
C865   O898    1.296   .     A
C865   C867    1.432   .     S
C865   O900    1.294   .     A
C867   C766    1.329   1_655 S
C867   H783    1.083   1_655 S
C868   H884    1.083   .     S
C869   H885    1.083   .     S
C869   C552    1.385   1_565 S
C870   H886    1.081   .     S
C870   C568    1.384   1_565 S
Cu871  Cu872   2.706   .     S
Cu871  N891    2.034   .     S
Cu871  O900    1.958   .     S
Cu871  O896    1.957   .     S
Cu871  O893    1.964   .     S
Cu871  O897    1.963   .     S
Cu872  O898    1.963   .     S
Cu872  N892    2.034   .     S
Cu872  O899    1.958   .     S
Cu872  O895    1.957   .     S
Cu872  O894    1.964   .     S
H875   C766    1.088   1_655 S
C901   C904    1.448   .     S
C901   O945    1.297   .     A
C901   O943    1.301   .     A
C902   C904    1.399   .     A
C902   H937    1.083   .     S
C902   C1219   1.385   1_545 S
C903   C919    1.403   .     A
C903   C920    1.398   .     A
C903   C912    1.449   .     S
C904   C918    1.401   .     A
C905   N942    1.352   .     A
C905   F923    1.356   .     S
C906   F924    1.357   .     S
C906   N941    1.352   .     A
C906   C8      1.424   1_556 S
C907   N941    1.399   .     A
C907   C909    1.520   .     S
C907   C5      1.425   1_556 S
C908   C911    1.517   .     S
C908   N942    1.397   .     A
C909   C910    1.534   .     S
C909   H926    1.086   .     S
C909   H927    1.112   .     S
C910   H938    1.110   .     S
C910   H940    1.109   .     S
C910   H939    1.111   .     S
C911   H932    1.112   .     S
C911   C913    1.531   .     S
C911   H931    1.087   .     S
C912   O946    1.296   .     A
C912   O944    1.303   .     A
C913   H928    1.109   .     S
C913   H929    1.111   .     S
C913   H930    1.109   .     S
C914   O947    1.299   .     A
C914   C916    1.434   .     S
C914   O949    1.292   .     A
C915   O948    1.296   .     A
C915   C917    1.432   .     S
C915   O950    1.294   .     A
C916   C1017   1.329   1_455 S
C916   H1025   1.088   1_455 S
C917   C966    1.329   .     S
C917   H983    1.083   .     S
C918   H934    1.083   .     S
C918   C1220   1.384   1_545 S
C919   H935    1.083   .     S
C919   C1052   1.385   .     S
C920   H936    1.081   .     S
C920   C1068   1.384   .     S
Cu921  Cu922   2.706   .     S
Cu921  N941    2.034   .     S
Cu921  O950    1.958   .     S
Cu921  O946    1.957   .     S
Cu921  O943    1.964   .     S
Cu921  O947    1.963   .     S
Cu922  O948    1.963   .     S
Cu922  N942    2.034   .     S
Cu922  O949    1.958   .     S
Cu922  O945    1.957   .     S
Cu922  O944    1.964   .     S
H925   C966    1.088   .     S
H933   C1017   1.083   1_455 S
C951   C954    1.448   .     S
C951   O995    1.297   .     A
C951   O993    1.301   .     A
C952   C954    1.399   .     A
C952   H987    1.083   .     S
C952   C1269   1.385   1_545 S
C953   C969    1.403   .     A
C953   C970    1.398   .     A
C953   C962    1.449   .     S
C954   C968    1.401   .     A
C955   N992    1.352   .     A
C955   F973    1.356   .     S
C956   F974    1.357   .     S
C956   N991    1.352   .     A
C956   C58     1.424   1_556 S
C957   N991    1.399   .     A
C957   C959    1.520   .     S
C957   C55     1.425   1_556 S
C958   C961    1.517   .     S
C958   N992    1.397   .     A
C959   C960    1.534   .     S
C959   H976    1.086   .     S
C959   H977    1.112   .     S
C960   H988    1.110   .     S
C960   H990    1.109   .     S
C960   H989    1.111   .     S
C961   H982    1.112   .     S
C961   C963    1.531   .     S
C961   H981    1.087   .     S
C962   O996    1.296   .     A
C962   O994    1.303   .     A
C963   H978    1.109   .     S
C963   H979    1.111   .     S
C963   H980    1.109   .     S
C964   O997    1.299   .     A
C964   C966    1.434   .     S
C964   O999    1.292   .     A
C965   O998    1.296   .     A
C965   C967    1.432   .     S
C965   O1000   1.294   .     A
C967   C1016   1.329   .     S
C967   H1033   1.083   .     S
C968   H984    1.083   .     S
C968   C1270   1.384   1_545 S
C969   H985    1.083   .     S
C969   C1102   1.385   .     S
C970   H986    1.081   .     S
C970   C1118   1.384   .     S
Cu971  Cu972   2.706   .     S
Cu971  N991    2.034   .     S
Cu971  O1000   1.958   .     S
Cu971  O996    1.957   .     S
Cu971  O993    1.964   .     S
Cu971  O997    1.963   .     S
Cu972  O998    1.963   .     S
Cu972  N992    2.034   .     S
Cu972  O999    1.958   .     S
Cu972  O995    1.957   .     S
Cu972  O994    1.964   .     S
H975   C1016   1.088   .     S
C1001  C1004   1.448   .     S
C1001  O1045   1.297   .     A
C1001  O1043   1.301   .     A
C1002  C1004   1.399   .     A
C1002  H1037   1.083   .     S
C1002  C1319   1.385   1_545 S
C1003  C1019   1.403   .     A
C1003  C1020   1.398   .     A
C1003  C1012   1.449   .     S
C1004  C1018   1.401   .     A
C1005  N1042   1.352   .     A
C1005  F1023   1.356   .     S
C1006  F1024   1.357   .     S
C1006  N1041   1.352   .     A
C1006  C108    1.424   1_556 S
C1007  N1041   1.399   .     A
C1007  C1009   1.520   .     S
C1007  C105    1.425   1_556 S
C1008  C1011   1.517   .     S
C1008  N1042   1.397   .     A
C1009  C1010   1.534   .     S
C1009  H1026   1.086   .     S
C1009  H1027   1.112   .     S
C1010  H1038   1.110   .     S
C1010  H1040   1.109   .     S
C1010  H1039   1.111   .     S
C1011  H1032   1.112   .     S
C1011  C1013   1.531   .     S
C1011  H1031   1.087   .     S
C1012  O1046   1.296   .     A
C1012  O1044   1.303   .     A
C1013  H1028   1.109   .     S
C1013  H1029   1.111   .     S
C1013  H1030   1.109   .     S
C1014  O1047   1.299   .     A
C1014  C1016   1.434   .     S
C1014  O1049   1.292   .     A
C1015  O1048   1.296   .     A
C1015  C1017   1.432   .     S
C1015  O1050   1.294   .     A
C1017  C916    1.329   1_655 S
C1017  H933    1.083   1_655 S
C1018  H1034   1.083   .     S
C1018  C1320   1.384   1_545 S
C1019  H1035   1.083   .     S
C1019  C1152   1.385   .     S
C1020  H1036   1.081   .     S
C1020  C1168   1.384   .     S
Cu1021 Cu1022  2.706   .     S
Cu1021 N1041   2.034   .     S
Cu1021 O1050   1.958   .     S
Cu1021 O1046   1.957   .     S
Cu1021 O1043   1.964   .     S
Cu1021 O1047   1.963   .     S
Cu1022 O1048   1.963   .     S
Cu1022 N1042   2.034   .     S
Cu1022 O1049   1.958   .     S
Cu1022 O1045   1.957   .     S
Cu1022 O1044   1.964   .     S
H1025  C916    1.088   1_655 S
C1051  C1054   1.448   .     S
C1051  O1095   1.297   .     A
C1051  O1093   1.301   .     A
C1052  C1054   1.399   .     A
C1052  H1087   1.083   .     S
C1053  C1069   1.403   .     A
C1053  C1070   1.398   .     A
C1053  C1062   1.449   .     S
C1054  C1068   1.401   .     A
C1055  N1092   1.352   .     A
C1055  F1073   1.356   .     S
C1056  F1074   1.357   .     S
C1056  N1091   1.352   .     A
C1056  C158    1.424   1_556 S
C1057  N1091   1.399   .     A
C1057  C1059   1.520   .     S
C1057  C155    1.425   1_556 S
C1058  C1061   1.517   .     S
C1058  N1092   1.397   .     A
C1059  C1060   1.534   .     S
C1059  H1076   1.086   .     S
C1059  H1077   1.112   .     S
C1060  H1088   1.110   .     S
C1060  H1090   1.109   .     S
C1060  H1089   1.111   .     S
C1061  H1082   1.112   .     S
C1061  C1063   1.531   .     S
C1061  H1081   1.087   .     S
C1062  O1096   1.296   .     A
C1062  O1094   1.303   .     A
C1063  H1078   1.109   .     S
C1063  H1079   1.111   .     S
C1063  H1080   1.109   .     S
C1064  O1097   1.299   .     A
C1064  C1066   1.434   .     S
C1064  O1099   1.292   .     A
C1065  O1098   1.296   .     A
C1065  C1067   1.432   .     S
C1065  O1100   1.294   .     A
C1066  C1167   1.329   1_455 S
C1066  H1175   1.088   1_455 S
C1067  C1116   1.329   .     S
C1067  H1133   1.083   .     S
C1068  H1084   1.083   .     S
C1069  H1085   1.083   .     S
C1069  C1202   1.385   .     S
C1070  H1086   1.081   .     S
C1070  C1218   1.384   .     S
Cu1071 Cu1072  2.706   .     S
Cu1071 N1091   2.034   .     S
Cu1071 O1100   1.958   .     S
Cu1071 O1096   1.957   .     S
Cu1071 O1093   1.964   .     S
Cu1071 O1097   1.963   .     S
Cu1072 O1098   1.963   .     S
Cu1072 N1092   2.034   .     S
Cu1072 O1099   1.958   .     S
Cu1072 O1095   1.957   .     S
Cu1072 O1094   1.964   .     S
H1075  C1116   1.088   .     S
H1083  C1167   1.083   1_455 S
C1101  C1104   1.448   .     S
C1101  O1145   1.297   .     A
C1101  O1143   1.301   .     A
C1102  C1104   1.399   .     A
C1102  H1137   1.083   .     S
C1103  C1119   1.403   .     A
C1103  C1120   1.398   .     A
C1103  C1112   1.449   .     S
C1104  C1118   1.401   .     A
C1105  N1142   1.352   .     A
C1105  F1123   1.356   .     S
C1106  F1124   1.357   .     S
C1106  N1141   1.352   .     A
C1106  C208    1.424   1_556 S
C1107  N1141   1.399   .     A
C1107  C1109   1.520   .     S
C1107  C205    1.425   1_556 S
C1108  C1111   1.517   .     S
C1108  N1142   1.397   .     A
C1109  C1110   1.534   .     S
C1109  H1126   1.086   .     S
C1109  H1127   1.112   .     S
C1110  H1138   1.110   .     S
C1110  H1140   1.109   .     S
C1110  H1139   1.111   .     S
C1111  H1132   1.112   .     S
C1111  C1113   1.531   .     S
C1111  H1131   1.087   .     S
C1112  O1146   1.296   .     A
C1112  O1144   1.303   .     A
C1113  H1128   1.109   .     S
C1113  H1129   1.111   .     S
C1113  H1130   1.109   .     S
C1114  O1147   1.299   .     A
C1114  C1116   1.434   .     S
C1114  O1149   1.292   .     A
C1115  O1148   1.296   .     A
C1115  C1117   1.432   .     S
C1115  O1150   1.294   .     A
C1117  C1166   1.329   .     S
C1117  H1183   1.083   .     S
C1118  H1134   1.083   .     S
C1119  H1135   1.083   .     S
C1119  C1252   1.385   .     S
C1120  H1136   1.081   .     S
C1120  C1268   1.384   .     S
Cu1121 Cu1122  2.706   .     S
Cu1121 N1141   2.034   .     S
Cu1121 O1150   1.958   .     S
Cu1121 O1146   1.957   .     S
Cu1121 O1143   1.964   .     S
Cu1121 O1147   1.963   .     S
Cu1122 O1148   1.963   .     S
Cu1122 N1142   2.034   .     S
Cu1122 O1149   1.958   .     S
Cu1122 O1145   1.957   .     S
Cu1122 O1144   1.964   .     S
H1125  C1166   1.088   .     S
C1151  C1154   1.448   .     S
C1151  O1195   1.297   .     A
C1151  O1193   1.301   .     A
C1152  C1154   1.399   .     A
C1152  H1187   1.083   .     S
C1153  C1169   1.403   .     A
C1153  C1170   1.398   .     A
C1153  C1162   1.449   .     S
C1154  C1168   1.401   .     A
C1155  N1192   1.352   .     A
C1155  F1173   1.356   .     S
C1156  F1174   1.357   .     S
C1156  N1191   1.352   .     A
C1156  C258    1.424   1_556 S
C1157  N1191   1.399   .     A
C1157  C1159   1.520   .     S
C1157  C255    1.425   1_556 S
C1158  C1161   1.517   .     S
C1158  N1192   1.397   .     A
C1159  C1160   1.534   .     S
C1159  H1176   1.086   .     S
C1159  H1177   1.112   .     S
C1160  H1188   1.110   .     S
C1160  H1190   1.109   .     S
C1160  H1189   1.111   .     S
C1161  H1182   1.112   .     S
C1161  C1163   1.531   .     S
C1161  H1181   1.087   .     S
C1162  O1196   1.296   .     A
C1162  O1194   1.303   .     A
C1163  H1178   1.109   .     S
C1163  H1179   1.111   .     S
C1163  H1180   1.109   .     S
C1164  O1197   1.299   .     A
C1164  C1166   1.434   .     S
C1164  O1199   1.292   .     A
C1165  O1198   1.296   .     A
C1165  C1167   1.432   .     S
C1165  O1200   1.294   .     A
C1167  C1066   1.329   1_655 S
C1167  H1083   1.083   1_655 S
C1168  H1184   1.083   .     S
C1169  H1185   1.083   .     S
C1169  C1302   1.385   .     S
C1170  H1186   1.081   .     S
C1170  C1318   1.384   .     S
Cu1171 Cu1172  2.706   .     S
Cu1171 N1191   2.034   .     S
Cu1171 O1200   1.958   .     S
Cu1171 O1196   1.957   .     S
Cu1171 O1193   1.964   .     S
Cu1171 O1197   1.963   .     S
Cu1172 O1198   1.963   .     S
Cu1172 N1192   2.034   .     S
Cu1172 O1199   1.958   .     S
Cu1172 O1195   1.957   .     S
Cu1172 O1194   1.964   .     S
H1175  C1066   1.088   1_655 S
C1201  C1204   1.448   .     S
C1201  O1245   1.297   .     A
C1201  O1243   1.301   .     A
C1202  C1204   1.399   .     A
C1202  H1237   1.083   .     S
C1203  C1219   1.403   .     A
C1203  C1220   1.398   .     A
C1203  C1212   1.449   .     S
C1204  C1218   1.401   .     A
C1205  N1242   1.352   .     A
C1205  F1223   1.356   .     S
C1206  F1224   1.357   .     S
C1206  N1241   1.352   .     A
C1206  C308    1.424   1_556 S
C1207  N1241   1.399   .     A
C1207  C1209   1.520   .     S
C1207  C305    1.425   1_556 S
C1208  C1211   1.517   .     S
C1208  N1242   1.397   .     A
C1209  C1210   1.534   .     S
C1209  H1226   1.086   .     S
C1209  H1227   1.112   .     S
C1210  H1238   1.110   .     S
C1210  H1240   1.109   .     S
C1210  H1239   1.111   .     S
C1211  H1232   1.112   .     S
C1211  C1213   1.531   .     S
C1211  H1231   1.087   .     S
C1212  O1246   1.296   .     A
C1212  O1244   1.303   .     A
C1213  H1228   1.109   .     S
C1213  H1229   1.111   .     S
C1213  H1230   1.109   .     S
C1214  O1247   1.299   .     A
C1214  C1216   1.434   .     S
C1214  O1249   1.292   .     A
C1215  O1248   1.296   .     A
C1215  C1217   1.432   .     S
C1215  O1250   1.294   .     A
C1216  C1317   1.329   1_455 S
C1216  H1325   1.088   1_455 S
C1217  C1266   1.329   .     S
C1217  H1283   1.083   .     S
C1218  H1234   1.083   .     S
C1219  H1235   1.083   .     S
C1219  C902    1.385   1_565 S
C1220  H1236   1.081   .     S
C1220  C918    1.384   1_565 S
Cu1221 Cu1222  2.706   .     S
Cu1221 N1241   2.034   .     S
Cu1221 O1250   1.958   .     S
Cu1221 O1246   1.957   .     S
Cu1221 O1243   1.964   .     S
Cu1221 O1247   1.963   .     S
Cu1222 O1248   1.963   .     S
Cu1222 N1242   2.034   .     S
Cu1222 O1249   1.958   .     S
Cu1222 O1245   1.957   .     S
Cu1222 O1244   1.964   .     S
H1225  C1266   1.088   .     S
H1233  C1317   1.083   1_455 S
C1251  C1254   1.448   .     S
C1251  O1295   1.297   .     A
C1251  O1293   1.301   .     A
C1252  C1254   1.399   .     A
C1252  H1287   1.083   .     S
C1253  C1269   1.403   .     A
C1253  C1270   1.398   .     A
C1253  C1262   1.449   .     S
C1254  C1268   1.401   .     A
C1255  N1292   1.352   .     A
C1255  F1273   1.356   .     S
C1256  F1274   1.357   .     S
C1256  N1291   1.352   .     A
C1256  C358    1.424   1_556 S
C1257  N1291   1.399   .     A
C1257  C1259   1.520   .     S
C1257  C355    1.425   1_556 S
C1258  C1261   1.517   .     S
C1258  N1292   1.397   .     A
C1259  C1260   1.534   .     S
C1259  H1276   1.086   .     S
C1259  H1277   1.112   .     S
C1260  H1288   1.110   .     S
C1260  H1290   1.109   .     S
C1260  H1289   1.111   .     S
C1261  H1282   1.112   .     S
C1261  C1263   1.531   .     S
C1261  H1281   1.087   .     S
C1262  O1296   1.296   .     A
C1262  O1294   1.303   .     A
C1263  H1278   1.109   .     S
C1263  H1279   1.111   .     S
C1263  H1280   1.109   .     S
C1264  O1297   1.299   .     A
C1264  C1266   1.434   .     S
C1264  O1299   1.292   .     A
C1265  O1298   1.296   .     A
C1265  C1267   1.432   .     S
C1265  O1300   1.294   .     A
C1267  C1316   1.329   .     S
C1267  H1333   1.083   .     S
C1268  H1284   1.083   .     S
C1269  H1285   1.083   .     S
C1269  C952    1.385   1_565 S
C1270  H1286   1.081   .     S
C1270  C968    1.384   1_565 S
Cu1271 Cu1272  2.706   .     S
Cu1271 N1291   2.034   .     S
Cu1271 O1300   1.958   .     S
Cu1271 O1296   1.957   .     S
Cu1271 O1293   1.964   .     S
Cu1271 O1297   1.963   .     S
Cu1272 O1298   1.963   .     S
Cu1272 N1292   2.034   .     S
Cu1272 O1299   1.958   .     S
Cu1272 O1295   1.957   .     S
Cu1272 O1294   1.964   .     S
H1275  C1316   1.088   .     S
C1301  C1304   1.448   .     S
C1301  O1345   1.297   .     A
C1301  O1343   1.301   .     A
C1302  C1304   1.399   .     A
C1302  H1337   1.083   .     S
C1303  C1319   1.403   .     A
C1303  C1320   1.398   .     A
C1303  C1312   1.449   .     S
C1304  C1318   1.401   .     A
C1305  N1342   1.352   .     A
C1305  F1323   1.356   .     S
C1306  F1324   1.357   .     S
C1306  N1341   1.352   .     A
C1306  C408    1.424   1_556 S
C1307  N1341   1.399   .     A
C1307  C1309   1.520   .     S
C1307  C405    1.425   1_556 S
C1308  C1311   1.517   .     S
C1308  N1342   1.397   .     A
C1309  C1310   1.534   .     S
C1309  H1326   1.086   .     S
C1309  H1327   1.112   .     S
C1310  H1338   1.110   .     S
C1310  H1340   1.109   .     S
C1310  H1339   1.111   .     S
C1311  H1332   1.112   .     S
C1311  C1313   1.531   .     S
C1311  H1331   1.087   .     S
C1312  O1346   1.296   .     A
C1312  O1344   1.303   .     A
C1313  H1328   1.109   .     S
C1313  H1329   1.111   .     S
C1313  H1330   1.109   .     S
C1314  O1347   1.299   .     A
C1314  C1316   1.434   .     S
C1314  O1349   1.292   .     A
C1315  O1348   1.296   .     A
C1315  C1317   1.432   .     S
C1315  O1350   1.294   .     A
C1317  C1216   1.329   1_655 S
C1317  H1233   1.083   1_655 S
C1318  H1334   1.083   .     S
C1319  H1335   1.083   .     S
C1319  C1002   1.385   1_565 S
C1320  H1336   1.081   .     S
C1320  C1018   1.384   1_565 S
Cu1321 Cu1322  2.706   .     S
Cu1321 N1341   2.034   .     S
Cu1321 O1350   1.958   .     S
Cu1321 O1346   1.957   .     S
Cu1321 O1343   1.964   .     S
Cu1321 O1347   1.963   .     S
Cu1322 O1348   1.963   .     S
Cu1322 N1342   2.034   .     S
Cu1322 O1349   1.958   .     S
Cu1322 O1345   1.957   .     S
Cu1322 O1344   1.964   .     S
H1325  C1216   1.088   1_655 S
