data_str_m3_o10_o17_pcu_sym.67
_audit_creation_date              2020-01-03
_audit_creation_method            'Materials Studio'
_symmetry_space_group_name_H-M    'P1'
_symmetry_Int_Tables_number       1
_symmetry_cell_setting            triclinic
loop_
_symmetry_equiv_pos_as_xyz
  x,y,z
_cell_length_a                    23.3251
_cell_length_b                    25.6754
_cell_length_c                    29.7808
_cell_angle_alpha                 91.4465
_cell_angle_beta                  85.9850
_cell_angle_gamma                 93.6867
loop_
_atom_site_label
_atom_site_type_symbol
_atom_site_fract_x
_atom_site_fract_y
_atom_site_fract_z
_atom_site_U_iso_or_equiv
_atom_site_adp_type
_atom_site_occupancy
C1     C     0.18189   0.26488   0.24848   0.00000  Uiso   1.00
C2     C     0.18269   0.21547   0.40705   0.00000  Uiso   1.00
C3     C     0.16381   0.16480   0.11614   0.00000  Uiso   1.00
C4     C     0.16952   0.16853   0.38386   0.00000  Uiso   1.00
C5     C     0.17725   0.21156   0.09432   0.00000  Uiso   1.00
C6     C     0.15608   0.12177   0.40568   0.00000  Uiso   1.00
C7     C     0.17837   0.21263   0.04798   0.00000  Uiso   1.00
C8     C     0.15497   0.12070   0.45202   0.00000  Uiso   1.00
C9     C     0.16580   0.16605   0.02348   0.00000  Uiso   1.00
C10    C     0.16753   0.16728   0.47652   0.00000  Uiso   1.00
C11    C     0.15167   0.11830   0.04591   0.00000  Uiso   1.00
C12    C     0.15144   0.06845   0.25152   0.00000  Uiso   1.00
C13    C     0.18166   0.21503   0.45409   0.00000  Uiso   1.00
C14    C     0.19230   0.25956   0.02594   0.00000  Uiso   1.00
C15    C     0.14104   0.07377   0.47406   0.00000  Uiso   1.00
C16    C     0.19397   0.26083   0.47937   0.00000  Uiso   1.00
C17    C     0.13936   0.07250   0.02063   0.00000  Uiso   1.00
C18    C     0.18992   0.31939   0.24768   0.00000  Uiso   1.00
C19    C     0.14342   0.01394   0.25232   0.00000  Uiso   1.00
C20    C     0.16762   0.16758   0.33634   0.00000  Uiso   1.00
C21    C     0.16572   0.16576   0.16366   0.00000  Uiso   1.00
C22    C     0.15064   0.11786   0.09295   0.00000  Uiso   1.00
H23    H     0.18727   0.24703   0.11364   0.00000  Uiso   1.00
H24    H     0.32885   0.20591   0.28404   0.00000  Uiso   1.00
H25    H     0.14606   0.08631   0.38636   0.00000  Uiso   1.00
H26    H     0.20206   0.29535   0.04477   0.00000  Uiso   1.00
H27    H     0.13127   0.03798   0.45523   0.00000  Uiso   1.00
H28    H     0.20504   0.29797   0.46379   0.00000  Uiso   1.00
H29    H     0.12829   0.03536   0.03621   0.00000  Uiso   1.00
H30    H     0.23384   0.00305   0.24345   0.00000  Uiso   1.00
H31    H     0.09949   0.33028   0.25655   0.00000  Uiso   1.00
H32    H     0.00449   0.12742   0.21596   0.00000  Uiso   1.00
I33    I     0.13082   0.04749   0.12985   0.00000  Uiso   1.00
I34    I     0.20252   0.28584   0.37015   0.00000  Uiso   1.00
N35    N     0.31678   0.15265   0.23783   0.00000  Uiso   1.00
N36    N     0.01656   0.18068   0.26217   0.00000  Uiso   1.00
O37    O     0.12975   0.24619   0.25299   0.00000  Uiso   1.00
O38    O     0.20358   0.08714   0.24701   0.00000  Uiso   1.00
O39    O     0.22613   0.23721   0.24519   0.00000  Uiso   1.00
O40    O     0.10720   0.09613   0.25481   0.00000  Uiso   1.00
O41    O     0.11847   0.17117   0.31997   0.00000  Uiso   1.00
O42    O     0.21486   0.16216   0.18003   0.00000  Uiso   1.00
O43    O     0.21485   0.16219   0.31217   0.00000  Uiso   1.00
O44    O     0.11848   0.17115   0.18783   0.00000  Uiso   1.00
Zn45   Zn    0.10231   0.17266   0.25521   0.00000  Uiso   1.00
Zn46   Zn    0.23102   0.16067   0.24479   0.00000  Uiso   1.00
C47    C     0.51523   0.26488   0.24848   0.00000  Uiso   1.00
C48    C     0.51602   0.21547   0.40705   0.00000  Uiso   1.00
C49    C     0.49714   0.16480   0.11614   0.00000  Uiso   1.00
C50    C     0.50286   0.16853   0.38386   0.00000  Uiso   1.00
C51    C     0.51059   0.21156   0.09432   0.00000  Uiso   1.00
C52    C     0.48941   0.12177   0.40568   0.00000  Uiso   1.00
C53    C     0.51170   0.21263   0.04798   0.00000  Uiso   1.00
C54    C     0.48830   0.12070   0.45202   0.00000  Uiso   1.00
C55    C     0.49914   0.16605   0.02348   0.00000  Uiso   1.00
C56    C     0.50086   0.16728   0.47652   0.00000  Uiso   1.00
C57    C     0.48500   0.11830   0.04591   0.00000  Uiso   1.00
C58    C     0.48477   0.06845   0.25152   0.00000  Uiso   1.00
C59    C     0.51500   0.21503   0.45409   0.00000  Uiso   1.00
C60    C     0.52563   0.25956   0.02594   0.00000  Uiso   1.00
C61    C     0.47437   0.07377   0.47406   0.00000  Uiso   1.00
C62    C     0.52731   0.26083   0.47937   0.00000  Uiso   1.00
C63    C     0.47269   0.07250   0.02063   0.00000  Uiso   1.00
C64    C     0.52325   0.31939   0.24768   0.00000  Uiso   1.00
C65    C     0.47675   0.01394   0.25232   0.00000  Uiso   1.00
C66    C     0.50095   0.16758   0.33634   0.00000  Uiso   1.00
C67    C     0.49905   0.16576   0.16366   0.00000  Uiso   1.00
C68    C     0.48398   0.11786   0.09295   0.00000  Uiso   1.00
H69    H     0.52060   0.24703   0.11364   0.00000  Uiso   1.00
H70    H     0.66218   0.20591   0.28404   0.00000  Uiso   1.00
H71    H     0.47940   0.08631   0.38636   0.00000  Uiso   1.00
H72    H     0.53539   0.29535   0.04477   0.00000  Uiso   1.00
H73    H     0.46461   0.03798   0.45523   0.00000  Uiso   1.00
H74    H     0.53838   0.29797   0.46379   0.00000  Uiso   1.00
H75    H     0.46162   0.03536   0.03621   0.00000  Uiso   1.00
H76    H     0.56718   0.00305   0.24345   0.00000  Uiso   1.00
H77    H     0.43282   0.33028   0.25655   0.00000  Uiso   1.00
H78    H     0.33782   0.12742   0.21596   0.00000  Uiso   1.00
I79    I     0.46415   0.04749   0.12985   0.00000  Uiso   1.00
I80    I     0.53585   0.28584   0.37015   0.00000  Uiso   1.00
N81    N     0.65011   0.15265   0.23783   0.00000  Uiso   1.00
N82    N     0.34989   0.18068   0.26217   0.00000  Uiso   1.00
O83    O     0.46308   0.24619   0.25299   0.00000  Uiso   1.00
O84    O     0.53692   0.08714   0.24701   0.00000  Uiso   1.00
O85    O     0.55946   0.23721   0.24519   0.00000  Uiso   1.00
O86    O     0.44054   0.09613   0.25481   0.00000  Uiso   1.00
O87    O     0.45181   0.17117   0.31997   0.00000  Uiso   1.00
O88    O     0.54819   0.16216   0.18003   0.00000  Uiso   1.00
O89    O     0.54819   0.16219   0.31217   0.00000  Uiso   1.00
O90    O     0.45181   0.17115   0.18783   0.00000  Uiso   1.00
Zn91   Zn    0.43565   0.17266   0.25521   0.00000  Uiso   1.00
Zn92   Zn    0.56435   0.16067   0.24479   0.00000  Uiso   1.00
C93    C     0.84856   0.26488   0.24848   0.00000  Uiso   1.00
C94    C     0.84936   0.21547   0.40705   0.00000  Uiso   1.00
C95    C     0.83048   0.16480   0.11614   0.00000  Uiso   1.00
C96    C     0.83619   0.16853   0.38386   0.00000  Uiso   1.00
C97    C     0.84392   0.21156   0.09432   0.00000  Uiso   1.00
C98    C     0.82275   0.12177   0.40568   0.00000  Uiso   1.00
C99    C     0.84503   0.21263   0.04798   0.00000  Uiso   1.00
C100   C     0.82164   0.12070   0.45202   0.00000  Uiso   1.00
C101   C     0.83247   0.16605   0.02348   0.00000  Uiso   1.00
C102   C     0.83420   0.16728   0.47652   0.00000  Uiso   1.00
C103   C     0.81834   0.11830   0.04591   0.00000  Uiso   1.00
C104   C     0.81811   0.06845   0.25152   0.00000  Uiso   1.00
C105   C     0.84833   0.21503   0.45409   0.00000  Uiso   1.00
C106   C     0.85896   0.25956   0.02594   0.00000  Uiso   1.00
C107   C     0.80770   0.07377   0.47406   0.00000  Uiso   1.00
C108   C     0.86064   0.26083   0.47937   0.00000  Uiso   1.00
C109   C     0.80603   0.07250   0.02063   0.00000  Uiso   1.00
C110   C     0.85658   0.31939   0.24768   0.00000  Uiso   1.00
C111   C     0.81008   0.01394   0.25232   0.00000  Uiso   1.00
C112   C     0.83428   0.16758   0.33634   0.00000  Uiso   1.00
C113   C     0.83238   0.16576   0.16366   0.00000  Uiso   1.00
C114   C     0.81731   0.11786   0.09295   0.00000  Uiso   1.00
H115   H     0.85394   0.24703   0.11364   0.00000  Uiso   1.00
H116   H     0.99552   0.20591   0.28404   0.00000  Uiso   1.00
H117   H     0.81273   0.08631   0.38636   0.00000  Uiso   1.00
H118   H     0.86873   0.29535   0.04477   0.00000  Uiso   1.00
H119   H     0.79794   0.03798   0.45523   0.00000  Uiso   1.00
H120   H     0.87171   0.29797   0.46379   0.00000  Uiso   1.00
H121   H     0.79496   0.03536   0.03621   0.00000  Uiso   1.00
H122   H     0.90051   0.00305   0.24345   0.00000  Uiso   1.00
H123   H     0.76616   0.33028   0.25655   0.00000  Uiso   1.00
H124   H     0.67115   0.12742   0.21596   0.00000  Uiso   1.00
I125   I     0.79748   0.04749   0.12985   0.00000  Uiso   1.00
I126   I     0.86918   0.28584   0.37015   0.00000  Uiso   1.00
N127   N     0.98344   0.15265   0.23783   0.00000  Uiso   1.00
N128   N     0.68322   0.18068   0.26217   0.00000  Uiso   1.00
O129   O     0.79642   0.24619   0.25299   0.00000  Uiso   1.00
O130   O     0.87025   0.08714   0.24701   0.00000  Uiso   1.00
O131   O     0.89280   0.23721   0.24519   0.00000  Uiso   1.00
O132   O     0.77387   0.09613   0.25481   0.00000  Uiso   1.00
O133   O     0.78514   0.17117   0.31997   0.00000  Uiso   1.00
O134   O     0.88153   0.16216   0.18003   0.00000  Uiso   1.00
O135   O     0.88152   0.16219   0.31217   0.00000  Uiso   1.00
O136   O     0.78515   0.17115   0.18783   0.00000  Uiso   1.00
Zn137  Zn    0.76898   0.17266   0.25521   0.00000  Uiso   1.00
Zn138  Zn    0.89769   0.16067   0.24479   0.00000  Uiso   1.00
C139   C     0.18189   0.59821   0.24848   0.00000  Uiso   1.00
C140   C     0.18269   0.54881   0.40705   0.00000  Uiso   1.00
C141   C     0.16381   0.49813   0.11614   0.00000  Uiso   1.00
C142   C     0.16952   0.50187   0.38386   0.00000  Uiso   1.00
C143   C     0.17725   0.54490   0.09432   0.00000  Uiso   1.00
C144   C     0.15608   0.45510   0.40568   0.00000  Uiso   1.00
C145   C     0.17837   0.54596   0.04798   0.00000  Uiso   1.00
C146   C     0.15497   0.45404   0.45202   0.00000  Uiso   1.00
C147   C     0.16580   0.49938   0.02348   0.00000  Uiso   1.00
C148   C     0.16753   0.50062   0.47652   0.00000  Uiso   1.00
C149   C     0.15167   0.45163   0.04591   0.00000  Uiso   1.00
C150   C     0.15144   0.40179   0.25152   0.00000  Uiso   1.00
C151   C     0.18166   0.54837   0.45409   0.00000  Uiso   1.00
C152   C     0.19230   0.59290   0.02594   0.00000  Uiso   1.00
C153   C     0.14104   0.40710   0.47406   0.00000  Uiso   1.00
C154   C     0.19397   0.59416   0.47937   0.00000  Uiso   1.00
C155   C     0.13936   0.40584   0.02063   0.00000  Uiso   1.00
C156   C     0.18992   0.65272   0.24768   0.00000  Uiso   1.00
C157   C     0.14342   0.34728   0.25232   0.00000  Uiso   1.00
C158   C     0.16762   0.50091   0.33634   0.00000  Uiso   1.00
C159   C     0.16572   0.49909   0.16366   0.00000  Uiso   1.00
C160   C     0.15064   0.45119   0.09295   0.00000  Uiso   1.00
H161   H     0.18727   0.58036   0.11364   0.00000  Uiso   1.00
H162   H     0.32885   0.53924   0.28404   0.00000  Uiso   1.00
H163   H     0.14606   0.41964   0.38636   0.00000  Uiso   1.00
H164   H     0.20206   0.62869   0.04477   0.00000  Uiso   1.00
H165   H     0.13127   0.37132   0.45523   0.00000  Uiso   1.00
H166   H     0.20504   0.63131   0.46379   0.00000  Uiso   1.00
H167   H     0.12829   0.36869   0.03621   0.00000  Uiso   1.00
H168   H     0.23384   0.33638   0.24345   0.00000  Uiso   1.00
H169   H     0.09949   0.66362   0.25655   0.00000  Uiso   1.00
H170   H     0.00449   0.46076   0.21596   0.00000  Uiso   1.00
I171   I     0.13082   0.38083   0.12985   0.00000  Uiso   1.00
I172   I     0.20252   0.61917   0.37015   0.00000  Uiso   1.00
N173   N     0.31678   0.48598   0.23783   0.00000  Uiso   1.00
N174   N     0.01656   0.51402   0.26217   0.00000  Uiso   1.00
O175   O     0.12975   0.57952   0.25299   0.00000  Uiso   1.00
O176   O     0.20358   0.42048   0.24701   0.00000  Uiso   1.00
O177   O     0.22613   0.57054   0.24519   0.00000  Uiso   1.00
O178   O     0.10720   0.42946   0.25481   0.00000  Uiso   1.00
O179   O     0.11847   0.50450   0.31997   0.00000  Uiso   1.00
O180   O     0.21486   0.49550   0.18003   0.00000  Uiso   1.00
O181   O     0.21485   0.49552   0.31217   0.00000  Uiso   1.00
O182   O     0.11848   0.50448   0.18783   0.00000  Uiso   1.00
Zn183  Zn    0.10231   0.50600   0.25521   0.00000  Uiso   1.00
Zn184  Zn    0.23102   0.49400   0.24479   0.00000  Uiso   1.00
C185   C     0.51523   0.59821   0.24848   0.00000  Uiso   1.00
C186   C     0.51602   0.54881   0.40705   0.00000  Uiso   1.00
C187   C     0.49714   0.49813   0.11614   0.00000  Uiso   1.00
C188   C     0.50286   0.50187   0.38386   0.00000  Uiso   1.00
C189   C     0.51059   0.54490   0.09432   0.00000  Uiso   1.00
C190   C     0.48941   0.45510   0.40568   0.00000  Uiso   1.00
C191   C     0.51170   0.54596   0.04798   0.00000  Uiso   1.00
C192   C     0.48830   0.45404   0.45202   0.00000  Uiso   1.00
C193   C     0.49914   0.49938   0.02348   0.00000  Uiso   1.00
C194   C     0.50086   0.50062   0.47652   0.00000  Uiso   1.00
C195   C     0.48500   0.45163   0.04591   0.00000  Uiso   1.00
C196   C     0.48477   0.40179   0.25152   0.00000  Uiso   1.00
C197   C     0.51500   0.54837   0.45409   0.00000  Uiso   1.00
C198   C     0.52563   0.59290   0.02594   0.00000  Uiso   1.00
C199   C     0.47437   0.40710   0.47406   0.00000  Uiso   1.00
C200   C     0.52731   0.59416   0.47937   0.00000  Uiso   1.00
C201   C     0.47269   0.40584   0.02063   0.00000  Uiso   1.00
C202   C     0.52325   0.65272   0.24768   0.00000  Uiso   1.00
C203   C     0.47675   0.34728   0.25232   0.00000  Uiso   1.00
C204   C     0.50095   0.50091   0.33634   0.00000  Uiso   1.00
C205   C     0.49905   0.49909   0.16366   0.00000  Uiso   1.00
C206   C     0.48398   0.45119   0.09295   0.00000  Uiso   1.00
H207   H     0.52060   0.58036   0.11364   0.00000  Uiso   1.00
H208   H     0.66218   0.53924   0.28404   0.00000  Uiso   1.00
H209   H     0.47940   0.41964   0.38636   0.00000  Uiso   1.00
H210   H     0.53539   0.62869   0.04477   0.00000  Uiso   1.00
H211   H     0.46461   0.37132   0.45523   0.00000  Uiso   1.00
H212   H     0.53838   0.63131   0.46379   0.00000  Uiso   1.00
H213   H     0.46162   0.36869   0.03621   0.00000  Uiso   1.00
H214   H     0.56718   0.33638   0.24345   0.00000  Uiso   1.00
H215   H     0.43282   0.66362   0.25655   0.00000  Uiso   1.00
H216   H     0.33782   0.46076   0.21596   0.00000  Uiso   1.00
I217   I     0.46415   0.38083   0.12985   0.00000  Uiso   1.00
I218   I     0.53585   0.61917   0.37015   0.00000  Uiso   1.00
N219   N     0.65011   0.48598   0.23783   0.00000  Uiso   1.00
N220   N     0.34989   0.51402   0.26217   0.00000  Uiso   1.00
O221   O     0.46308   0.57952   0.25299   0.00000  Uiso   1.00
O222   O     0.53692   0.42048   0.24701   0.00000  Uiso   1.00
O223   O     0.55946   0.57054   0.24519   0.00000  Uiso   1.00
O224   O     0.44054   0.42946   0.25481   0.00000  Uiso   1.00
O225   O     0.45181   0.50450   0.31997   0.00000  Uiso   1.00
O226   O     0.54819   0.49550   0.18003   0.00000  Uiso   1.00
O227   O     0.54819   0.49552   0.31217   0.00000  Uiso   1.00
O228   O     0.45181   0.50448   0.18783   0.00000  Uiso   1.00
Zn229  Zn    0.43565   0.50600   0.25521   0.00000  Uiso   1.00
Zn230  Zn    0.56435   0.49400   0.24479   0.00000  Uiso   1.00
C231   C     0.84856   0.59821   0.24848   0.00000  Uiso   1.00
C232   C     0.84936   0.54881   0.40705   0.00000  Uiso   1.00
C233   C     0.83048   0.49813   0.11614   0.00000  Uiso   1.00
C234   C     0.83619   0.50187   0.38386   0.00000  Uiso   1.00
C235   C     0.84392   0.54490   0.09432   0.00000  Uiso   1.00
C236   C     0.82275   0.45510   0.40568   0.00000  Uiso   1.00
C237   C     0.84503   0.54596   0.04798   0.00000  Uiso   1.00
C238   C     0.82164   0.45404   0.45202   0.00000  Uiso   1.00
C239   C     0.83247   0.49938   0.02348   0.00000  Uiso   1.00
C240   C     0.83420   0.50062   0.47652   0.00000  Uiso   1.00
C241   C     0.81834   0.45163   0.04591   0.00000  Uiso   1.00
C242   C     0.81811   0.40179   0.25152   0.00000  Uiso   1.00
C243   C     0.84833   0.54837   0.45409   0.00000  Uiso   1.00
C244   C     0.85896   0.59290   0.02594   0.00000  Uiso   1.00
C245   C     0.80770   0.40710   0.47406   0.00000  Uiso   1.00
C246   C     0.86064   0.59416   0.47937   0.00000  Uiso   1.00
C247   C     0.80603   0.40584   0.02063   0.00000  Uiso   1.00
C248   C     0.85658   0.65272   0.24768   0.00000  Uiso   1.00
C249   C     0.81008   0.34728   0.25232   0.00000  Uiso   1.00
C250   C     0.83428   0.50091   0.33634   0.00000  Uiso   1.00
C251   C     0.83238   0.49909   0.16366   0.00000  Uiso   1.00
C252   C     0.81731   0.45119   0.09295   0.00000  Uiso   1.00
H253   H     0.85394   0.58036   0.11364   0.00000  Uiso   1.00
H254   H     0.99552   0.53924   0.28404   0.00000  Uiso   1.00
H255   H     0.81273   0.41964   0.38636   0.00000  Uiso   1.00
H256   H     0.86873   0.62869   0.04477   0.00000  Uiso   1.00
H257   H     0.79794   0.37132   0.45523   0.00000  Uiso   1.00
H258   H     0.87171   0.63131   0.46379   0.00000  Uiso   1.00
H259   H     0.79496   0.36869   0.03621   0.00000  Uiso   1.00
H260   H     0.90051   0.33638   0.24345   0.00000  Uiso   1.00
H261   H     0.76616   0.66362   0.25655   0.00000  Uiso   1.00
H262   H     0.67115   0.46076   0.21596   0.00000  Uiso   1.00
I263   I     0.79748   0.38083   0.12985   0.00000  Uiso   1.00
I264   I     0.86918   0.61917   0.37015   0.00000  Uiso   1.00
N265   N     0.98344   0.48598   0.23783   0.00000  Uiso   1.00
N266   N     0.68322   0.51402   0.26217   0.00000  Uiso   1.00
O267   O     0.79642   0.57952   0.25299   0.00000  Uiso   1.00
O268   O     0.87025   0.42048   0.24701   0.00000  Uiso   1.00
O269   O     0.89280   0.57054   0.24519   0.00000  Uiso   1.00
O270   O     0.77387   0.42946   0.25481   0.00000  Uiso   1.00
O271   O     0.78514   0.50450   0.31997   0.00000  Uiso   1.00
O272   O     0.88153   0.49550   0.18003   0.00000  Uiso   1.00
O273   O     0.88152   0.49552   0.31217   0.00000  Uiso   1.00
O274   O     0.78515   0.50448   0.18783   0.00000  Uiso   1.00
Zn275  Zn    0.76898   0.50600   0.25521   0.00000  Uiso   1.00
Zn276  Zn    0.89769   0.49400   0.24479   0.00000  Uiso   1.00
C277   C     0.18189   0.93155   0.24848   0.00000  Uiso   1.00
C278   C     0.18269   0.88214   0.40705   0.00000  Uiso   1.00
C279   C     0.16381   0.83147   0.11614   0.00000  Uiso   1.00
C280   C     0.16952   0.83520   0.38386   0.00000  Uiso   1.00
C281   C     0.17725   0.87823   0.09432   0.00000  Uiso   1.00
C282   C     0.15608   0.78844   0.40568   0.00000  Uiso   1.00
C283   C     0.17837   0.87930   0.04798   0.00000  Uiso   1.00
C284   C     0.15497   0.78737   0.45202   0.00000  Uiso   1.00
C285   C     0.16580   0.83272   0.02348   0.00000  Uiso   1.00
C286   C     0.16753   0.83395   0.47652   0.00000  Uiso   1.00
C287   C     0.15167   0.78497   0.04591   0.00000  Uiso   1.00
C288   C     0.15144   0.73512   0.25152   0.00000  Uiso   1.00
C289   C     0.18166   0.88170   0.45409   0.00000  Uiso   1.00
C290   C     0.19230   0.92623   0.02594   0.00000  Uiso   1.00
C291   C     0.14104   0.74044   0.47406   0.00000  Uiso   1.00
C292   C     0.19397   0.92750   0.47937   0.00000  Uiso   1.00
C293   C     0.13936   0.73917   0.02063   0.00000  Uiso   1.00
C294   C     0.18992   0.98606   0.24768   0.00000  Uiso   1.00
C295   C     0.14342   0.68061   0.25232   0.00000  Uiso   1.00
C296   C     0.16762   0.83424   0.33634   0.00000  Uiso   1.00
C297   C     0.16572   0.83242   0.16366   0.00000  Uiso   1.00
C298   C     0.15064   0.78453   0.09295   0.00000  Uiso   1.00
H299   H     0.18727   0.91369   0.11364   0.00000  Uiso   1.00
H300   H     0.32885   0.87258   0.28404   0.00000  Uiso   1.00
H301   H     0.14606   0.75297   0.38636   0.00000  Uiso   1.00
H302   H     0.20206   0.96202   0.04477   0.00000  Uiso   1.00
H303   H     0.13127   0.70465   0.45523   0.00000  Uiso   1.00
H304   H     0.20504   0.96464   0.46379   0.00000  Uiso   1.00
H305   H     0.12829   0.70203   0.03621   0.00000  Uiso   1.00
H306   H     0.23384   0.66972   0.24345   0.00000  Uiso   1.00
H307   H     0.09949   0.99695   0.25655   0.00000  Uiso   1.00
H308   H     0.00449   0.79409   0.21596   0.00000  Uiso   1.00
I309   I     0.13082   0.71416   0.12985   0.00000  Uiso   1.00
I310   I     0.20252   0.95251   0.37015   0.00000  Uiso   1.00
N311   N     0.31678   0.81932   0.23783   0.00000  Uiso   1.00
N312   N     0.01656   0.84735   0.26217   0.00000  Uiso   1.00
O313   O     0.12975   0.91286   0.25299   0.00000  Uiso   1.00
O314   O     0.20358   0.75381   0.24701   0.00000  Uiso   1.00
O315   O     0.22613   0.90387   0.24519   0.00000  Uiso   1.00
O316   O     0.10720   0.76279   0.25481   0.00000  Uiso   1.00
O317   O     0.11847   0.83784   0.31997   0.00000  Uiso   1.00
O318   O     0.21486   0.82883   0.18003   0.00000  Uiso   1.00
O319   O     0.21485   0.82885   0.31217   0.00000  Uiso   1.00
O320   O     0.11848   0.83781   0.18783   0.00000  Uiso   1.00
Zn321  Zn    0.10231   0.83933   0.25521   0.00000  Uiso   1.00
Zn322  Zn    0.23102   0.82734   0.24479   0.00000  Uiso   1.00
C323   C     0.51523   0.93155   0.24848   0.00000  Uiso   1.00
C324   C     0.51602   0.88214   0.40705   0.00000  Uiso   1.00
C325   C     0.49714   0.83147   0.11614   0.00000  Uiso   1.00
C326   C     0.50286   0.83520   0.38386   0.00000  Uiso   1.00
C327   C     0.51059   0.87823   0.09432   0.00000  Uiso   1.00
C328   C     0.48941   0.78844   0.40568   0.00000  Uiso   1.00
C329   C     0.51170   0.87930   0.04798   0.00000  Uiso   1.00
C330   C     0.48830   0.78737   0.45202   0.00000  Uiso   1.00
C331   C     0.49914   0.83272   0.02348   0.00000  Uiso   1.00
C332   C     0.50086   0.83395   0.47652   0.00000  Uiso   1.00
C333   C     0.48500   0.78497   0.04591   0.00000  Uiso   1.00
C334   C     0.48477   0.73512   0.25152   0.00000  Uiso   1.00
C335   C     0.51500   0.88170   0.45409   0.00000  Uiso   1.00
C336   C     0.52563   0.92623   0.02594   0.00000  Uiso   1.00
C337   C     0.47437   0.74044   0.47406   0.00000  Uiso   1.00
C338   C     0.52731   0.92750   0.47937   0.00000  Uiso   1.00
C339   C     0.47269   0.73917   0.02063   0.00000  Uiso   1.00
C340   C     0.52325   0.98606   0.24768   0.00000  Uiso   1.00
C341   C     0.47675   0.68061   0.25232   0.00000  Uiso   1.00
C342   C     0.50095   0.83424   0.33634   0.00000  Uiso   1.00
C343   C     0.49905   0.83242   0.16366   0.00000  Uiso   1.00
C344   C     0.48398   0.78453   0.09295   0.00000  Uiso   1.00
H345   H     0.52060   0.91369   0.11364   0.00000  Uiso   1.00
H346   H     0.66218   0.87258   0.28404   0.00000  Uiso   1.00
H347   H     0.47940   0.75297   0.38636   0.00000  Uiso   1.00
H348   H     0.53539   0.96202   0.04477   0.00000  Uiso   1.00
H349   H     0.46461   0.70465   0.45523   0.00000  Uiso   1.00
H350   H     0.53838   0.96464   0.46379   0.00000  Uiso   1.00
H351   H     0.46162   0.70203   0.03621   0.00000  Uiso   1.00
H352   H     0.56718   0.66972   0.24345   0.00000  Uiso   1.00
H353   H     0.43282   0.99695   0.25655   0.00000  Uiso   1.00
H354   H     0.33782   0.79409   0.21596   0.00000  Uiso   1.00
I355   I     0.46415   0.71416   0.12985   0.00000  Uiso   1.00
I356   I     0.53585   0.95251   0.37015   0.00000  Uiso   1.00
N357   N     0.65011   0.81932   0.23783   0.00000  Uiso   1.00
N358   N     0.34989   0.84735   0.26217   0.00000  Uiso   1.00
O359   O     0.46308   0.91286   0.25299   0.00000  Uiso   1.00
O360   O     0.53692   0.75381   0.24701   0.00000  Uiso   1.00
O361   O     0.55946   0.90387   0.24519   0.00000  Uiso   1.00
O362   O     0.44054   0.76279   0.25481   0.00000  Uiso   1.00
O363   O     0.45181   0.83784   0.31997   0.00000  Uiso   1.00
O364   O     0.54819   0.82883   0.18003   0.00000  Uiso   1.00
O365   O     0.54819   0.82885   0.31217   0.00000  Uiso   1.00
O366   O     0.45181   0.83781   0.18783   0.00000  Uiso   1.00
Zn367  Zn    0.43565   0.83933   0.25521   0.00000  Uiso   1.00
Zn368  Zn    0.56435   0.82734   0.24479   0.00000  Uiso   1.00
C369   C     0.84856   0.93155   0.24848   0.00000  Uiso   1.00
C370   C     0.84936   0.88214   0.40705   0.00000  Uiso   1.00
C371   C     0.83048   0.83147   0.11614   0.00000  Uiso   1.00
C372   C     0.83619   0.83520   0.38386   0.00000  Uiso   1.00
C373   C     0.84392   0.87823   0.09432   0.00000  Uiso   1.00
C374   C     0.82275   0.78844   0.40568   0.00000  Uiso   1.00
C375   C     0.84503   0.87930   0.04798   0.00000  Uiso   1.00
C376   C     0.82164   0.78737   0.45202   0.00000  Uiso   1.00
C377   C     0.83247   0.83272   0.02348   0.00000  Uiso   1.00
C378   C     0.83420   0.83395   0.47652   0.00000  Uiso   1.00
C379   C     0.81834   0.78497   0.04591   0.00000  Uiso   1.00
C380   C     0.81811   0.73512   0.25152   0.00000  Uiso   1.00
C381   C     0.84833   0.88170   0.45409   0.00000  Uiso   1.00
C382   C     0.85896   0.92623   0.02594   0.00000  Uiso   1.00
C383   C     0.80770   0.74044   0.47406   0.00000  Uiso   1.00
C384   C     0.86064   0.92750   0.47937   0.00000  Uiso   1.00
C385   C     0.80603   0.73917   0.02063   0.00000  Uiso   1.00
C386   C     0.85658   0.98606   0.24768   0.00000  Uiso   1.00
C387   C     0.81008   0.68061   0.25232   0.00000  Uiso   1.00
C388   C     0.83428   0.83424   0.33634   0.00000  Uiso   1.00
C389   C     0.83238   0.83242   0.16366   0.00000  Uiso   1.00
C390   C     0.81731   0.78453   0.09295   0.00000  Uiso   1.00
H391   H     0.85394   0.91369   0.11364   0.00000  Uiso   1.00
H392   H     0.99552   0.87258   0.28404   0.00000  Uiso   1.00
H393   H     0.81273   0.75297   0.38636   0.00000  Uiso   1.00
H394   H     0.86873   0.96202   0.04477   0.00000  Uiso   1.00
H395   H     0.79794   0.70465   0.45523   0.00000  Uiso   1.00
H396   H     0.87171   0.96464   0.46379   0.00000  Uiso   1.00
H397   H     0.79496   0.70203   0.03621   0.00000  Uiso   1.00
H398   H     0.90051   0.66972   0.24345   0.00000  Uiso   1.00
H399   H     0.76616   0.99695   0.25655   0.00000  Uiso   1.00
H400   H     0.67115   0.79409   0.21596   0.00000  Uiso   1.00
I401   I     0.79748   0.71416   0.12985   0.00000  Uiso   1.00
I402   I     0.86918   0.95251   0.37015   0.00000  Uiso   1.00
N403   N     0.98344   0.81932   0.23783   0.00000  Uiso   1.00
N404   N     0.68322   0.84735   0.26217   0.00000  Uiso   1.00
O405   O     0.79642   0.91286   0.25299   0.00000  Uiso   1.00
O406   O     0.87025   0.75381   0.24701   0.00000  Uiso   1.00
O407   O     0.89280   0.90387   0.24519   0.00000  Uiso   1.00
O408   O     0.77387   0.76279   0.25481   0.00000  Uiso   1.00
O409   O     0.78514   0.83784   0.31997   0.00000  Uiso   1.00
O410   O     0.88153   0.82883   0.18003   0.00000  Uiso   1.00
O411   O     0.88152   0.82885   0.31217   0.00000  Uiso   1.00
O412   O     0.78515   0.83781   0.18783   0.00000  Uiso   1.00
Zn413  Zn    0.76898   0.83933   0.25521   0.00000  Uiso   1.00
Zn414  Zn    0.89769   0.82734   0.24479   0.00000  Uiso   1.00
C415   C     0.18189   0.26488   0.74848   0.00000  Uiso   1.00
C416   C     0.18269   0.21547   0.90705   0.00000  Uiso   1.00
C417   C     0.16381   0.16480   0.61614   0.00000  Uiso   1.00
C418   C     0.16952   0.16853   0.88386   0.00000  Uiso   1.00
C419   C     0.17725   0.21156   0.59432   0.00000  Uiso   1.00
C420   C     0.15608   0.12177   0.90568   0.00000  Uiso   1.00
C421   C     0.17837   0.21263   0.54798   0.00000  Uiso   1.00
C422   C     0.15497   0.12070   0.95202   0.00000  Uiso   1.00
C423   C     0.16580   0.16605   0.52348   0.00000  Uiso   1.00
C424   C     0.16753   0.16728   0.97652   0.00000  Uiso   1.00
C425   C     0.15167   0.11830   0.54591   0.00000  Uiso   1.00
C426   C     0.15144   0.06845   0.75152   0.00000  Uiso   1.00
C427   C     0.18166   0.21503   0.95409   0.00000  Uiso   1.00
C428   C     0.19230   0.25956   0.52594   0.00000  Uiso   1.00
C429   C     0.14104   0.07377   0.97406   0.00000  Uiso   1.00
C430   C     0.19397   0.26083   0.97937   0.00000  Uiso   1.00
C431   C     0.13936   0.07250   0.52063   0.00000  Uiso   1.00
C432   C     0.18992   0.31939   0.74768   0.00000  Uiso   1.00
C433   C     0.14342   0.01394   0.75232   0.00000  Uiso   1.00
C434   C     0.16762   0.16758   0.83634   0.00000  Uiso   1.00
C435   C     0.16572   0.16576   0.66366   0.00000  Uiso   1.00
C436   C     0.15064   0.11786   0.59295   0.00000  Uiso   1.00
H437   H     0.18727   0.24703   0.61364   0.00000  Uiso   1.00
H438   H     0.32885   0.20591   0.78404   0.00000  Uiso   1.00
H439   H     0.14606   0.08631   0.88636   0.00000  Uiso   1.00
H440   H     0.20206   0.29535   0.54477   0.00000  Uiso   1.00
H441   H     0.13127   0.03798   0.95523   0.00000  Uiso   1.00
H442   H     0.20504   0.29797   0.96379   0.00000  Uiso   1.00
H443   H     0.12829   0.03536   0.53621   0.00000  Uiso   1.00
H444   H     0.23384   0.00305   0.74345   0.00000  Uiso   1.00
H445   H     0.09949   0.33028   0.75655   0.00000  Uiso   1.00
H446   H     0.00449   0.12742   0.71596   0.00000  Uiso   1.00
I447   I     0.13082   0.04749   0.62985   0.00000  Uiso   1.00
I448   I     0.20252   0.28584   0.87015   0.00000  Uiso   1.00
N449   N     0.31678   0.15265   0.73783   0.00000  Uiso   1.00
N450   N     0.01656   0.18068   0.76217   0.00000  Uiso   1.00
O451   O     0.12975   0.24619   0.75299   0.00000  Uiso   1.00
O452   O     0.20358   0.08714   0.74701   0.00000  Uiso   1.00
O453   O     0.22613   0.23721   0.74519   0.00000  Uiso   1.00
O454   O     0.10720   0.09613   0.75481   0.00000  Uiso   1.00
O455   O     0.11847   0.17117   0.81997   0.00000  Uiso   1.00
O456   O     0.21486   0.16216   0.68003   0.00000  Uiso   1.00
O457   O     0.21485   0.16219   0.81217   0.00000  Uiso   1.00
O458   O     0.11848   0.17115   0.68783   0.00000  Uiso   1.00
Zn459  Zn    0.10231   0.17266   0.75521   0.00000  Uiso   1.00
Zn460  Zn    0.23102   0.16067   0.74479   0.00000  Uiso   1.00
C461   C     0.51523   0.26488   0.74848   0.00000  Uiso   1.00
C462   C     0.51602   0.21547   0.90705   0.00000  Uiso   1.00
C463   C     0.49714   0.16480   0.61614   0.00000  Uiso   1.00
C464   C     0.50286   0.16853   0.88386   0.00000  Uiso   1.00
C465   C     0.51059   0.21156   0.59432   0.00000  Uiso   1.00
C466   C     0.48941   0.12177   0.90568   0.00000  Uiso   1.00
C467   C     0.51170   0.21263   0.54798   0.00000  Uiso   1.00
C468   C     0.48830   0.12070   0.95202   0.00000  Uiso   1.00
C469   C     0.49914   0.16605   0.52348   0.00000  Uiso   1.00
C470   C     0.50086   0.16728   0.97652   0.00000  Uiso   1.00
C471   C     0.48500   0.11830   0.54591   0.00000  Uiso   1.00
C472   C     0.48477   0.06845   0.75152   0.00000  Uiso   1.00
C473   C     0.51500   0.21503   0.95409   0.00000  Uiso   1.00
C474   C     0.52563   0.25956   0.52594   0.00000  Uiso   1.00
C475   C     0.47437   0.07377   0.97406   0.00000  Uiso   1.00
C476   C     0.52731   0.26083   0.97937   0.00000  Uiso   1.00
C477   C     0.47269   0.07250   0.52063   0.00000  Uiso   1.00
C478   C     0.52325   0.31939   0.74768   0.00000  Uiso   1.00
C479   C     0.47675   0.01394   0.75232   0.00000  Uiso   1.00
C480   C     0.50095   0.16758   0.83634   0.00000  Uiso   1.00
C481   C     0.49905   0.16576   0.66366   0.00000  Uiso   1.00
C482   C     0.48398   0.11786   0.59295   0.00000  Uiso   1.00
H483   H     0.52060   0.24703   0.61364   0.00000  Uiso   1.00
H484   H     0.66218   0.20591   0.78404   0.00000  Uiso   1.00
H485   H     0.47940   0.08631   0.88636   0.00000  Uiso   1.00
H486   H     0.53539   0.29535   0.54477   0.00000  Uiso   1.00
H487   H     0.46461   0.03798   0.95523   0.00000  Uiso   1.00
H488   H     0.53838   0.29797   0.96379   0.00000  Uiso   1.00
H489   H     0.46162   0.03536   0.53621   0.00000  Uiso   1.00
H490   H     0.56718   0.00305   0.74345   0.00000  Uiso   1.00
H491   H     0.43282   0.33028   0.75655   0.00000  Uiso   1.00
H492   H     0.33782   0.12742   0.71596   0.00000  Uiso   1.00
I493   I     0.46415   0.04749   0.62985   0.00000  Uiso   1.00
I494   I     0.53585   0.28584   0.87015   0.00000  Uiso   1.00
N495   N     0.65011   0.15265   0.73783   0.00000  Uiso   1.00
N496   N     0.34989   0.18068   0.76217   0.00000  Uiso   1.00
O497   O     0.46308   0.24619   0.75299   0.00000  Uiso   1.00
O498   O     0.53692   0.08714   0.74701   0.00000  Uiso   1.00
O499   O     0.55946   0.23721   0.74519   0.00000  Uiso   1.00
O500   O     0.44054   0.09613   0.75481   0.00000  Uiso   1.00
O501   O     0.45181   0.17117   0.81997   0.00000  Uiso   1.00
O502   O     0.54819   0.16216   0.68003   0.00000  Uiso   1.00
O503   O     0.54819   0.16219   0.81217   0.00000  Uiso   1.00
O504   O     0.45181   0.17115   0.68783   0.00000  Uiso   1.00
Zn505  Zn    0.43565   0.17266   0.75521   0.00000  Uiso   1.00
Zn506  Zn    0.56435   0.16067   0.74479   0.00000  Uiso   1.00
C507   C     0.84856   0.26488   0.74848   0.00000  Uiso   1.00
C508   C     0.84936   0.21547   0.90705   0.00000  Uiso   1.00
C509   C     0.83048   0.16480   0.61614   0.00000  Uiso   1.00
C510   C     0.83619   0.16853   0.88386   0.00000  Uiso   1.00
C511   C     0.84392   0.21156   0.59432   0.00000  Uiso   1.00
C512   C     0.82275   0.12177   0.90568   0.00000  Uiso   1.00
C513   C     0.84503   0.21263   0.54798   0.00000  Uiso   1.00
C514   C     0.82164   0.12070   0.95202   0.00000  Uiso   1.00
C515   C     0.83247   0.16605   0.52348   0.00000  Uiso   1.00
C516   C     0.83420   0.16728   0.97652   0.00000  Uiso   1.00
C517   C     0.81834   0.11830   0.54591   0.00000  Uiso   1.00
C518   C     0.81811   0.06845   0.75152   0.00000  Uiso   1.00
C519   C     0.84833   0.21503   0.95409   0.00000  Uiso   1.00
C520   C     0.85896   0.25956   0.52594   0.00000  Uiso   1.00
C521   C     0.80770   0.07377   0.97406   0.00000  Uiso   1.00
C522   C     0.86064   0.26083   0.97937   0.00000  Uiso   1.00
C523   C     0.80603   0.07250   0.52063   0.00000  Uiso   1.00
C524   C     0.85658   0.31939   0.74768   0.00000  Uiso   1.00
C525   C     0.81008   0.01394   0.75232   0.00000  Uiso   1.00
C526   C     0.83428   0.16758   0.83634   0.00000  Uiso   1.00
C527   C     0.83238   0.16576   0.66366   0.00000  Uiso   1.00
C528   C     0.81731   0.11786   0.59295   0.00000  Uiso   1.00
H529   H     0.85394   0.24703   0.61364   0.00000  Uiso   1.00
H530   H     0.99552   0.20591   0.78404   0.00000  Uiso   1.00
H531   H     0.81273   0.08631   0.88636   0.00000  Uiso   1.00
H532   H     0.86873   0.29535   0.54477   0.00000  Uiso   1.00
H533   H     0.79794   0.03798   0.95523   0.00000  Uiso   1.00
H534   H     0.87171   0.29797   0.96379   0.00000  Uiso   1.00
H535   H     0.79496   0.03536   0.53621   0.00000  Uiso   1.00
H536   H     0.90051   0.00305   0.74345   0.00000  Uiso   1.00
H537   H     0.76616   0.33028   0.75655   0.00000  Uiso   1.00
H538   H     0.67115   0.12742   0.71596   0.00000  Uiso   1.00
I539   I     0.79748   0.04749   0.62985   0.00000  Uiso   1.00
I540   I     0.86918   0.28584   0.87015   0.00000  Uiso   1.00
N541   N     0.98344   0.15265   0.73783   0.00000  Uiso   1.00
N542   N     0.68322   0.18068   0.76217   0.00000  Uiso   1.00
O543   O     0.79642   0.24619   0.75299   0.00000  Uiso   1.00
O544   O     0.87025   0.08714   0.74701   0.00000  Uiso   1.00
O545   O     0.89280   0.23721   0.74519   0.00000  Uiso   1.00
O546   O     0.77387   0.09613   0.75481   0.00000  Uiso   1.00
O547   O     0.78514   0.17117   0.81997   0.00000  Uiso   1.00
O548   O     0.88153   0.16216   0.68003   0.00000  Uiso   1.00
O549   O     0.88152   0.16219   0.81217   0.00000  Uiso   1.00
O550   O     0.78515   0.17115   0.68783   0.00000  Uiso   1.00
Zn551  Zn    0.76898   0.17266   0.75521   0.00000  Uiso   1.00
Zn552  Zn    0.89769   0.16067   0.74479   0.00000  Uiso   1.00
C553   C     0.18189   0.59821   0.74848   0.00000  Uiso   1.00
C554   C     0.18269   0.54881   0.90705   0.00000  Uiso   1.00
C555   C     0.16381   0.49813   0.61614   0.00000  Uiso   1.00
C556   C     0.16952   0.50187   0.88386   0.00000  Uiso   1.00
C557   C     0.17725   0.54490   0.59432   0.00000  Uiso   1.00
C558   C     0.15608   0.45510   0.90568   0.00000  Uiso   1.00
C559   C     0.17837   0.54596   0.54798   0.00000  Uiso   1.00
C560   C     0.15497   0.45404   0.95202   0.00000  Uiso   1.00
C561   C     0.16580   0.49938   0.52348   0.00000  Uiso   1.00
C562   C     0.16753   0.50062   0.97652   0.00000  Uiso   1.00
C563   C     0.15167   0.45163   0.54591   0.00000  Uiso   1.00
C564   C     0.15144   0.40179   0.75152   0.00000  Uiso   1.00
C565   C     0.18166   0.54837   0.95409   0.00000  Uiso   1.00
C566   C     0.19230   0.59290   0.52594   0.00000  Uiso   1.00
C567   C     0.14104   0.40710   0.97406   0.00000  Uiso   1.00
C568   C     0.19397   0.59416   0.97937   0.00000  Uiso   1.00
C569   C     0.13936   0.40584   0.52063   0.00000  Uiso   1.00
C570   C     0.18992   0.65272   0.74768   0.00000  Uiso   1.00
C571   C     0.14342   0.34728   0.75232   0.00000  Uiso   1.00
C572   C     0.16762   0.50091   0.83634   0.00000  Uiso   1.00
C573   C     0.16572   0.49909   0.66366   0.00000  Uiso   1.00
C574   C     0.15064   0.45119   0.59295   0.00000  Uiso   1.00
H575   H     0.18727   0.58036   0.61364   0.00000  Uiso   1.00
H576   H     0.32885   0.53924   0.78404   0.00000  Uiso   1.00
H577   H     0.14606   0.41964   0.88636   0.00000  Uiso   1.00
H578   H     0.20206   0.62869   0.54477   0.00000  Uiso   1.00
H579   H     0.13127   0.37132   0.95523   0.00000  Uiso   1.00
H580   H     0.20504   0.63131   0.96379   0.00000  Uiso   1.00
H581   H     0.12829   0.36869   0.53621   0.00000  Uiso   1.00
H582   H     0.23384   0.33638   0.74345   0.00000  Uiso   1.00
H583   H     0.09949   0.66362   0.75655   0.00000  Uiso   1.00
H584   H     0.00449   0.46076   0.71596   0.00000  Uiso   1.00
I585   I     0.13082   0.38083   0.62985   0.00000  Uiso   1.00
I586   I     0.20252   0.61917   0.87015   0.00000  Uiso   1.00
N587   N     0.31678   0.48598   0.73783   0.00000  Uiso   1.00
N588   N     0.01656   0.51402   0.76217   0.00000  Uiso   1.00
O589   O     0.12975   0.57952   0.75299   0.00000  Uiso   1.00
O590   O     0.20358   0.42048   0.74701   0.00000  Uiso   1.00
O591   O     0.22613   0.57054   0.74519   0.00000  Uiso   1.00
O592   O     0.10720   0.42946   0.75481   0.00000  Uiso   1.00
O593   O     0.11847   0.50450   0.81997   0.00000  Uiso   1.00
O594   O     0.21486   0.49550   0.68003   0.00000  Uiso   1.00
O595   O     0.21485   0.49552   0.81217   0.00000  Uiso   1.00
O596   O     0.11848   0.50448   0.68783   0.00000  Uiso   1.00
Zn597  Zn    0.10231   0.50600   0.75521   0.00000  Uiso   1.00
Zn598  Zn    0.23102   0.49400   0.74479   0.00000  Uiso   1.00
C599   C     0.51523   0.59821   0.74848   0.00000  Uiso   1.00
C600   C     0.51602   0.54881   0.90705   0.00000  Uiso   1.00
C601   C     0.49714   0.49813   0.61614   0.00000  Uiso   1.00
C602   C     0.50286   0.50187   0.88386   0.00000  Uiso   1.00
C603   C     0.51059   0.54490   0.59432   0.00000  Uiso   1.00
C604   C     0.48941   0.45510   0.90568   0.00000  Uiso   1.00
C605   C     0.51170   0.54596   0.54798   0.00000  Uiso   1.00
C606   C     0.48830   0.45404   0.95202   0.00000  Uiso   1.00
C607   C     0.49914   0.49938   0.52348   0.00000  Uiso   1.00
C608   C     0.50086   0.50062   0.97652   0.00000  Uiso   1.00
C609   C     0.48500   0.45163   0.54591   0.00000  Uiso   1.00
C610   C     0.48477   0.40179   0.75152   0.00000  Uiso   1.00
C611   C     0.51500   0.54837   0.95409   0.00000  Uiso   1.00
C612   C     0.52563   0.59290   0.52594   0.00000  Uiso   1.00
C613   C     0.47437   0.40710   0.97406   0.00000  Uiso   1.00
C614   C     0.52731   0.59416   0.97937   0.00000  Uiso   1.00
C615   C     0.47269   0.40584   0.52063   0.00000  Uiso   1.00
C616   C     0.52325   0.65272   0.74768   0.00000  Uiso   1.00
C617   C     0.47675   0.34728   0.75232   0.00000  Uiso   1.00
C618   C     0.50095   0.50091   0.83634   0.00000  Uiso   1.00
C619   C     0.49905   0.49909   0.66366   0.00000  Uiso   1.00
C620   C     0.48398   0.45119   0.59295   0.00000  Uiso   1.00
H621   H     0.52060   0.58036   0.61364   0.00000  Uiso   1.00
H622   H     0.66218   0.53924   0.78404   0.00000  Uiso   1.00
H623   H     0.47940   0.41964   0.88636   0.00000  Uiso   1.00
H624   H     0.53539   0.62869   0.54477   0.00000  Uiso   1.00
H625   H     0.46461   0.37132   0.95523   0.00000  Uiso   1.00
H626   H     0.53838   0.63131   0.96379   0.00000  Uiso   1.00
H627   H     0.46162   0.36869   0.53621   0.00000  Uiso   1.00
H628   H     0.56718   0.33638   0.74345   0.00000  Uiso   1.00
H629   H     0.43282   0.66362   0.75655   0.00000  Uiso   1.00
H630   H     0.33782   0.46076   0.71596   0.00000  Uiso   1.00
I631   I     0.46415   0.38083   0.62985   0.00000  Uiso   1.00
I632   I     0.53585   0.61917   0.87015   0.00000  Uiso   1.00
N633   N     0.65011   0.48598   0.73783   0.00000  Uiso   1.00
N634   N     0.34989   0.51402   0.76217   0.00000  Uiso   1.00
O635   O     0.46308   0.57952   0.75299   0.00000  Uiso   1.00
O636   O     0.53692   0.42048   0.74701   0.00000  Uiso   1.00
O637   O     0.55946   0.57054   0.74519   0.00000  Uiso   1.00
O638   O     0.44054   0.42946   0.75481   0.00000  Uiso   1.00
O639   O     0.45181   0.50450   0.81997   0.00000  Uiso   1.00
O640   O     0.54819   0.49550   0.68003   0.00000  Uiso   1.00
O641   O     0.54819   0.49552   0.81217   0.00000  Uiso   1.00
O642   O     0.45181   0.50448   0.68783   0.00000  Uiso   1.00
Zn643  Zn    0.43565   0.50600   0.75521   0.00000  Uiso   1.00
Zn644  Zn    0.56435   0.49400   0.74479   0.00000  Uiso   1.00
C645   C     0.84856   0.59821   0.74848   0.00000  Uiso   1.00
C646   C     0.84936   0.54881   0.90705   0.00000  Uiso   1.00
C647   C     0.83048   0.49813   0.61614   0.00000  Uiso   1.00
C648   C     0.83619   0.50187   0.88386   0.00000  Uiso   1.00
C649   C     0.84392   0.54490   0.59432   0.00000  Uiso   1.00
C650   C     0.82275   0.45510   0.90568   0.00000  Uiso   1.00
C651   C     0.84503   0.54596   0.54798   0.00000  Uiso   1.00
C652   C     0.82164   0.45404   0.95202   0.00000  Uiso   1.00
C653   C     0.83247   0.49938   0.52348   0.00000  Uiso   1.00
C654   C     0.83420   0.50062   0.97652   0.00000  Uiso   1.00
C655   C     0.81834   0.45163   0.54591   0.00000  Uiso   1.00
C656   C     0.81811   0.40179   0.75152   0.00000  Uiso   1.00
C657   C     0.84833   0.54837   0.95409   0.00000  Uiso   1.00
C658   C     0.85896   0.59290   0.52594   0.00000  Uiso   1.00
C659   C     0.80770   0.40710   0.97406   0.00000  Uiso   1.00
C660   C     0.86064   0.59416   0.97937   0.00000  Uiso   1.00
C661   C     0.80603   0.40584   0.52063   0.00000  Uiso   1.00
C662   C     0.85658   0.65272   0.74768   0.00000  Uiso   1.00
C663   C     0.81008   0.34728   0.75232   0.00000  Uiso   1.00
C664   C     0.83428   0.50091   0.83634   0.00000  Uiso   1.00
C665   C     0.83238   0.49909   0.66366   0.00000  Uiso   1.00
C666   C     0.81731   0.45119   0.59295   0.00000  Uiso   1.00
H667   H     0.85394   0.58036   0.61364   0.00000  Uiso   1.00
H668   H     0.99552   0.53924   0.78404   0.00000  Uiso   1.00
H669   H     0.81273   0.41964   0.88636   0.00000  Uiso   1.00
H670   H     0.86873   0.62869   0.54477   0.00000  Uiso   1.00
H671   H     0.79794   0.37132   0.95523   0.00000  Uiso   1.00
H672   H     0.87171   0.63131   0.96379   0.00000  Uiso   1.00
H673   H     0.79496   0.36869   0.53621   0.00000  Uiso   1.00
H674   H     0.90051   0.33638   0.74345   0.00000  Uiso   1.00
H675   H     0.76616   0.66362   0.75655   0.00000  Uiso   1.00
H676   H     0.67115   0.46076   0.71596   0.00000  Uiso   1.00
I677   I     0.79748   0.38083   0.62985   0.00000  Uiso   1.00
I678   I     0.86918   0.61917   0.87015   0.00000  Uiso   1.00
N679   N     0.98344   0.48598   0.73783   0.00000  Uiso   1.00
N680   N     0.68322   0.51402   0.76217   0.00000  Uiso   1.00
O681   O     0.79642   0.57952   0.75299   0.00000  Uiso   1.00
O682   O     0.87025   0.42048   0.74701   0.00000  Uiso   1.00
O683   O     0.89280   0.57054   0.74519   0.00000  Uiso   1.00
O684   O     0.77387   0.42946   0.75481   0.00000  Uiso   1.00
O685   O     0.78514   0.50450   0.81997   0.00000  Uiso   1.00
O686   O     0.88153   0.49550   0.68003   0.00000  Uiso   1.00
O687   O     0.88152   0.49552   0.81217   0.00000  Uiso   1.00
O688   O     0.78515   0.50448   0.68783   0.00000  Uiso   1.00
Zn689  Zn    0.76898   0.50600   0.75521   0.00000  Uiso   1.00
Zn690  Zn    0.89769   0.49400   0.74479   0.00000  Uiso   1.00
C691   C     0.18189   0.93155   0.74848   0.00000  Uiso   1.00
C692   C     0.18269   0.88214   0.90705   0.00000  Uiso   1.00
C693   C     0.16381   0.83147   0.61614   0.00000  Uiso   1.00
C694   C     0.16952   0.83520   0.88386   0.00000  Uiso   1.00
C695   C     0.17725   0.87823   0.59432   0.00000  Uiso   1.00
C696   C     0.15608   0.78844   0.90568   0.00000  Uiso   1.00
C697   C     0.17837   0.87930   0.54798   0.00000  Uiso   1.00
C698   C     0.15497   0.78737   0.95202   0.00000  Uiso   1.00
C699   C     0.16580   0.83272   0.52348   0.00000  Uiso   1.00
C700   C     0.16753   0.83395   0.97652   0.00000  Uiso   1.00
C701   C     0.15167   0.78497   0.54591   0.00000  Uiso   1.00
C702   C     0.15144   0.73512   0.75152   0.00000  Uiso   1.00
C703   C     0.18166   0.88170   0.95409   0.00000  Uiso   1.00
C704   C     0.19230   0.92623   0.52594   0.00000  Uiso   1.00
C705   C     0.14104   0.74044   0.97406   0.00000  Uiso   1.00
C706   C     0.19397   0.92750   0.97937   0.00000  Uiso   1.00
C707   C     0.13936   0.73917   0.52063   0.00000  Uiso   1.00
C708   C     0.18992   0.98606   0.74768   0.00000  Uiso   1.00
C709   C     0.14342   0.68061   0.75232   0.00000  Uiso   1.00
C710   C     0.16762   0.83424   0.83634   0.00000  Uiso   1.00
C711   C     0.16572   0.83242   0.66366   0.00000  Uiso   1.00
C712   C     0.15064   0.78453   0.59295   0.00000  Uiso   1.00
H713   H     0.18727   0.91369   0.61364   0.00000  Uiso   1.00
H714   H     0.32885   0.87258   0.78404   0.00000  Uiso   1.00
H715   H     0.14606   0.75297   0.88636   0.00000  Uiso   1.00
H716   H     0.20206   0.96202   0.54477   0.00000  Uiso   1.00
H717   H     0.13127   0.70465   0.95523   0.00000  Uiso   1.00
H718   H     0.20504   0.96464   0.96379   0.00000  Uiso   1.00
H719   H     0.12829   0.70203   0.53621   0.00000  Uiso   1.00
H720   H     0.23384   0.66972   0.74345   0.00000  Uiso   1.00
H721   H     0.09949   0.99695   0.75655   0.00000  Uiso   1.00
H722   H     0.00449   0.79409   0.71596   0.00000  Uiso   1.00
I723   I     0.13082   0.71416   0.62985   0.00000  Uiso   1.00
I724   I     0.20252   0.95251   0.87015   0.00000  Uiso   1.00
N725   N     0.31678   0.81932   0.73783   0.00000  Uiso   1.00
N726   N     0.01656   0.84735   0.76217   0.00000  Uiso   1.00
O727   O     0.12975   0.91286   0.75299   0.00000  Uiso   1.00
O728   O     0.20358   0.75381   0.74701   0.00000  Uiso   1.00
O729   O     0.22613   0.90387   0.74519   0.00000  Uiso   1.00
O730   O     0.10720   0.76279   0.75481   0.00000  Uiso   1.00
O731   O     0.11847   0.83784   0.81997   0.00000  Uiso   1.00
O732   O     0.21486   0.82883   0.68003   0.00000  Uiso   1.00
O733   O     0.21485   0.82885   0.81217   0.00000  Uiso   1.00
O734   O     0.11848   0.83781   0.68783   0.00000  Uiso   1.00
Zn735  Zn    0.10231   0.83933   0.75521   0.00000  Uiso   1.00
Zn736  Zn    0.23102   0.82734   0.74479   0.00000  Uiso   1.00
C737   C     0.51523   0.93155   0.74848   0.00000  Uiso   1.00
C738   C     0.51602   0.88214   0.90705   0.00000  Uiso   1.00
C739   C     0.49714   0.83147   0.61614   0.00000  Uiso   1.00
C740   C     0.50286   0.83520   0.88386   0.00000  Uiso   1.00
C741   C     0.51059   0.87823   0.59432   0.00000  Uiso   1.00
C742   C     0.48941   0.78844   0.90568   0.00000  Uiso   1.00
C743   C     0.51170   0.87930   0.54798   0.00000  Uiso   1.00
C744   C     0.48830   0.78737   0.95202   0.00000  Uiso   1.00
C745   C     0.49914   0.83272   0.52348   0.00000  Uiso   1.00
C746   C     0.50086   0.83395   0.97652   0.00000  Uiso   1.00
C747   C     0.48500   0.78497   0.54591   0.00000  Uiso   1.00
C748   C     0.48477   0.73512   0.75152   0.00000  Uiso   1.00
C749   C     0.51500   0.88170   0.95409   0.00000  Uiso   1.00
C750   C     0.52563   0.92623   0.52594   0.00000  Uiso   1.00
C751   C     0.47437   0.74044   0.97406   0.00000  Uiso   1.00
C752   C     0.52731   0.92750   0.97937   0.00000  Uiso   1.00
C753   C     0.47269   0.73917   0.52063   0.00000  Uiso   1.00
C754   C     0.52325   0.98606   0.74768   0.00000  Uiso   1.00
C755   C     0.47675   0.68061   0.75232   0.00000  Uiso   1.00
C756   C     0.50095   0.83424   0.83634   0.00000  Uiso   1.00
C757   C     0.49905   0.83242   0.66366   0.00000  Uiso   1.00
C758   C     0.48398   0.78453   0.59295   0.00000  Uiso   1.00
H759   H     0.52060   0.91369   0.61364   0.00000  Uiso   1.00
H760   H     0.66218   0.87258   0.78404   0.00000  Uiso   1.00
H761   H     0.47940   0.75297   0.88636   0.00000  Uiso   1.00
H762   H     0.53539   0.96202   0.54477   0.00000  Uiso   1.00
H763   H     0.46461   0.70465   0.95523   0.00000  Uiso   1.00
H764   H     0.53838   0.96464   0.96379   0.00000  Uiso   1.00
H765   H     0.46162   0.70203   0.53621   0.00000  Uiso   1.00
H766   H     0.56718   0.66972   0.74345   0.00000  Uiso   1.00
H767   H     0.43282   0.99695   0.75655   0.00000  Uiso   1.00
H768   H     0.33782   0.79409   0.71596   0.00000  Uiso   1.00
I769   I     0.46415   0.71416   0.62985   0.00000  Uiso   1.00
I770   I     0.53585   0.95251   0.87015   0.00000  Uiso   1.00
N771   N     0.65011   0.81932   0.73783   0.00000  Uiso   1.00
N772   N     0.34989   0.84735   0.76217   0.00000  Uiso   1.00
O773   O     0.46308   0.91286   0.75299   0.00000  Uiso   1.00
O774   O     0.53692   0.75381   0.74701   0.00000  Uiso   1.00
O775   O     0.55946   0.90387   0.74519   0.00000  Uiso   1.00
O776   O     0.44054   0.76279   0.75481   0.00000  Uiso   1.00
O777   O     0.45181   0.83784   0.81997   0.00000  Uiso   1.00
O778   O     0.54819   0.82883   0.68003   0.00000  Uiso   1.00
O779   O     0.54819   0.82885   0.81217   0.00000  Uiso   1.00
O780   O     0.45181   0.83781   0.68783   0.00000  Uiso   1.00
Zn781  Zn    0.43565   0.83933   0.75521   0.00000  Uiso   1.00
Zn782  Zn    0.56435   0.82734   0.74479   0.00000  Uiso   1.00
C783   C     0.84856   0.93155   0.74848   0.00000  Uiso   1.00
C784   C     0.84936   0.88214   0.90705   0.00000  Uiso   1.00
C785   C     0.83048   0.83147   0.61614   0.00000  Uiso   1.00
C786   C     0.83619   0.83520   0.88386   0.00000  Uiso   1.00
C787   C     0.84392   0.87823   0.59432   0.00000  Uiso   1.00
C788   C     0.82275   0.78844   0.90568   0.00000  Uiso   1.00
C789   C     0.84503   0.87930   0.54798   0.00000  Uiso   1.00
C790   C     0.82164   0.78737   0.95202   0.00000  Uiso   1.00
C791   C     0.83247   0.83272   0.52348   0.00000  Uiso   1.00
C792   C     0.83420   0.83395   0.97652   0.00000  Uiso   1.00
C793   C     0.81834   0.78497   0.54591   0.00000  Uiso   1.00
C794   C     0.81811   0.73512   0.75152   0.00000  Uiso   1.00
C795   C     0.84833   0.88170   0.95409   0.00000  Uiso   1.00
C796   C     0.85896   0.92623   0.52594   0.00000  Uiso   1.00
C797   C     0.80770   0.74044   0.97406   0.00000  Uiso   1.00
C798   C     0.86064   0.92750   0.97937   0.00000  Uiso   1.00
C799   C     0.80603   0.73917   0.52063   0.00000  Uiso   1.00
C800   C     0.85658   0.98606   0.74768   0.00000  Uiso   1.00
C801   C     0.81008   0.68061   0.75232   0.00000  Uiso   1.00
C802   C     0.83428   0.83424   0.83634   0.00000  Uiso   1.00
C803   C     0.83238   0.83242   0.66366   0.00000  Uiso   1.00
C804   C     0.81731   0.78453   0.59295   0.00000  Uiso   1.00
H805   H     0.85394   0.91369   0.61364   0.00000  Uiso   1.00
H806   H     0.99552   0.87258   0.78404   0.00000  Uiso   1.00
H807   H     0.81273   0.75297   0.88636   0.00000  Uiso   1.00
H808   H     0.86873   0.96202   0.54477   0.00000  Uiso   1.00
H809   H     0.79794   0.70465   0.95523   0.00000  Uiso   1.00
H810   H     0.87171   0.96464   0.96379   0.00000  Uiso   1.00
H811   H     0.79496   0.70203   0.53621   0.00000  Uiso   1.00
H812   H     0.90051   0.66972   0.74345   0.00000  Uiso   1.00
H813   H     0.76616   0.99695   0.75655   0.00000  Uiso   1.00
H814   H     0.67115   0.79409   0.71596   0.00000  Uiso   1.00
I815   I     0.79748   0.71416   0.62985   0.00000  Uiso   1.00
I816   I     0.86918   0.95251   0.87015   0.00000  Uiso   1.00
N817   N     0.98344   0.81932   0.73783   0.00000  Uiso   1.00
N818   N     0.68322   0.84735   0.76217   0.00000  Uiso   1.00
O819   O     0.79642   0.91286   0.75299   0.00000  Uiso   1.00
O820   O     0.87025   0.75381   0.74701   0.00000  Uiso   1.00
O821   O     0.89280   0.90387   0.74519   0.00000  Uiso   1.00
O822   O     0.77387   0.76279   0.75481   0.00000  Uiso   1.00
O823   O     0.78514   0.83784   0.81997   0.00000  Uiso   1.00
O824   O     0.88153   0.82883   0.68003   0.00000  Uiso   1.00
O825   O     0.88152   0.82885   0.81217   0.00000  Uiso   1.00
O826   O     0.78515   0.83781   0.68783   0.00000  Uiso   1.00
Zn827  Zn    0.76898   0.83933   0.75521   0.00000  Uiso   1.00
Zn828  Zn    0.89769   0.82734   0.74479   0.00000  Uiso   1.00
loop_
_geom_bond_atom_site_label_1
_geom_bond_atom_site_label_2
_geom_bond_distance
_geom_bond_site_symmetry_2
_ccdc_geom_bond_type
C1     O37     1.278   .     A
C1     C18     1.401   .     S
C1     O39     1.287   .     A
C2     C4      1.401   .     A
C2     I34     2.146   .     S
C2     C13     1.400   .     A
C3     C21     1.418   .     S
C3     C22     1.401   .     A
C3     C5      1.387   .     A
C4     C20     1.418   .     S
C4     C6      1.387   .     A
C5     H23     1.086   .     S
C5     C7      1.379   .     A
C6     H25     1.086   .     S
C6     C8      1.379   .     A
C7     C9      1.410   .     A
C7     C14     1.396   .     A
C8     C10     1.410   .     A
C8     C15     1.396   .     A
C9     C11     1.420   .     A
C9     C424    1.397   1_554 S
C10    C13     1.420   .     A
C10    C423    1.397   .     S
C11    C22     1.400   .     A
C11    C17     1.405   .     A
C12    O40     1.287   .     A
C12    C19     1.401   .     S
C12    O38     1.278   .     A
C13    C16     1.405   .     A
C14    H26     1.084   .     S
C14    C430    1.386   1_554 S
C15    H27     1.084   .     S
C15    C431    1.386   .     S
C16    H28     1.080   .     S
C16    C428    1.386   .     S
C17    H29     1.080   .     S
C17    C429    1.386   1_554 S
C18    C157    1.335   .     S
C18    H168    1.088   .     S
C19    C294    1.335   1_545 S
C19    H307    1.088   1_545 S
C20    O41     1.286   .     A
C20    O43     1.286   .     A
C21    O44     1.286   .     A
C21    O42     1.286   .     A
C22    I33     2.146   .     S
H24    N82     1.029   .     S
H30    C294    1.088   1_545 S
H31    C157    1.088   .     S
H32    N127    1.029   1_455 S
N35    Zn46    2.020   .     S
N35    H78     1.029   .     S
N35    N82     1.273   .     S
N36    Zn45    2.020   .     S
N36    H116    1.029   1_455 S
N36    N127    1.273   1_455 S
O37    Zn45    1.955   .     S
O38    Zn46    1.955   .     S
O39    Zn46    1.975   .     S
O40    Zn45    1.975   .     S
O41    Zn45    1.993   .     S
O42    Zn46    1.993   .     S
O43    Zn46    2.016   .     S
O44    Zn45    2.016   .     S
C47    O83     1.278   .     A
C47    C64     1.401   .     S
C47    O85     1.287   .     A
C48    C50     1.401   .     A
C48    I80     2.146   .     S
C48    C59     1.400   .     A
C49    C67     1.418   .     S
C49    C68     1.401   .     A
C49    C51     1.387   .     A
C50    C66     1.418   .     S
C50    C52     1.387   .     A
C51    H69     1.086   .     S
C51    C53     1.379   .     A
C52    H71     1.086   .     S
C52    C54     1.379   .     A
C53    C55     1.410   .     A
C53    C60     1.396   .     A
C54    C56     1.410   .     A
C54    C61     1.396   .     A
C55    C57     1.420   .     A
C55    C470    1.397   1_554 S
C56    C59     1.420   .     A
C56    C469    1.397   .     S
C57    C68     1.400   .     A
C57    C63     1.405   .     A
C58    O86     1.287   .     A
C58    C65     1.401   .     S
C58    O84     1.278   .     A
C59    C62     1.405   .     A
C60    H72     1.084   .     S
C60    C476    1.386   1_554 S
C61    H73     1.084   .     S
C61    C477    1.386   .     S
C62    H74     1.080   .     S
C62    C474    1.386   .     S
C63    H75     1.080   .     S
C63    C475    1.386   1_554 S
C64    C203    1.335   .     S
C64    H214    1.088   .     S
C65    C340    1.335   1_545 S
C65    H353    1.088   1_545 S
C66    O87     1.286   .     A
C66    O89     1.286   .     A
C67    O90     1.286   .     A
C67    O88     1.286   .     A
C68    I79     2.146   .     S
H70    N128    1.029   .     S
H76    C340    1.088   1_545 S
H77    C203    1.088   .     S
N81    Zn92    2.020   .     S
N81    H124    1.029   .     S
N81    N128    1.273   .     S
N82    Zn91    2.020   .     S
O83    Zn91    1.955   .     S
O84    Zn92    1.955   .     S
O85    Zn92    1.975   .     S
O86    Zn91    1.975   .     S
O87    Zn91    1.993   .     S
O88    Zn92    1.993   .     S
O89    Zn92    2.016   .     S
O90    Zn91    2.016   .     S
C93    O129    1.278   .     A
C93    C110    1.401   .     S
C93    O131    1.287   .     A
C94    C96     1.401   .     A
C94    I126    2.146   .     S
C94    C105    1.400   .     A
C95    C113    1.418   .     S
C95    C114    1.401   .     A
C95    C97     1.387   .     A
C96    C112    1.418   .     S
C96    C98     1.387   .     A
C97    H115    1.086   .     S
C97    C99     1.379   .     A
C98    H117    1.086   .     S
C98    C100    1.379   .     A
C99    C101    1.410   .     A
C99    C106    1.396   .     A
C100   C102    1.410   .     A
C100   C107    1.396   .     A
C101   C103    1.420   .     A
C101   C516    1.397   1_554 S
C102   C105    1.420   .     A
C102   C515    1.397   .     S
C103   C114    1.400   .     A
C103   C109    1.405   .     A
C104   O132    1.287   .     A
C104   C111    1.401   .     S
C104   O130    1.278   .     A
C105   C108    1.405   .     A
C106   H118    1.084   .     S
C106   C522    1.386   1_554 S
C107   H119    1.084   .     S
C107   C523    1.386   .     S
C108   H120    1.080   .     S
C108   C520    1.386   .     S
C109   H121    1.080   .     S
C109   C521    1.386   1_554 S
C110   C249    1.335   .     S
C110   H260    1.088   .     S
C111   C386    1.335   1_545 S
C111   H399    1.088   1_545 S
C112   O133    1.286   .     A
C112   O135    1.286   .     A
C113   O136    1.286   .     A
C113   O134    1.286   .     A
C114   I125    2.146   .     S
H116   N36     1.029   1_655 S
H122   C386    1.088   1_545 S
H123   C249    1.088   .     S
N127   Zn138   2.020   .     S
N127   H32     1.029   1_655 S
N127   N36     1.273   1_655 S
N128   Zn137   2.020   .     S
O129   Zn137   1.955   .     S
O130   Zn138   1.955   .     S
O131   Zn138   1.975   .     S
O132   Zn137   1.975   .     S
O133   Zn137   1.993   .     S
O134   Zn138   1.993   .     S
O135   Zn138   2.016   .     S
O136   Zn137   2.016   .     S
C139   O175    1.278   .     A
C139   C156    1.401   .     S
C139   O177    1.287   .     A
C140   C142    1.401   .     A
C140   I172    2.146   .     S
C140   C151    1.400   .     A
C141   C159    1.418   .     S
C141   C160    1.401   .     A
C141   C143    1.387   .     A
C142   C158    1.418   .     S
C142   C144    1.387   .     A
C143   H161    1.086   .     S
C143   C145    1.379   .     A
C144   H163    1.086   .     S
C144   C146    1.379   .     A
C145   C147    1.410   .     A
C145   C152    1.396   .     A
C146   C148    1.410   .     A
C146   C153    1.396   .     A
C147   C149    1.420   .     A
C147   C562    1.397   1_554 S
C148   C151    1.420   .     A
C148   C561    1.397   .     S
C149   C160    1.400   .     A
C149   C155    1.405   .     A
C150   O178    1.287   .     A
C150   C157    1.401   .     S
C150   O176    1.278   .     A
C151   C154    1.405   .     A
C152   H164    1.084   .     S
C152   C568    1.386   1_554 S
C153   H165    1.084   .     S
C153   C569    1.386   .     S
C154   H166    1.080   .     S
C154   C566    1.386   .     S
C155   H167    1.080   .     S
C155   C567    1.386   1_554 S
C156   C295    1.335   .     S
C156   H306    1.088   .     S
C158   O179    1.286   .     A
C158   O181    1.286   .     A
C159   O182    1.286   .     A
C159   O180    1.286   .     A
C160   I171    2.146   .     S
H162   N220    1.029   .     S
H169   C295    1.088   .     S
H170   N265    1.029   1_455 S
N173   Zn184   2.020   .     S
N173   H216    1.029   .     S
N173   N220    1.273   .     S
N174   Zn183   2.020   .     S
N174   H254    1.029   1_455 S
N174   N265    1.273   1_455 S
O175   Zn183   1.955   .     S
O176   Zn184   1.955   .     S
O177   Zn184   1.975   .     S
O178   Zn183   1.975   .     S
O179   Zn183   1.993   .     S
O180   Zn184   1.993   .     S
O181   Zn184   2.016   .     S
O182   Zn183   2.016   .     S
C185   O221    1.278   .     A
C185   C202    1.401   .     S
C185   O223    1.287   .     A
C186   C188    1.401   .     A
C186   I218    2.146   .     S
C186   C197    1.400   .     A
C187   C205    1.418   .     S
C187   C206    1.401   .     A
C187   C189    1.387   .     A
C188   C204    1.418   .     S
C188   C190    1.387   .     A
C189   H207    1.086   .     S
C189   C191    1.379   .     A
C190   H209    1.086   .     S
C190   C192    1.379   .     A
C191   C193    1.410   .     A
C191   C198    1.396   .     A
C192   C194    1.410   .     A
C192   C199    1.396   .     A
C193   C195    1.420   .     A
C193   C608    1.397   1_554 S
C194   C197    1.420   .     A
C194   C607    1.397   .     S
C195   C206    1.400   .     A
C195   C201    1.405   .     A
C196   O224    1.287   .     A
C196   C203    1.401   .     S
C196   O222    1.278   .     A
C197   C200    1.405   .     A
C198   H210    1.084   .     S
C198   C614    1.386   1_554 S
C199   H211    1.084   .     S
C199   C615    1.386   .     S
C200   H212    1.080   .     S
C200   C612    1.386   .     S
C201   H213    1.080   .     S
C201   C613    1.386   1_554 S
C202   C341    1.335   .     S
C202   H352    1.088   .     S
C204   O225    1.286   .     A
C204   O227    1.286   .     A
C205   O228    1.286   .     A
C205   O226    1.286   .     A
C206   I217    2.146   .     S
H208   N266    1.029   .     S
H215   C341    1.088   .     S
N219   Zn230   2.020   .     S
N219   H262    1.029   .     S
N219   N266    1.273   .     S
N220   Zn229   2.020   .     S
O221   Zn229   1.955   .     S
O222   Zn230   1.955   .     S
O223   Zn230   1.975   .     S
O224   Zn229   1.975   .     S
O225   Zn229   1.993   .     S
O226   Zn230   1.993   .     S
O227   Zn230   2.016   .     S
O228   Zn229   2.016   .     S
C231   O267    1.278   .     A
C231   C248    1.401   .     S
C231   O269    1.287   .     A
C232   C234    1.401   .     A
C232   I264    2.146   .     S
C232   C243    1.400   .     A
C233   C251    1.418   .     S
C233   C252    1.401   .     A
C233   C235    1.387   .     A
C234   C250    1.418   .     S
C234   C236    1.387   .     A
C235   H253    1.086   .     S
C235   C237    1.379   .     A
C236   H255    1.086   .     S
C236   C238    1.379   .     A
C237   C239    1.410   .     A
C237   C244    1.396   .     A
C238   C240    1.410   .     A
C238   C245    1.396   .     A
C239   C241    1.420   .     A
C239   C654    1.397   1_554 S
C240   C243    1.420   .     A
C240   C653    1.397   .     S
C241   C252    1.400   .     A
C241   C247    1.405   .     A
C242   O270    1.287   .     A
C242   C249    1.401   .     S
C242   O268    1.278   .     A
C243   C246    1.405   .     A
C244   H256    1.084   .     S
C244   C660    1.386   1_554 S
C245   H257    1.084   .     S
C245   C661    1.386   .     S
C246   H258    1.080   .     S
C246   C658    1.386   .     S
C247   H259    1.080   .     S
C247   C659    1.386   1_554 S
C248   C387    1.335   .     S
C248   H398    1.088   .     S
C250   O271    1.286   .     A
C250   O273    1.286   .     A
C251   O274    1.286   .     A
C251   O272    1.286   .     A
C252   I263    2.146   .     S
H254   N174    1.029   1_655 S
H261   C387    1.088   .     S
N265   Zn276   2.020   .     S
N265   H170    1.029   1_655 S
N265   N174    1.273   1_655 S
N266   Zn275   2.020   .     S
O267   Zn275   1.955   .     S
O268   Zn276   1.955   .     S
O269   Zn276   1.975   .     S
O270   Zn275   1.975   .     S
O271   Zn275   1.993   .     S
O272   Zn276   1.993   .     S
O273   Zn276   2.016   .     S
O274   Zn275   2.016   .     S
C277   O313    1.278   .     A
C277   C294    1.401   .     S
C277   O315    1.287   .     A
C278   C280    1.401   .     A
C278   I310    2.146   .     S
C278   C289    1.400   .     A
C279   C297    1.418   .     S
C279   C298    1.401   .     A
C279   C281    1.387   .     A
C280   C296    1.418   .     S
C280   C282    1.387   .     A
C281   H299    1.086   .     S
C281   C283    1.379   .     A
C282   H301    1.086   .     S
C282   C284    1.379   .     A
C283   C285    1.410   .     A
C283   C290    1.396   .     A
C284   C286    1.410   .     A
C284   C291    1.396   .     A
C285   C287    1.420   .     A
C285   C700    1.397   1_554 S
C286   C289    1.420   .     A
C286   C699    1.397   .     S
C287   C298    1.400   .     A
C287   C293    1.405   .     A
C288   O316    1.287   .     A
C288   C295    1.401   .     S
C288   O314    1.278   .     A
C289   C292    1.405   .     A
C290   H302    1.084   .     S
C290   C706    1.386   1_554 S
C291   H303    1.084   .     S
C291   C707    1.386   .     S
C292   H304    1.080   .     S
C292   C704    1.386   .     S
C293   H305    1.080   .     S
C293   C705    1.386   1_554 S
C294   C19     1.335   1_565 S
C294   H30     1.088   1_565 S
C296   O317    1.286   .     A
C296   O319    1.286   .     A
C297   O320    1.286   .     A
C297   O318    1.286   .     A
C298   I309    2.146   .     S
H300   N358    1.029   .     S
H307   C19     1.088   1_565 S
H308   N403    1.029   1_455 S
N311   Zn322   2.020   .     S
N311   H354    1.029   .     S
N311   N358    1.273   .     S
N312   Zn321   2.020   .     S
N312   H392    1.029   1_455 S
N312   N403    1.273   1_455 S
O313   Zn321   1.955   .     S
O314   Zn322   1.955   .     S
O315   Zn322   1.975   .     S
O316   Zn321   1.975   .     S
O317   Zn321   1.993   .     S
O318   Zn322   1.993   .     S
O319   Zn322   2.016   .     S
O320   Zn321   2.016   .     S
C323   O359    1.278   .     A
C323   C340    1.401   .     S
C323   O361    1.287   .     A
C324   C326    1.401   .     A
C324   I356    2.146   .     S
C324   C335    1.400   .     A
C325   C343    1.418   .     S
C325   C344    1.401   .     A
C325   C327    1.387   .     A
C326   C342    1.418   .     S
C326   C328    1.387   .     A
C327   H345    1.086   .     S
C327   C329    1.379   .     A
C328   H347    1.086   .     S
C328   C330    1.379   .     A
C329   C331    1.410   .     A
C329   C336    1.396   .     A
C330   C332    1.410   .     A
C330   C337    1.396   .     A
C331   C333    1.420   .     A
C331   C746    1.397   1_554 S
C332   C335    1.420   .     A
C332   C745    1.397   .     S
C333   C344    1.400   .     A
C333   C339    1.405   .     A
C334   O362    1.287   .     A
C334   C341    1.401   .     S
C334   O360    1.278   .     A
C335   C338    1.405   .     A
C336   H348    1.084   .     S
C336   C752    1.386   1_554 S
C337   H349    1.084   .     S
C337   C753    1.386   .     S
C338   H350    1.080   .     S
C338   C750    1.386   .     S
C339   H351    1.080   .     S
C339   C751    1.386   1_554 S
C340   C65     1.335   1_565 S
C340   H76     1.088   1_565 S
C342   O363    1.286   .     A
C342   O365    1.286   .     A
C343   O366    1.286   .     A
C343   O364    1.286   .     A
C344   I355    2.146   .     S
H346   N404    1.029   .     S
H353   C65     1.088   1_565 S
N357   Zn368   2.020   .     S
N357   H400    1.029   .     S
N357   N404    1.273   .     S
N358   Zn367   2.020   .     S
O359   Zn367   1.955   .     S
O360   Zn368   1.955   .     S
O361   Zn368   1.975   .     S
O362   Zn367   1.975   .     S
O363   Zn367   1.993   .     S
O364   Zn368   1.993   .     S
O365   Zn368   2.016   .     S
O366   Zn367   2.016   .     S
C369   O405    1.278   .     A
C369   C386    1.401   .     S
C369   O407    1.287   .     A
C370   C372    1.401   .     A
C370   I402    2.146   .     S
C370   C381    1.400   .     A
C371   C389    1.418   .     S
C371   C390    1.401   .     A
C371   C373    1.387   .     A
C372   C388    1.418   .     S
C372   C374    1.387   .     A
C373   H391    1.086   .     S
C373   C375    1.379   .     A
C374   H393    1.086   .     S
C374   C376    1.379   .     A
C375   C377    1.410   .     A
C375   C382    1.396   .     A
C376   C378    1.410   .     A
C376   C383    1.396   .     A
C377   C379    1.420   .     A
C377   C792    1.397   1_554 S
C378   C381    1.420   .     A
C378   C791    1.397   .     S
C379   C390    1.400   .     A
C379   C385    1.405   .     A
C380   O408    1.287   .     A
C380   C387    1.401   .     S
C380   O406    1.278   .     A
C381   C384    1.405   .     A
C382   H394    1.084   .     S
C382   C798    1.386   1_554 S
C383   H395    1.084   .     S
C383   C799    1.386   .     S
C384   H396    1.080   .     S
C384   C796    1.386   .     S
C385   H397    1.080   .     S
C385   C797    1.386   1_554 S
C386   C111    1.335   1_565 S
C386   H122    1.088   1_565 S
C388   O409    1.286   .     A
C388   O411    1.286   .     A
C389   O412    1.286   .     A
C389   O410    1.286   .     A
C390   I401    2.146   .     S
H392   N312    1.029   1_655 S
H399   C111    1.088   1_565 S
N403   Zn414   2.020   .     S
N403   H308    1.029   1_655 S
N403   N312    1.273   1_655 S
N404   Zn413   2.020   .     S
O405   Zn413   1.955   .     S
O406   Zn414   1.955   .     S
O407   Zn414   1.975   .     S
O408   Zn413   1.975   .     S
O409   Zn413   1.993   .     S
O410   Zn414   1.993   .     S
O411   Zn414   2.016   .     S
O412   Zn413   2.016   .     S
C415   O451    1.278   .     A
C415   C432    1.401   .     S
C415   O453    1.287   .     A
C416   C418    1.401   .     A
C416   I448    2.146   .     S
C416   C427    1.400   .     A
C417   C435    1.418   .     S
C417   C436    1.401   .     A
C417   C419    1.387   .     A
C418   C434    1.418   .     S
C418   C420    1.387   .     A
C419   H437    1.086   .     S
C419   C421    1.379   .     A
C420   H439    1.086   .     S
C420   C422    1.379   .     A
C421   C423    1.410   .     A
C421   C428    1.396   .     A
C422   C424    1.410   .     A
C422   C429    1.396   .     A
C423   C425    1.420   .     A
C424   C427    1.420   .     A
C424   C9      1.397   1_556 S
C425   C436    1.400   .     A
C425   C431    1.405   .     A
C426   O454    1.287   .     A
C426   C433    1.401   .     S
C426   O452    1.278   .     A
C427   C430    1.405   .     A
C428   H440    1.084   .     S
C429   H441    1.084   .     S
C429   C17     1.386   1_556 S
C430   H442    1.080   .     S
C430   C14     1.386   1_556 S
C431   H443    1.080   .     S
C432   C571    1.335   .     S
C432   H582    1.088   .     S
C433   C708    1.335   1_545 S
C433   H721    1.088   1_545 S
C434   O455    1.286   .     A
C434   O457    1.286   .     A
C435   O458    1.286   .     A
C435   O456    1.286   .     A
C436   I447    2.146   .     S
H438   N496    1.029   .     S
H444   C708    1.088   1_545 S
H445   C571    1.088   .     S
H446   N541    1.029   1_455 S
N449   Zn460   2.020   .     S
N449   H492    1.029   .     S
N449   N496    1.273   .     S
N450   Zn459   2.020   .     S
N450   H530    1.029   1_455 S
N450   N541    1.273   1_455 S
O451   Zn459   1.955   .     S
O452   Zn460   1.955   .     S
O453   Zn460   1.975   .     S
O454   Zn459   1.975   .     S
O455   Zn459   1.993   .     S
O456   Zn460   1.993   .     S
O457   Zn460   2.016   .     S
O458   Zn459   2.016   .     S
C461   O497    1.278   .     A
C461   C478    1.401   .     S
C461   O499    1.287   .     A
C462   C464    1.401   .     A
C462   I494    2.146   .     S
C462   C473    1.400   .     A
C463   C481    1.418   .     S
C463   C482    1.401   .     A
C463   C465    1.387   .     A
C464   C480    1.418   .     S
C464   C466    1.387   .     A
C465   H483    1.086   .     S
C465   C467    1.379   .     A
C466   H485    1.086   .     S
C466   C468    1.379   .     A
C467   C469    1.410   .     A
C467   C474    1.396   .     A
C468   C470    1.410   .     A
C468   C475    1.396   .     A
C469   C471    1.420   .     A
C470   C473    1.420   .     A
C470   C55     1.397   1_556 S
C471   C482    1.400   .     A
C471   C477    1.405   .     A
C472   O500    1.287   .     A
C472   C479    1.401   .     S
C472   O498    1.278   .     A
C473   C476    1.405   .     A
C474   H486    1.084   .     S
C475   H487    1.084   .     S
C475   C63     1.386   1_556 S
C476   H488    1.080   .     S
C476   C60     1.386   1_556 S
C477   H489    1.080   .     S
C478   C617    1.335   .     S
C478   H628    1.088   .     S
C479   C754    1.335   1_545 S
C479   H767    1.088   1_545 S
C480   O501    1.286   .     A
C480   O503    1.286   .     A
C481   O504    1.286   .     A
C481   O502    1.286   .     A
C482   I493    2.146   .     S
H484   N542    1.029   .     S
H490   C754    1.088   1_545 S
H491   C617    1.088   .     S
N495   Zn506   2.020   .     S
N495   H538    1.029   .     S
N495   N542    1.273   .     S
N496   Zn505   2.020   .     S
O497   Zn505   1.955   .     S
O498   Zn506   1.955   .     S
O499   Zn506   1.975   .     S
O500   Zn505   1.975   .     S
O501   Zn505   1.993   .     S
O502   Zn506   1.993   .     S
O503   Zn506   2.016   .     S
O504   Zn505   2.016   .     S
C507   O543    1.278   .     A
C507   C524    1.401   .     S
C507   O545    1.287   .     A
C508   C510    1.401   .     A
C508   I540    2.146   .     S
C508   C519    1.400   .     A
C509   C527    1.418   .     S
C509   C528    1.401   .     A
C509   C511    1.387   .     A
C510   C526    1.418   .     S
C510   C512    1.387   .     A
C511   H529    1.086   .     S
C511   C513    1.379   .     A
C512   H531    1.086   .     S
C512   C514    1.379   .     A
C513   C515    1.410   .     A
C513   C520    1.396   .     A
C514   C516    1.410   .     A
C514   C521    1.396   .     A
C515   C517    1.420   .     A
C516   C519    1.420   .     A
C516   C101    1.397   1_556 S
C517   C528    1.400   .     A
C517   C523    1.405   .     A
C518   O546    1.287   .     A
C518   C525    1.401   .     S
C518   O544    1.278   .     A
C519   C522    1.405   .     A
C520   H532    1.084   .     S
C521   H533    1.084   .     S
C521   C109    1.386   1_556 S
C522   H534    1.080   .     S
C522   C106    1.386   1_556 S
C523   H535    1.080   .     S
C524   C663    1.335   .     S
C524   H674    1.088   .     S
C525   C800    1.335   1_545 S
C525   H813    1.088   1_545 S
C526   O547    1.286   .     A
C526   O549    1.286   .     A
C527   O550    1.286   .     A
C527   O548    1.286   .     A
C528   I539    2.146   .     S
H530   N450    1.029   1_655 S
H536   C800    1.088   1_545 S
H537   C663    1.088   .     S
N541   Zn552   2.020   .     S
N541   H446    1.029   1_655 S
N541   N450    1.273   1_655 S
N542   Zn551   2.020   .     S
O543   Zn551   1.955   .     S
O544   Zn552   1.955   .     S
O545   Zn552   1.975   .     S
O546   Zn551   1.975   .     S
O547   Zn551   1.993   .     S
O548   Zn552   1.993   .     S
O549   Zn552   2.016   .     S
O550   Zn551   2.016   .     S
C553   O589    1.278   .     A
C553   C570    1.401   .     S
C553   O591    1.287   .     A
C554   C556    1.401   .     A
C554   I586    2.146   .     S
C554   C565    1.400   .     A
C555   C573    1.418   .     S
C555   C574    1.401   .     A
C555   C557    1.387   .     A
C556   C572    1.418   .     S
C556   C558    1.387   .     A
C557   H575    1.086   .     S
C557   C559    1.379   .     A
C558   H577    1.086   .     S
C558   C560    1.379   .     A
C559   C561    1.410   .     A
C559   C566    1.396   .     A
C560   C562    1.410   .     A
C560   C567    1.396   .     A
C561   C563    1.420   .     A
C562   C565    1.420   .     A
C562   C147    1.397   1_556 S
C563   C574    1.400   .     A
C563   C569    1.405   .     A
C564   O592    1.287   .     A
C564   C571    1.401   .     S
C564   O590    1.278   .     A
C565   C568    1.405   .     A
C566   H578    1.084   .     S
C567   H579    1.084   .     S
C567   C155    1.386   1_556 S
C568   H580    1.080   .     S
C568   C152    1.386   1_556 S
C569   H581    1.080   .     S
C570   C709    1.335   .     S
C570   H720    1.088   .     S
C572   O593    1.286   .     A
C572   O595    1.286   .     A
C573   O596    1.286   .     A
C573   O594    1.286   .     A
C574   I585    2.146   .     S
H576   N634    1.029   .     S
H583   C709    1.088   .     S
H584   N679    1.029   1_455 S
N587   Zn598   2.020   .     S
N587   H630    1.029   .     S
N587   N634    1.273   .     S
N588   Zn597   2.020   .     S
N588   H668    1.029   1_455 S
N588   N679    1.273   1_455 S
O589   Zn597   1.955   .     S
O590   Zn598   1.955   .     S
O591   Zn598   1.975   .     S
O592   Zn597   1.975   .     S
O593   Zn597   1.993   .     S
O594   Zn598   1.993   .     S
O595   Zn598   2.016   .     S
O596   Zn597   2.016   .     S
C599   O635    1.278   .     A
C599   C616    1.401   .     S
C599   O637    1.287   .     A
C600   C602    1.401   .     A
C600   I632    2.146   .     S
C600   C611    1.400   .     A
C601   C619    1.418   .     S
C601   C620    1.401   .     A
C601   C603    1.387   .     A
C602   C618    1.418   .     S
C602   C604    1.387   .     A
C603   H621    1.086   .     S
C603   C605    1.379   .     A
C604   H623    1.086   .     S
C604   C606    1.379   .     A
C605   C607    1.410   .     A
C605   C612    1.396   .     A
C606   C608    1.410   .     A
C606   C613    1.396   .     A
C607   C609    1.420   .     A
C608   C611    1.420   .     A
C608   C193    1.397   1_556 S
C609   C620    1.400   .     A
C609   C615    1.405   .     A
C610   O638    1.287   .     A
C610   C617    1.401   .     S
C610   O636    1.278   .     A
C611   C614    1.405   .     A
C612   H624    1.084   .     S
C613   H625    1.084   .     S
C613   C201    1.386   1_556 S
C614   H626    1.080   .     S
C614   C198    1.386   1_556 S
C615   H627    1.080   .     S
C616   C755    1.335   .     S
C616   H766    1.088   .     S
C618   O639    1.286   .     A
C618   O641    1.286   .     A
C619   O642    1.286   .     A
C619   O640    1.286   .     A
C620   I631    2.146   .     S
H622   N680    1.029   .     S
H629   C755    1.088   .     S
N633   Zn644   2.020   .     S
N633   H676    1.029   .     S
N633   N680    1.273   .     S
N634   Zn643   2.020   .     S
O635   Zn643   1.955   .     S
O636   Zn644   1.955   .     S
O637   Zn644   1.975   .     S
O638   Zn643   1.975   .     S
O639   Zn643   1.993   .     S
O640   Zn644   1.993   .     S
O641   Zn644   2.016   .     S
O642   Zn643   2.016   .     S
C645   O681    1.278   .     A
C645   C662    1.401   .     S
C645   O683    1.287   .     A
C646   C648    1.401   .     A
C646   I678    2.146   .     S
C646   C657    1.400   .     A
C647   C665    1.418   .     S
C647   C666    1.401   .     A
C647   C649    1.387   .     A
C648   C664    1.418   .     S
C648   C650    1.387   .     A
C649   H667    1.086   .     S
C649   C651    1.379   .     A
C650   H669    1.086   .     S
C650   C652    1.379   .     A
C651   C653    1.410   .     A
C651   C658    1.396   .     A
C652   C654    1.410   .     A
C652   C659    1.396   .     A
C653   C655    1.420   .     A
C654   C657    1.420   .     A
C654   C239    1.397   1_556 S
C655   C666    1.400   .     A
C655   C661    1.405   .     A
C656   O684    1.287   .     A
C656   C663    1.401   .     S
C656   O682    1.278   .     A
C657   C660    1.405   .     A
C658   H670    1.084   .     S
C659   H671    1.084   .     S
C659   C247    1.386   1_556 S
C660   H672    1.080   .     S
C660   C244    1.386   1_556 S
C661   H673    1.080   .     S
C662   C801    1.335   .     S
C662   H812    1.088   .     S
C664   O685    1.286   .     A
C664   O687    1.286   .     A
C665   O688    1.286   .     A
C665   O686    1.286   .     A
C666   I677    2.146   .     S
H668   N588    1.029   1_655 S
H675   C801    1.088   .     S
N679   Zn690   2.020   .     S
N679   H584    1.029   1_655 S
N679   N588    1.273   1_655 S
N680   Zn689   2.020   .     S
O681   Zn689   1.955   .     S
O682   Zn690   1.955   .     S
O683   Zn690   1.975   .     S
O684   Zn689   1.975   .     S
O685   Zn689   1.993   .     S
O686   Zn690   1.993   .     S
O687   Zn690   2.016   .     S
O688   Zn689   2.016   .     S
C691   O727    1.278   .     A
C691   C708    1.401   .     S
C691   O729    1.287   .     A
C692   C694    1.401   .     A
C692   I724    2.146   .     S
C692   C703    1.400   .     A
C693   C711    1.418   .     S
C693   C712    1.401   .     A
C693   C695    1.387   .     A
C694   C710    1.418   .     S
C694   C696    1.387   .     A
C695   H713    1.086   .     S
C695   C697    1.379   .     A
C696   H715    1.086   .     S
C696   C698    1.379   .     A
C697   C699    1.410   .     A
C697   C704    1.396   .     A
C698   C700    1.410   .     A
C698   C705    1.396   .     A
C699   C701    1.420   .     A
C700   C703    1.420   .     A
C700   C285    1.397   1_556 S
C701   C712    1.400   .     A
C701   C707    1.405   .     A
C702   O730    1.287   .     A
C702   C709    1.401   .     S
C702   O728    1.278   .     A
C703   C706    1.405   .     A
C704   H716    1.084   .     S
C705   H717    1.084   .     S
C705   C293    1.386   1_556 S
C706   H718    1.080   .     S
C706   C290    1.386   1_556 S
C707   H719    1.080   .     S
C708   C433    1.335   1_565 S
C708   H444    1.088   1_565 S
C710   O731    1.286   .     A
C710   O733    1.286   .     A
C711   O734    1.286   .     A
C711   O732    1.286   .     A
C712   I723    2.146   .     S
H714   N772    1.029   .     S
H721   C433    1.088   1_565 S
H722   N817    1.029   1_455 S
N725   Zn736   2.020   .     S
N725   H768    1.029   .     S
N725   N772    1.273   .     S
N726   Zn735   2.020   .     S
N726   H806    1.029   1_455 S
N726   N817    1.273   1_455 S
O727   Zn735   1.955   .     S
O728   Zn736   1.955   .     S
O729   Zn736   1.975   .     S
O730   Zn735   1.975   .     S
O731   Zn735   1.993   .     S
O732   Zn736   1.993   .     S
O733   Zn736   2.016   .     S
O734   Zn735   2.016   .     S
C737   O773    1.278   .     A
C737   C754    1.401   .     S
C737   O775    1.287   .     A
C738   C740    1.401   .     A
C738   I770    2.146   .     S
C738   C749    1.400   .     A
C739   C757    1.418   .     S
C739   C758    1.401   .     A
C739   C741    1.387   .     A
C740   C756    1.418   .     S
C740   C742    1.387   .     A
C741   H759    1.086   .     S
C741   C743    1.379   .     A
C742   H761    1.086   .     S
C742   C744    1.379   .     A
C743   C745    1.410   .     A
C743   C750    1.396   .     A
C744   C746    1.410   .     A
C744   C751    1.396   .     A
C745   C747    1.420   .     A
C746   C749    1.420   .     A
C746   C331    1.397   1_556 S
C747   C758    1.400   .     A
C747   C753    1.405   .     A
C748   O776    1.287   .     A
C748   C755    1.401   .     S
C748   O774    1.278   .     A
C749   C752    1.405   .     A
C750   H762    1.084   .     S
C751   H763    1.084   .     S
C751   C339    1.386   1_556 S
C752   H764    1.080   .     S
C752   C336    1.386   1_556 S
C753   H765    1.080   .     S
C754   C479    1.335   1_565 S
C754   H490    1.088   1_565 S
C756   O777    1.286   .     A
C756   O779    1.286   .     A
C757   O780    1.286   .     A
C757   O778    1.286   .     A
C758   I769    2.146   .     S
H760   N818    1.029   .     S
H767   C479    1.088   1_565 S
N771   Zn782   2.020   .     S
N771   H814    1.029   .     S
N771   N818    1.273   .     S
N772   Zn781   2.020   .     S
O773   Zn781   1.955   .     S
O774   Zn782   1.955   .     S
O775   Zn782   1.975   .     S
O776   Zn781   1.975   .     S
O777   Zn781   1.993   .     S
O778   Zn782   1.993   .     S
O779   Zn782   2.016   .     S
O780   Zn781   2.016   .     S
C783   O819    1.278   .     A
C783   C800    1.401   .     S
C783   O821    1.287   .     A
C784   C786    1.401   .     A
C784   I816    2.146   .     S
C784   C795    1.400   .     A
C785   C803    1.418   .     S
C785   C804    1.401   .     A
C785   C787    1.387   .     A
C786   C802    1.418   .     S
C786   C788    1.387   .     A
C787   H805    1.086   .     S
C787   C789    1.379   .     A
C788   H807    1.086   .     S
C788   C790    1.379   .     A
C789   C791    1.410   .     A
C789   C796    1.396   .     A
C790   C792    1.410   .     A
C790   C797    1.396   .     A
C791   C793    1.420   .     A
C792   C795    1.420   .     A
C792   C377    1.397   1_556 S
C793   C804    1.400   .     A
C793   C799    1.405   .     A
C794   O822    1.287   .     A
C794   C801    1.401   .     S
C794   O820    1.278   .     A
C795   C798    1.405   .     A
C796   H808    1.084   .     S
C797   H809    1.084   .     S
C797   C385    1.386   1_556 S
C798   H810    1.080   .     S
C798   C382    1.386   1_556 S
C799   H811    1.080   .     S
C800   C525    1.335   1_565 S
C800   H536    1.088   1_565 S
C802   O823    1.286   .     A
C802   O825    1.286   .     A
C803   O826    1.286   .     A
C803   O824    1.286   .     A
C804   I815    2.146   .     S
H806   N726    1.029   1_655 S
H813   C525    1.088   1_565 S
N817   Zn828   2.020   .     S
N817   H722    1.029   1_655 S
N817   N726    1.273   1_655 S
N818   Zn827   2.020   .     S
O819   Zn827   1.955   .     S
O820   Zn828   1.955   .     S
O821   Zn828   1.975   .     S
O822   Zn827   1.975   .     S
O823   Zn827   1.993   .     S
O824   Zn828   1.993   .     S
O825   Zn828   2.016   .     S
O826   Zn827   2.016   .     S
