data_str_m3_o10_o17_pcu_sym.102
_audit_creation_date              2020-01-03
_audit_creation_method            'Materials Studio'
_symmetry_space_group_name_H-M    'P1'
_symmetry_Int_Tables_number       1
_symmetry_cell_setting            triclinic
loop_
_symmetry_equiv_pos_as_xyz
  x,y,z
_cell_length_a                    23.4371
_cell_length_b                    25.8057
_cell_length_c                    29.7081
_cell_angle_alpha                 91.9505
_cell_angle_beta                  85.4900
_cell_angle_gamma                 92.8839
loop_
_atom_site_label
_atom_site_type_symbol
_atom_site_fract_x
_atom_site_fract_y
_atom_site_fract_z
_atom_site_U_iso_or_equiv
_atom_site_adp_type
_atom_site_occupancy
C1     C     0.18143   0.26461   0.24873   0.00000  Uiso   1.00
C2     C     0.18736   0.21133   0.40654   0.00000  Uiso   1.00
C3     C     0.16502   0.16670   0.11620   0.00000  Uiso   1.00
C4     C     0.16832   0.16663   0.38380   0.00000  Uiso   1.00
C5     C     0.18433   0.21144   0.09399   0.00000  Uiso   1.00
C6     C     0.14901   0.12189   0.40601   0.00000  Uiso   1.00
C7     C     0.18509   0.21232   0.04724   0.00000  Uiso   1.00
C8     C     0.14826   0.12101   0.45276   0.00000  Uiso   1.00
C9     C     0.16631   0.16681   0.02346   0.00000  Uiso   1.00
C10    C     0.16704   0.16652   0.47654   0.00000  Uiso   1.00
C11    C     0.14681   0.12154   0.04672   0.00000  Uiso   1.00
C12    C     0.15191   0.06872   0.25127   0.00000  Uiso   1.00
C13    C     0.18654   0.21179   0.45328   0.00000  Uiso   1.00
C14    C     0.20410   0.25745   0.02394   0.00000  Uiso   1.00
C15    C     0.12925   0.07588   0.47606   0.00000  Uiso   1.00
C16    C     0.20458   0.25670   0.47692   0.00000  Uiso   1.00
C17    C     0.12877   0.07663   0.02308   0.00000  Uiso   1.00
C18    C     0.18773   0.31808   0.24144   0.00000  Uiso   1.00
C19    C     0.14560   0.01525   0.25856   0.00000  Uiso   1.00
C20    C     0.16720   0.16678   0.33630   0.00000  Uiso   1.00
C21    C     0.16613   0.16655   0.16370   0.00000  Uiso   1.00
C22    C     0.14598   0.12200   0.09346   0.00000  Uiso   1.00
F23    F     0.12778   0.07909   0.11695   0.00000  Uiso   1.00
F24    F     0.20556   0.25424   0.38305   0.00000  Uiso   1.00
H25    H     0.19848   0.24525   0.11357   0.00000  Uiso   1.00
H26    H     0.23342   0.31599   0.18039   0.00000  Uiso   1.00
H27    H     0.06008   0.00503   0.27496   0.00000  Uiso   1.00
H28    H     0.09989   0.01735   0.31961   0.00000  Uiso   1.00
H29    H     0.33175   0.12901   0.17477   0.00000  Uiso   1.00
H30    H     0.32797   0.08224   0.21293   0.00000  Uiso   1.00
H31    H     0.00169   0.20443   0.32523   0.00000  Uiso   1.00
H32    H     0.00526   0.25112   0.28698   0.00000  Uiso   1.00
H33    H     0.13485   0.08808   0.38643   0.00000  Uiso   1.00
H34    H     0.21925   0.29127   0.45885   0.00000  Uiso   1.00
H35    H     0.11411   0.04206   0.04115   0.00000  Uiso   1.00
H36    H     0.26241   0.29707   0.05983   0.00000  Uiso   1.00
H37    H     0.22938   0.00156   0.02627   0.00000  Uiso   1.00
H38    H     0.07092   0.03623   0.44022   0.00000  Uiso   1.00
H39    H     0.10407   0.33175   0.47372   0.00000  Uiso   1.00
H40    H     0.27325   0.32829   0.22502   0.00000  Uiso   1.00
N41    N     0.31678   0.15265   0.23783   0.00000  Uiso   1.00
N42    N     0.01656   0.18068   0.26217   0.00000  Uiso   1.00
N43    N     0.22264   0.30380   0.04804   0.00000  Uiso   1.00
N44    N     0.11072   0.02953   0.45195   0.00000  Uiso   1.00
N45    N     0.23510   0.00317   0.21127   0.00000  Uiso   1.00
N46    N     0.09823   0.33016   0.28873   0.00000  Uiso   1.00
N47    N     0.01106   0.11981   0.20636   0.00000  Uiso   1.00
N48    N     0.32228   0.21353   0.29363   0.00000  Uiso   1.00
O49    O     0.12975   0.24619   0.25299   0.00000  Uiso   1.00
O50    O     0.20358   0.08714   0.24702   0.00000  Uiso   1.00
O51    O     0.22613   0.23721   0.24519   0.00000  Uiso   1.00
O52    O     0.10720   0.09613   0.25482   0.00000  Uiso   1.00
O53    O     0.11847   0.17117   0.31998   0.00000  Uiso   1.00
O54    O     0.21486   0.16216   0.18003   0.00000  Uiso   1.00
O55    O     0.21485   0.16219   0.31218   0.00000  Uiso   1.00
O56    O     0.11848   0.17115   0.18783   0.00000  Uiso   1.00
Zn57   Zn    0.10231   0.17266   0.25521   0.00000  Uiso   1.00
Zn58   Zn    0.23102   0.16067   0.24479   0.00000  Uiso   1.00
C59    C     0.51476   0.26461   0.24873   0.00000  Uiso   1.00
C60    C     0.52069   0.21133   0.40654   0.00000  Uiso   1.00
C61    C     0.49835   0.16670   0.11620   0.00000  Uiso   1.00
C62    C     0.50165   0.16663   0.38380   0.00000  Uiso   1.00
C63    C     0.51766   0.21144   0.09399   0.00000  Uiso   1.00
C64    C     0.48235   0.12189   0.40601   0.00000  Uiso   1.00
C65    C     0.51842   0.21232   0.04724   0.00000  Uiso   1.00
C66    C     0.48159   0.12101   0.45276   0.00000  Uiso   1.00
C67    C     0.49964   0.16681   0.02346   0.00000  Uiso   1.00
C68    C     0.50037   0.16652   0.47654   0.00000  Uiso   1.00
C69    C     0.48015   0.12154   0.04672   0.00000  Uiso   1.00
C70    C     0.48524   0.06872   0.25127   0.00000  Uiso   1.00
C71    C     0.51987   0.21179   0.45328   0.00000  Uiso   1.00
C72    C     0.53744   0.25745   0.02394   0.00000  Uiso   1.00
C73    C     0.46259   0.07588   0.47606   0.00000  Uiso   1.00
C74    C     0.53792   0.25670   0.47692   0.00000  Uiso   1.00
C75    C     0.46210   0.07663   0.02308   0.00000  Uiso   1.00
C76    C     0.52106   0.31808   0.24144   0.00000  Uiso   1.00
C77    C     0.47894   0.01525   0.25856   0.00000  Uiso   1.00
C78    C     0.50054   0.16678   0.33630   0.00000  Uiso   1.00
C79    C     0.49946   0.16655   0.16370   0.00000  Uiso   1.00
C80    C     0.47932   0.12200   0.09346   0.00000  Uiso   1.00
F81    F     0.46111   0.07909   0.11695   0.00000  Uiso   1.00
F82    F     0.53889   0.25424   0.38305   0.00000  Uiso   1.00
H83    H     0.53182   0.24525   0.11357   0.00000  Uiso   1.00
H84    H     0.56675   0.31599   0.18039   0.00000  Uiso   1.00
H85    H     0.39342   0.00503   0.27496   0.00000  Uiso   1.00
H86    H     0.43323   0.01735   0.31961   0.00000  Uiso   1.00
H87    H     0.66508   0.12901   0.17477   0.00000  Uiso   1.00
H88    H     0.66131   0.08224   0.21293   0.00000  Uiso   1.00
H89    H     0.33502   0.20443   0.32523   0.00000  Uiso   1.00
H90    H     0.33859   0.25112   0.28698   0.00000  Uiso   1.00
H91    H     0.46819   0.08808   0.38643   0.00000  Uiso   1.00
H92    H     0.55258   0.29127   0.45885   0.00000  Uiso   1.00
H93    H     0.44744   0.04206   0.04115   0.00000  Uiso   1.00
H94    H     0.59574   0.29707   0.05983   0.00000  Uiso   1.00
H95    H     0.56271   0.00156   0.02627   0.00000  Uiso   1.00
H96    H     0.40425   0.03623   0.44022   0.00000  Uiso   1.00
H97    H     0.43740   0.33175   0.47372   0.00000  Uiso   1.00
H98    H     0.60658   0.32829   0.22502   0.00000  Uiso   1.00
N99    N     0.65011   0.15265   0.23783   0.00000  Uiso   1.00
N100   N     0.34989   0.18068   0.26217   0.00000  Uiso   1.00
N101   N     0.55598   0.30380   0.04804   0.00000  Uiso   1.00
N102   N     0.44405   0.02953   0.45195   0.00000  Uiso   1.00
N103   N     0.56843   0.00317   0.21127   0.00000  Uiso   1.00
N104   N     0.43156   0.33016   0.28873   0.00000  Uiso   1.00
N105   N     0.34439   0.11981   0.20636   0.00000  Uiso   1.00
N106   N     0.65561   0.21353   0.29363   0.00000  Uiso   1.00
O107   O     0.46308   0.24619   0.25299   0.00000  Uiso   1.00
O108   O     0.53692   0.08714   0.24702   0.00000  Uiso   1.00
O109   O     0.55946   0.23721   0.24519   0.00000  Uiso   1.00
O110   O     0.44054   0.09613   0.25482   0.00000  Uiso   1.00
O111   O     0.45181   0.17117   0.31998   0.00000  Uiso   1.00
O112   O     0.54819   0.16216   0.18003   0.00000  Uiso   1.00
O113   O     0.54819   0.16219   0.31218   0.00000  Uiso   1.00
O114   O     0.45181   0.17115   0.18783   0.00000  Uiso   1.00
Zn115  Zn    0.43565   0.17266   0.25521   0.00000  Uiso   1.00
Zn116  Zn    0.56435   0.16067   0.24479   0.00000  Uiso   1.00
C117   C     0.84809   0.26461   0.24873   0.00000  Uiso   1.00
C118   C     0.85402   0.21133   0.40654   0.00000  Uiso   1.00
C119   C     0.83169   0.16670   0.11620   0.00000  Uiso   1.00
C120   C     0.83498   0.16663   0.38380   0.00000  Uiso   1.00
C121   C     0.85099   0.21144   0.09399   0.00000  Uiso   1.00
C122   C     0.81568   0.12189   0.40601   0.00000  Uiso   1.00
C123   C     0.85176   0.21232   0.04724   0.00000  Uiso   1.00
C124   C     0.81492   0.12101   0.45276   0.00000  Uiso   1.00
C125   C     0.83298   0.16681   0.02346   0.00000  Uiso   1.00
C126   C     0.83371   0.16652   0.47654   0.00000  Uiso   1.00
C127   C     0.81348   0.12154   0.04672   0.00000  Uiso   1.00
C128   C     0.81857   0.06872   0.25127   0.00000  Uiso   1.00
C129   C     0.85320   0.21179   0.45328   0.00000  Uiso   1.00
C130   C     0.87077   0.25745   0.02394   0.00000  Uiso   1.00
C131   C     0.79592   0.07588   0.47606   0.00000  Uiso   1.00
C132   C     0.87125   0.25670   0.47692   0.00000  Uiso   1.00
C133   C     0.79544   0.07663   0.02308   0.00000  Uiso   1.00
C134   C     0.85440   0.31808   0.24144   0.00000  Uiso   1.00
C135   C     0.81227   0.01525   0.25856   0.00000  Uiso   1.00
C136   C     0.83387   0.16678   0.33630   0.00000  Uiso   1.00
C137   C     0.83280   0.16655   0.16370   0.00000  Uiso   1.00
C138   C     0.81265   0.12200   0.09346   0.00000  Uiso   1.00
F139   F     0.79445   0.07909   0.11695   0.00000  Uiso   1.00
F140   F     0.87222   0.25424   0.38305   0.00000  Uiso   1.00
H141   H     0.86515   0.24525   0.11357   0.00000  Uiso   1.00
H142   H     0.90008   0.31599   0.18039   0.00000  Uiso   1.00
H143   H     0.72675   0.00503   0.27496   0.00000  Uiso   1.00
H144   H     0.76656   0.01735   0.31961   0.00000  Uiso   1.00
H145   H     0.99841   0.12901   0.17477   0.00000  Uiso   1.00
H146   H     0.99464   0.08224   0.21293   0.00000  Uiso   1.00
H147   H     0.66835   0.20443   0.32523   0.00000  Uiso   1.00
H148   H     0.67193   0.25112   0.28698   0.00000  Uiso   1.00
H149   H     0.80152   0.08808   0.38643   0.00000  Uiso   1.00
H150   H     0.88592   0.29127   0.45885   0.00000  Uiso   1.00
H151   H     0.78077   0.04206   0.04115   0.00000  Uiso   1.00
H152   H     0.92908   0.29707   0.05983   0.00000  Uiso   1.00
H153   H     0.89605   0.00156   0.02627   0.00000  Uiso   1.00
H154   H     0.73759   0.03623   0.44022   0.00000  Uiso   1.00
H155   H     0.77074   0.33175   0.47372   0.00000  Uiso   1.00
H156   H     0.93991   0.32829   0.22502   0.00000  Uiso   1.00
N157   N     0.98344   0.15265   0.23783   0.00000  Uiso   1.00
N158   N     0.68322   0.18068   0.26217   0.00000  Uiso   1.00
N159   N     0.88931   0.30380   0.04804   0.00000  Uiso   1.00
N160   N     0.77739   0.02953   0.45195   0.00000  Uiso   1.00
N161   N     0.90176   0.00317   0.21127   0.00000  Uiso   1.00
N162   N     0.76490   0.33016   0.28873   0.00000  Uiso   1.00
N163   N     0.67772   0.11981   0.20636   0.00000  Uiso   1.00
N164   N     0.98894   0.21353   0.29363   0.00000  Uiso   1.00
O165   O     0.79642   0.24619   0.25299   0.00000  Uiso   1.00
O166   O     0.87025   0.08714   0.24702   0.00000  Uiso   1.00
O167   O     0.89280   0.23721   0.24519   0.00000  Uiso   1.00
O168   O     0.77387   0.09613   0.25482   0.00000  Uiso   1.00
O169   O     0.78514   0.17117   0.31998   0.00000  Uiso   1.00
O170   O     0.88153   0.16216   0.18003   0.00000  Uiso   1.00
O171   O     0.88152   0.16219   0.31218   0.00000  Uiso   1.00
O172   O     0.78515   0.17115   0.18783   0.00000  Uiso   1.00
Zn173  Zn    0.76898   0.17266   0.25521   0.00000  Uiso   1.00
Zn174  Zn    0.89769   0.16067   0.24479   0.00000  Uiso   1.00
C175   C     0.18143   0.59794   0.24873   0.00000  Uiso   1.00
C176   C     0.18736   0.54467   0.40654   0.00000  Uiso   1.00
C177   C     0.16502   0.50004   0.11620   0.00000  Uiso   1.00
C178   C     0.16832   0.49996   0.38380   0.00000  Uiso   1.00
C179   C     0.18433   0.54477   0.09399   0.00000  Uiso   1.00
C180   C     0.14901   0.45522   0.40601   0.00000  Uiso   1.00
C181   C     0.18509   0.54565   0.04724   0.00000  Uiso   1.00
C182   C     0.14826   0.45435   0.45276   0.00000  Uiso   1.00
C183   C     0.16631   0.50014   0.02346   0.00000  Uiso   1.00
C184   C     0.16704   0.49985   0.47654   0.00000  Uiso   1.00
C185   C     0.14681   0.45487   0.04672   0.00000  Uiso   1.00
C186   C     0.15191   0.40206   0.25127   0.00000  Uiso   1.00
C187   C     0.18654   0.54513   0.45328   0.00000  Uiso   1.00
C188   C     0.20410   0.59078   0.02394   0.00000  Uiso   1.00
C189   C     0.12925   0.40921   0.47606   0.00000  Uiso   1.00
C190   C     0.20458   0.59003   0.47692   0.00000  Uiso   1.00
C191   C     0.12877   0.40996   0.02308   0.00000  Uiso   1.00
C192   C     0.18773   0.65142   0.24144   0.00000  Uiso   1.00
C193   C     0.14560   0.34858   0.25856   0.00000  Uiso   1.00
C194   C     0.16720   0.50011   0.33630   0.00000  Uiso   1.00
C195   C     0.16613   0.49989   0.16370   0.00000  Uiso   1.00
C196   C     0.14598   0.45533   0.09346   0.00000  Uiso   1.00
F197   F     0.12778   0.41242   0.11695   0.00000  Uiso   1.00
F198   F     0.20556   0.58758   0.38305   0.00000  Uiso   1.00
H199   H     0.19848   0.57858   0.11357   0.00000  Uiso   1.00
H200   H     0.23342   0.64932   0.18039   0.00000  Uiso   1.00
H201   H     0.06008   0.33837   0.27496   0.00000  Uiso   1.00
H202   H     0.09989   0.35069   0.31961   0.00000  Uiso   1.00
H203   H     0.33175   0.46234   0.17477   0.00000  Uiso   1.00
H204   H     0.32797   0.41558   0.21293   0.00000  Uiso   1.00
H205   H     0.00169   0.53777   0.32523   0.00000  Uiso   1.00
H206   H     0.00526   0.58446   0.28698   0.00000  Uiso   1.00
H207   H     0.13485   0.42142   0.38643   0.00000  Uiso   1.00
H208   H     0.21925   0.62460   0.45885   0.00000  Uiso   1.00
H209   H     0.11411   0.37539   0.04115   0.00000  Uiso   1.00
H210   H     0.26241   0.63040   0.05983   0.00000  Uiso   1.00
H211   H     0.22938   0.33489   0.02627   0.00000  Uiso   1.00
H212   H     0.07092   0.36956   0.44022   0.00000  Uiso   1.00
H213   H     0.10407   0.66508   0.47372   0.00000  Uiso   1.00
H214   H     0.27325   0.66162   0.22502   0.00000  Uiso   1.00
N215   N     0.31678   0.48598   0.23783   0.00000  Uiso   1.00
N216   N     0.01656   0.51402   0.26217   0.00000  Uiso   1.00
N217   N     0.22264   0.63713   0.04804   0.00000  Uiso   1.00
N218   N     0.11072   0.36286   0.45195   0.00000  Uiso   1.00
N219   N     0.23510   0.33650   0.21127   0.00000  Uiso   1.00
N220   N     0.09823   0.66350   0.28873   0.00000  Uiso   1.00
N221   N     0.01106   0.45315   0.20636   0.00000  Uiso   1.00
N222   N     0.32228   0.54687   0.29363   0.00000  Uiso   1.00
O223   O     0.12975   0.57952   0.25299   0.00000  Uiso   1.00
O224   O     0.20358   0.42048   0.24702   0.00000  Uiso   1.00
O225   O     0.22613   0.57054   0.24519   0.00000  Uiso   1.00
O226   O     0.10720   0.42946   0.25482   0.00000  Uiso   1.00
O227   O     0.11847   0.50450   0.31998   0.00000  Uiso   1.00
O228   O     0.21486   0.49550   0.18003   0.00000  Uiso   1.00
O229   O     0.21485   0.49552   0.31218   0.00000  Uiso   1.00
O230   O     0.11848   0.50448   0.18783   0.00000  Uiso   1.00
Zn231  Zn    0.10231   0.50600   0.25521   0.00000  Uiso   1.00
Zn232  Zn    0.23102   0.49400   0.24479   0.00000  Uiso   1.00
C233   C     0.51476   0.59794   0.24873   0.00000  Uiso   1.00
C234   C     0.52069   0.54467   0.40654   0.00000  Uiso   1.00
C235   C     0.49835   0.50004   0.11620   0.00000  Uiso   1.00
C236   C     0.50165   0.49996   0.38380   0.00000  Uiso   1.00
C237   C     0.51766   0.54477   0.09399   0.00000  Uiso   1.00
C238   C     0.48235   0.45522   0.40601   0.00000  Uiso   1.00
C239   C     0.51842   0.54565   0.04724   0.00000  Uiso   1.00
C240   C     0.48159   0.45435   0.45276   0.00000  Uiso   1.00
C241   C     0.49964   0.50014   0.02346   0.00000  Uiso   1.00
C242   C     0.50037   0.49985   0.47654   0.00000  Uiso   1.00
C243   C     0.48015   0.45487   0.04672   0.00000  Uiso   1.00
C244   C     0.48524   0.40206   0.25127   0.00000  Uiso   1.00
C245   C     0.51987   0.54513   0.45328   0.00000  Uiso   1.00
C246   C     0.53744   0.59078   0.02394   0.00000  Uiso   1.00
C247   C     0.46259   0.40921   0.47606   0.00000  Uiso   1.00
C248   C     0.53792   0.59003   0.47692   0.00000  Uiso   1.00
C249   C     0.46210   0.40996   0.02308   0.00000  Uiso   1.00
C250   C     0.52106   0.65142   0.24144   0.00000  Uiso   1.00
C251   C     0.47894   0.34858   0.25856   0.00000  Uiso   1.00
C252   C     0.50054   0.50011   0.33630   0.00000  Uiso   1.00
C253   C     0.49946   0.49989   0.16370   0.00000  Uiso   1.00
C254   C     0.47932   0.45533   0.09346   0.00000  Uiso   1.00
F255   F     0.46111   0.41242   0.11695   0.00000  Uiso   1.00
F256   F     0.53889   0.58758   0.38305   0.00000  Uiso   1.00
H257   H     0.53182   0.57858   0.11357   0.00000  Uiso   1.00
H258   H     0.56675   0.64932   0.18039   0.00000  Uiso   1.00
H259   H     0.39342   0.33837   0.27496   0.00000  Uiso   1.00
H260   H     0.43323   0.35069   0.31961   0.00000  Uiso   1.00
H261   H     0.66508   0.46234   0.17477   0.00000  Uiso   1.00
H262   H     0.66131   0.41558   0.21293   0.00000  Uiso   1.00
H263   H     0.33502   0.53777   0.32523   0.00000  Uiso   1.00
H264   H     0.33859   0.58446   0.28698   0.00000  Uiso   1.00
H265   H     0.46819   0.42142   0.38643   0.00000  Uiso   1.00
H266   H     0.55258   0.62460   0.45885   0.00000  Uiso   1.00
H267   H     0.44744   0.37539   0.04115   0.00000  Uiso   1.00
H268   H     0.59574   0.63040   0.05983   0.00000  Uiso   1.00
H269   H     0.56271   0.33489   0.02627   0.00000  Uiso   1.00
H270   H     0.40425   0.36956   0.44022   0.00000  Uiso   1.00
H271   H     0.43740   0.66508   0.47372   0.00000  Uiso   1.00
H272   H     0.60658   0.66162   0.22502   0.00000  Uiso   1.00
N273   N     0.65011   0.48598   0.23783   0.00000  Uiso   1.00
N274   N     0.34989   0.51402   0.26217   0.00000  Uiso   1.00
N275   N     0.55598   0.63713   0.04804   0.00000  Uiso   1.00
N276   N     0.44405   0.36286   0.45195   0.00000  Uiso   1.00
N277   N     0.56843   0.33650   0.21127   0.00000  Uiso   1.00
N278   N     0.43156   0.66350   0.28873   0.00000  Uiso   1.00
N279   N     0.34439   0.45315   0.20636   0.00000  Uiso   1.00
N280   N     0.65561   0.54687   0.29363   0.00000  Uiso   1.00
O281   O     0.46308   0.57952   0.25299   0.00000  Uiso   1.00
O282   O     0.53692   0.42048   0.24702   0.00000  Uiso   1.00
O283   O     0.55946   0.57054   0.24519   0.00000  Uiso   1.00
O284   O     0.44054   0.42946   0.25482   0.00000  Uiso   1.00
O285   O     0.45181   0.50450   0.31998   0.00000  Uiso   1.00
O286   O     0.54819   0.49550   0.18003   0.00000  Uiso   1.00
O287   O     0.54819   0.49552   0.31218   0.00000  Uiso   1.00
O288   O     0.45181   0.50448   0.18783   0.00000  Uiso   1.00
Zn289  Zn    0.43565   0.50600   0.25521   0.00000  Uiso   1.00
Zn290  Zn    0.56435   0.49400   0.24479   0.00000  Uiso   1.00
C291   C     0.84809   0.59794   0.24873   0.00000  Uiso   1.00
C292   C     0.85402   0.54467   0.40654   0.00000  Uiso   1.00
C293   C     0.83169   0.50004   0.11620   0.00000  Uiso   1.00
C294   C     0.83498   0.49996   0.38380   0.00000  Uiso   1.00
C295   C     0.85099   0.54477   0.09399   0.00000  Uiso   1.00
C296   C     0.81568   0.45522   0.40601   0.00000  Uiso   1.00
C297   C     0.85176   0.54565   0.04724   0.00000  Uiso   1.00
C298   C     0.81492   0.45435   0.45276   0.00000  Uiso   1.00
C299   C     0.83298   0.50014   0.02346   0.00000  Uiso   1.00
C300   C     0.83371   0.49985   0.47654   0.00000  Uiso   1.00
C301   C     0.81348   0.45487   0.04672   0.00000  Uiso   1.00
C302   C     0.81857   0.40206   0.25127   0.00000  Uiso   1.00
C303   C     0.85320   0.54513   0.45328   0.00000  Uiso   1.00
C304   C     0.87077   0.59078   0.02394   0.00000  Uiso   1.00
C305   C     0.79592   0.40921   0.47606   0.00000  Uiso   1.00
C306   C     0.87125   0.59003   0.47692   0.00000  Uiso   1.00
C307   C     0.79544   0.40996   0.02308   0.00000  Uiso   1.00
C308   C     0.85440   0.65142   0.24144   0.00000  Uiso   1.00
C309   C     0.81227   0.34858   0.25856   0.00000  Uiso   1.00
C310   C     0.83387   0.50011   0.33630   0.00000  Uiso   1.00
C311   C     0.83280   0.49989   0.16370   0.00000  Uiso   1.00
C312   C     0.81265   0.45533   0.09346   0.00000  Uiso   1.00
F313   F     0.79445   0.41242   0.11695   0.00000  Uiso   1.00
F314   F     0.87222   0.58758   0.38305   0.00000  Uiso   1.00
H315   H     0.86515   0.57858   0.11357   0.00000  Uiso   1.00
H316   H     0.90008   0.64932   0.18039   0.00000  Uiso   1.00
H317   H     0.72675   0.33837   0.27496   0.00000  Uiso   1.00
H318   H     0.76656   0.35069   0.31961   0.00000  Uiso   1.00
H319   H     0.99841   0.46234   0.17477   0.00000  Uiso   1.00
H320   H     0.99464   0.41558   0.21293   0.00000  Uiso   1.00
H321   H     0.66835   0.53777   0.32523   0.00000  Uiso   1.00
H322   H     0.67193   0.58446   0.28698   0.00000  Uiso   1.00
H323   H     0.80152   0.42142   0.38643   0.00000  Uiso   1.00
H324   H     0.88592   0.62460   0.45885   0.00000  Uiso   1.00
H325   H     0.78077   0.37539   0.04115   0.00000  Uiso   1.00
H326   H     0.92908   0.63040   0.05983   0.00000  Uiso   1.00
H327   H     0.89605   0.33489   0.02627   0.00000  Uiso   1.00
H328   H     0.73759   0.36956   0.44022   0.00000  Uiso   1.00
H329   H     0.77074   0.66508   0.47372   0.00000  Uiso   1.00
H330   H     0.93991   0.66162   0.22502   0.00000  Uiso   1.00
N331   N     0.98344   0.48598   0.23783   0.00000  Uiso   1.00
N332   N     0.68322   0.51402   0.26217   0.00000  Uiso   1.00
N333   N     0.88931   0.63713   0.04804   0.00000  Uiso   1.00
N334   N     0.77739   0.36286   0.45195   0.00000  Uiso   1.00
N335   N     0.90176   0.33650   0.21127   0.00000  Uiso   1.00
N336   N     0.76490   0.66350   0.28873   0.00000  Uiso   1.00
N337   N     0.67772   0.45315   0.20636   0.00000  Uiso   1.00
N338   N     0.98894   0.54687   0.29363   0.00000  Uiso   1.00
O339   O     0.79642   0.57952   0.25299   0.00000  Uiso   1.00
O340   O     0.87025   0.42048   0.24702   0.00000  Uiso   1.00
O341   O     0.89280   0.57054   0.24519   0.00000  Uiso   1.00
O342   O     0.77387   0.42946   0.25482   0.00000  Uiso   1.00
O343   O     0.78514   0.50450   0.31998   0.00000  Uiso   1.00
O344   O     0.88153   0.49550   0.18003   0.00000  Uiso   1.00
O345   O     0.88152   0.49552   0.31218   0.00000  Uiso   1.00
O346   O     0.78515   0.50448   0.18783   0.00000  Uiso   1.00
Zn347  Zn    0.76898   0.50600   0.25521   0.00000  Uiso   1.00
Zn348  Zn    0.89769   0.49400   0.24479   0.00000  Uiso   1.00
C349   C     0.18143   0.93128   0.24873   0.00000  Uiso   1.00
C350   C     0.18736   0.87800   0.40654   0.00000  Uiso   1.00
C351   C     0.16502   0.83337   0.11620   0.00000  Uiso   1.00
C352   C     0.16832   0.83330   0.38380   0.00000  Uiso   1.00
C353   C     0.18433   0.87811   0.09399   0.00000  Uiso   1.00
C354   C     0.14901   0.78856   0.40601   0.00000  Uiso   1.00
C355   C     0.18509   0.87898   0.04724   0.00000  Uiso   1.00
C356   C     0.14826   0.78768   0.45276   0.00000  Uiso   1.00
C357   C     0.16631   0.83348   0.02346   0.00000  Uiso   1.00
C358   C     0.16704   0.83318   0.47654   0.00000  Uiso   1.00
C359   C     0.14681   0.78820   0.04672   0.00000  Uiso   1.00
C360   C     0.15191   0.73539   0.25127   0.00000  Uiso   1.00
C361   C     0.18654   0.87846   0.45328   0.00000  Uiso   1.00
C362   C     0.20410   0.92412   0.02394   0.00000  Uiso   1.00
C363   C     0.12925   0.74255   0.47606   0.00000  Uiso   1.00
C364   C     0.20458   0.92337   0.47692   0.00000  Uiso   1.00
C365   C     0.12877   0.74329   0.02308   0.00000  Uiso   1.00
C366   C     0.18773   0.98475   0.24144   0.00000  Uiso   1.00
C367   C     0.14560   0.68192   0.25856   0.00000  Uiso   1.00
C368   C     0.16720   0.83345   0.33630   0.00000  Uiso   1.00
C369   C     0.16613   0.83322   0.16370   0.00000  Uiso   1.00
C370   C     0.14598   0.78866   0.09346   0.00000  Uiso   1.00
F371   F     0.12778   0.74576   0.11695   0.00000  Uiso   1.00
F372   F     0.20556   0.92091   0.38305   0.00000  Uiso   1.00
H373   H     0.19848   0.91192   0.11357   0.00000  Uiso   1.00
H374   H     0.23342   0.98266   0.18039   0.00000  Uiso   1.00
H375   H     0.06008   0.67170   0.27496   0.00000  Uiso   1.00
H376   H     0.09989   0.68402   0.31961   0.00000  Uiso   1.00
H377   H     0.33175   0.79567   0.17477   0.00000  Uiso   1.00
H378   H     0.32797   0.74891   0.21293   0.00000  Uiso   1.00
H379   H     0.00169   0.87110   0.32523   0.00000  Uiso   1.00
H380   H     0.00526   0.91779   0.28698   0.00000  Uiso   1.00
H381   H     0.13485   0.75475   0.38643   0.00000  Uiso   1.00
H382   H     0.21925   0.95794   0.45885   0.00000  Uiso   1.00
H383   H     0.11411   0.70872   0.04115   0.00000  Uiso   1.00
H384   H     0.26241   0.96373   0.05983   0.00000  Uiso   1.00
H385   H     0.22938   0.66822   0.02627   0.00000  Uiso   1.00
H386   H     0.07092   0.70290   0.44022   0.00000  Uiso   1.00
H387   H     0.10407   0.99842   0.47372   0.00000  Uiso   1.00
H388   H     0.27325   0.99496   0.22502   0.00000  Uiso   1.00
N389   N     0.31678   0.81932   0.23783   0.00000  Uiso   1.00
N390   N     0.01656   0.84735   0.26217   0.00000  Uiso   1.00
N391   N     0.22264   0.97046   0.04804   0.00000  Uiso   1.00
N392   N     0.11072   0.69620   0.45195   0.00000  Uiso   1.00
N393   N     0.23510   0.66984   0.21127   0.00000  Uiso   1.00
N394   N     0.09823   0.99683   0.28873   0.00000  Uiso   1.00
N395   N     0.01106   0.78648   0.20636   0.00000  Uiso   1.00
N396   N     0.32228   0.88020   0.29363   0.00000  Uiso   1.00
O397   O     0.12975   0.91286   0.25299   0.00000  Uiso   1.00
O398   O     0.20358   0.75381   0.24702   0.00000  Uiso   1.00
O399   O     0.22613   0.90387   0.24519   0.00000  Uiso   1.00
O400   O     0.10720   0.76279   0.25482   0.00000  Uiso   1.00
O401   O     0.11847   0.83784   0.31998   0.00000  Uiso   1.00
O402   O     0.21486   0.82883   0.18003   0.00000  Uiso   1.00
O403   O     0.21485   0.82885   0.31218   0.00000  Uiso   1.00
O404   O     0.11848   0.83781   0.18783   0.00000  Uiso   1.00
Zn405  Zn    0.10231   0.83933   0.25521   0.00000  Uiso   1.00
Zn406  Zn    0.23102   0.82734   0.24479   0.00000  Uiso   1.00
C407   C     0.51476   0.93128   0.24873   0.00000  Uiso   1.00
C408   C     0.52069   0.87800   0.40654   0.00000  Uiso   1.00
C409   C     0.49835   0.83337   0.11620   0.00000  Uiso   1.00
C410   C     0.50165   0.83330   0.38380   0.00000  Uiso   1.00
C411   C     0.51766   0.87811   0.09399   0.00000  Uiso   1.00
C412   C     0.48235   0.78856   0.40601   0.00000  Uiso   1.00
C413   C     0.51842   0.87898   0.04724   0.00000  Uiso   1.00
C414   C     0.48159   0.78768   0.45276   0.00000  Uiso   1.00
C415   C     0.49964   0.83348   0.02346   0.00000  Uiso   1.00
C416   C     0.50037   0.83318   0.47654   0.00000  Uiso   1.00
C417   C     0.48015   0.78820   0.04672   0.00000  Uiso   1.00
C418   C     0.48524   0.73539   0.25127   0.00000  Uiso   1.00
C419   C     0.51987   0.87846   0.45328   0.00000  Uiso   1.00
C420   C     0.53744   0.92412   0.02394   0.00000  Uiso   1.00
C421   C     0.46259   0.74255   0.47606   0.00000  Uiso   1.00
C422   C     0.53792   0.92337   0.47692   0.00000  Uiso   1.00
C423   C     0.46210   0.74329   0.02308   0.00000  Uiso   1.00
C424   C     0.52106   0.98475   0.24144   0.00000  Uiso   1.00
C425   C     0.47894   0.68192   0.25856   0.00000  Uiso   1.00
C426   C     0.50054   0.83345   0.33630   0.00000  Uiso   1.00
C427   C     0.49946   0.83322   0.16370   0.00000  Uiso   1.00
C428   C     0.47932   0.78866   0.09346   0.00000  Uiso   1.00
F429   F     0.46111   0.74576   0.11695   0.00000  Uiso   1.00
F430   F     0.53889   0.92091   0.38305   0.00000  Uiso   1.00
H431   H     0.53182   0.91192   0.11357   0.00000  Uiso   1.00
H432   H     0.56675   0.98266   0.18039   0.00000  Uiso   1.00
H433   H     0.39342   0.67170   0.27496   0.00000  Uiso   1.00
H434   H     0.43323   0.68402   0.31961   0.00000  Uiso   1.00
H435   H     0.66508   0.79567   0.17477   0.00000  Uiso   1.00
H436   H     0.66131   0.74891   0.21293   0.00000  Uiso   1.00
H437   H     0.33502   0.87110   0.32523   0.00000  Uiso   1.00
H438   H     0.33859   0.91779   0.28698   0.00000  Uiso   1.00
H439   H     0.46819   0.75475   0.38643   0.00000  Uiso   1.00
H440   H     0.55258   0.95794   0.45885   0.00000  Uiso   1.00
H441   H     0.44744   0.70872   0.04115   0.00000  Uiso   1.00
H442   H     0.59574   0.96373   0.05983   0.00000  Uiso   1.00
H443   H     0.56271   0.66822   0.02627   0.00000  Uiso   1.00
H444   H     0.40425   0.70290   0.44022   0.00000  Uiso   1.00
H445   H     0.43740   0.99842   0.47372   0.00000  Uiso   1.00
H446   H     0.60658   0.99496   0.22502   0.00000  Uiso   1.00
N447   N     0.65011   0.81932   0.23783   0.00000  Uiso   1.00
N448   N     0.34989   0.84735   0.26217   0.00000  Uiso   1.00
N449   N     0.55598   0.97046   0.04804   0.00000  Uiso   1.00
N450   N     0.44405   0.69620   0.45195   0.00000  Uiso   1.00
N451   N     0.56843   0.66984   0.21127   0.00000  Uiso   1.00
N452   N     0.43156   0.99683   0.28873   0.00000  Uiso   1.00
N453   N     0.34439   0.78648   0.20636   0.00000  Uiso   1.00
N454   N     0.65561   0.88020   0.29363   0.00000  Uiso   1.00
O455   O     0.46308   0.91286   0.25299   0.00000  Uiso   1.00
O456   O     0.53692   0.75381   0.24702   0.00000  Uiso   1.00
O457   O     0.55946   0.90387   0.24519   0.00000  Uiso   1.00
O458   O     0.44054   0.76279   0.25482   0.00000  Uiso   1.00
O459   O     0.45181   0.83784   0.31998   0.00000  Uiso   1.00
O460   O     0.54819   0.82883   0.18003   0.00000  Uiso   1.00
O461   O     0.54819   0.82885   0.31218   0.00000  Uiso   1.00
O462   O     0.45181   0.83781   0.18783   0.00000  Uiso   1.00
Zn463  Zn    0.43565   0.83933   0.25521   0.00000  Uiso   1.00
Zn464  Zn    0.56435   0.82734   0.24479   0.00000  Uiso   1.00
C465   C     0.84809   0.93128   0.24873   0.00000  Uiso   1.00
C466   C     0.85402   0.87800   0.40654   0.00000  Uiso   1.00
C467   C     0.83169   0.83337   0.11620   0.00000  Uiso   1.00
C468   C     0.83498   0.83330   0.38380   0.00000  Uiso   1.00
C469   C     0.85099   0.87811   0.09399   0.00000  Uiso   1.00
C470   C     0.81568   0.78856   0.40601   0.00000  Uiso   1.00
C471   C     0.85176   0.87898   0.04724   0.00000  Uiso   1.00
C472   C     0.81492   0.78768   0.45276   0.00000  Uiso   1.00
C473   C     0.83298   0.83348   0.02346   0.00000  Uiso   1.00
C474   C     0.83371   0.83318   0.47654   0.00000  Uiso   1.00
C475   C     0.81348   0.78820   0.04672   0.00000  Uiso   1.00
C476   C     0.81857   0.73539   0.25127   0.00000  Uiso   1.00
C477   C     0.85320   0.87846   0.45328   0.00000  Uiso   1.00
C478   C     0.87077   0.92412   0.02394   0.00000  Uiso   1.00
C479   C     0.79592   0.74255   0.47606   0.00000  Uiso   1.00
C480   C     0.87125   0.92337   0.47692   0.00000  Uiso   1.00
C481   C     0.79544   0.74329   0.02308   0.00000  Uiso   1.00
C482   C     0.85440   0.98475   0.24144   0.00000  Uiso   1.00
C483   C     0.81227   0.68192   0.25856   0.00000  Uiso   1.00
C484   C     0.83387   0.83345   0.33630   0.00000  Uiso   1.00
C485   C     0.83280   0.83322   0.16370   0.00000  Uiso   1.00
C486   C     0.81265   0.78866   0.09346   0.00000  Uiso   1.00
F487   F     0.79445   0.74576   0.11695   0.00000  Uiso   1.00
F488   F     0.87222   0.92091   0.38305   0.00000  Uiso   1.00
H489   H     0.86515   0.91192   0.11357   0.00000  Uiso   1.00
H490   H     0.90008   0.98266   0.18039   0.00000  Uiso   1.00
H491   H     0.72675   0.67170   0.27496   0.00000  Uiso   1.00
H492   H     0.76656   0.68402   0.31961   0.00000  Uiso   1.00
H493   H     0.99841   0.79567   0.17477   0.00000  Uiso   1.00
H494   H     0.99464   0.74891   0.21293   0.00000  Uiso   1.00
H495   H     0.66835   0.87110   0.32523   0.00000  Uiso   1.00
H496   H     0.67193   0.91779   0.28698   0.00000  Uiso   1.00
H497   H     0.80152   0.75475   0.38643   0.00000  Uiso   1.00
H498   H     0.88592   0.95794   0.45885   0.00000  Uiso   1.00
H499   H     0.78077   0.70872   0.04115   0.00000  Uiso   1.00
H500   H     0.92908   0.96373   0.05983   0.00000  Uiso   1.00
H501   H     0.89605   0.66822   0.02627   0.00000  Uiso   1.00
H502   H     0.73759   0.70290   0.44022   0.00000  Uiso   1.00
H503   H     0.77074   0.99842   0.47372   0.00000  Uiso   1.00
H504   H     0.93991   0.99496   0.22502   0.00000  Uiso   1.00
N505   N     0.98344   0.81932   0.23783   0.00000  Uiso   1.00
N506   N     0.68322   0.84735   0.26217   0.00000  Uiso   1.00
N507   N     0.88931   0.97046   0.04804   0.00000  Uiso   1.00
N508   N     0.77739   0.69620   0.45195   0.00000  Uiso   1.00
N509   N     0.90176   0.66984   0.21127   0.00000  Uiso   1.00
N510   N     0.76490   0.99683   0.28873   0.00000  Uiso   1.00
N511   N     0.67772   0.78648   0.20636   0.00000  Uiso   1.00
N512   N     0.98894   0.88020   0.29363   0.00000  Uiso   1.00
O513   O     0.79642   0.91286   0.25299   0.00000  Uiso   1.00
O514   O     0.87025   0.75381   0.24702   0.00000  Uiso   1.00
O515   O     0.89280   0.90387   0.24519   0.00000  Uiso   1.00
O516   O     0.77387   0.76279   0.25482   0.00000  Uiso   1.00
O517   O     0.78514   0.83784   0.31998   0.00000  Uiso   1.00
O518   O     0.88153   0.82883   0.18003   0.00000  Uiso   1.00
O519   O     0.88152   0.82885   0.31218   0.00000  Uiso   1.00
O520   O     0.78515   0.83781   0.18783   0.00000  Uiso   1.00
Zn521  Zn    0.76898   0.83933   0.25521   0.00000  Uiso   1.00
Zn522  Zn    0.89769   0.82734   0.24479   0.00000  Uiso   1.00
C523   C     0.18143   0.26461   0.74873   0.00000  Uiso   1.00
C524   C     0.18736   0.21133   0.90654   0.00000  Uiso   1.00
C525   C     0.16502   0.16670   0.61620   0.00000  Uiso   1.00
C526   C     0.16832   0.16663   0.88380   0.00000  Uiso   1.00
C527   C     0.18433   0.21144   0.59399   0.00000  Uiso   1.00
C528   C     0.14901   0.12189   0.90601   0.00000  Uiso   1.00
C529   C     0.18509   0.21232   0.54724   0.00000  Uiso   1.00
C530   C     0.14826   0.12101   0.95276   0.00000  Uiso   1.00
C531   C     0.16631   0.16681   0.52346   0.00000  Uiso   1.00
C532   C     0.16704   0.16652   0.97654   0.00000  Uiso   1.00
C533   C     0.14681   0.12154   0.54672   0.00000  Uiso   1.00
C534   C     0.15191   0.06872   0.75127   0.00000  Uiso   1.00
C535   C     0.18654   0.21179   0.95328   0.00000  Uiso   1.00
C536   C     0.20410   0.25745   0.52394   0.00000  Uiso   1.00
C537   C     0.12925   0.07588   0.97606   0.00000  Uiso   1.00
C538   C     0.20458   0.25670   0.97692   0.00000  Uiso   1.00
C539   C     0.12877   0.07663   0.52308   0.00000  Uiso   1.00
C540   C     0.18773   0.31808   0.74144   0.00000  Uiso   1.00
C541   C     0.14560   0.01525   0.75856   0.00000  Uiso   1.00
C542   C     0.16720   0.16678   0.83630   0.00000  Uiso   1.00
C543   C     0.16613   0.16655   0.66370   0.00000  Uiso   1.00
C544   C     0.14598   0.12200   0.59346   0.00000  Uiso   1.00
F545   F     0.12778   0.07909   0.61695   0.00000  Uiso   1.00
F546   F     0.20556   0.25424   0.88305   0.00000  Uiso   1.00
H547   H     0.19848   0.24525   0.61357   0.00000  Uiso   1.00
H548   H     0.23342   0.31599   0.68039   0.00000  Uiso   1.00
H549   H     0.06008   0.00503   0.77496   0.00000  Uiso   1.00
H550   H     0.09989   0.01735   0.81961   0.00000  Uiso   1.00
H551   H     0.33175   0.12901   0.67477   0.00000  Uiso   1.00
H552   H     0.32797   0.08224   0.71293   0.00000  Uiso   1.00
H553   H     0.00169   0.20443   0.82523   0.00000  Uiso   1.00
H554   H     0.00526   0.25112   0.78698   0.00000  Uiso   1.00
H555   H     0.13485   0.08808   0.88643   0.00000  Uiso   1.00
H556   H     0.21925   0.29127   0.95885   0.00000  Uiso   1.00
H557   H     0.11411   0.04206   0.54115   0.00000  Uiso   1.00
H558   H     0.26241   0.29707   0.55983   0.00000  Uiso   1.00
H559   H     0.22938   0.00156   0.52627   0.00000  Uiso   1.00
H560   H     0.07092   0.03623   0.94022   0.00000  Uiso   1.00
H561   H     0.10407   0.33175   0.97372   0.00000  Uiso   1.00
H562   H     0.27325   0.32829   0.72502   0.00000  Uiso   1.00
N563   N     0.31678   0.15265   0.73783   0.00000  Uiso   1.00
N564   N     0.01656   0.18068   0.76217   0.00000  Uiso   1.00
N565   N     0.22264   0.30380   0.54804   0.00000  Uiso   1.00
N566   N     0.11072   0.02953   0.95195   0.00000  Uiso   1.00
N567   N     0.23510   0.00317   0.71127   0.00000  Uiso   1.00
N568   N     0.09823   0.33016   0.78873   0.00000  Uiso   1.00
N569   N     0.01106   0.11981   0.70636   0.00000  Uiso   1.00
N570   N     0.32228   0.21353   0.79363   0.00000  Uiso   1.00
O571   O     0.12975   0.24619   0.75299   0.00000  Uiso   1.00
O572   O     0.20358   0.08714   0.74702   0.00000  Uiso   1.00
O573   O     0.22613   0.23721   0.74519   0.00000  Uiso   1.00
O574   O     0.10720   0.09613   0.75482   0.00000  Uiso   1.00
O575   O     0.11847   0.17117   0.81998   0.00000  Uiso   1.00
O576   O     0.21486   0.16216   0.68003   0.00000  Uiso   1.00
O577   O     0.21485   0.16219   0.81218   0.00000  Uiso   1.00
O578   O     0.11848   0.17115   0.68783   0.00000  Uiso   1.00
Zn579  Zn    0.10231   0.17266   0.75521   0.00000  Uiso   1.00
Zn580  Zn    0.23102   0.16067   0.74479   0.00000  Uiso   1.00
C581   C     0.51476   0.26461   0.74873   0.00000  Uiso   1.00
C582   C     0.52069   0.21133   0.90654   0.00000  Uiso   1.00
C583   C     0.49835   0.16670   0.61620   0.00000  Uiso   1.00
C584   C     0.50165   0.16663   0.88380   0.00000  Uiso   1.00
C585   C     0.51766   0.21144   0.59399   0.00000  Uiso   1.00
C586   C     0.48235   0.12189   0.90601   0.00000  Uiso   1.00
C587   C     0.51842   0.21232   0.54724   0.00000  Uiso   1.00
C588   C     0.48159   0.12101   0.95276   0.00000  Uiso   1.00
C589   C     0.49964   0.16681   0.52346   0.00000  Uiso   1.00
C590   C     0.50037   0.16652   0.97654   0.00000  Uiso   1.00
C591   C     0.48015   0.12154   0.54672   0.00000  Uiso   1.00
C592   C     0.48524   0.06872   0.75127   0.00000  Uiso   1.00
C593   C     0.51987   0.21179   0.95328   0.00000  Uiso   1.00
C594   C     0.53744   0.25745   0.52394   0.00000  Uiso   1.00
C595   C     0.46259   0.07588   0.97606   0.00000  Uiso   1.00
C596   C     0.53792   0.25670   0.97692   0.00000  Uiso   1.00
C597   C     0.46210   0.07663   0.52308   0.00000  Uiso   1.00
C598   C     0.52106   0.31808   0.74144   0.00000  Uiso   1.00
C599   C     0.47894   0.01525   0.75856   0.00000  Uiso   1.00
C600   C     0.50054   0.16678   0.83630   0.00000  Uiso   1.00
C601   C     0.49946   0.16655   0.66370   0.00000  Uiso   1.00
C602   C     0.47932   0.12200   0.59346   0.00000  Uiso   1.00
F603   F     0.46111   0.07909   0.61695   0.00000  Uiso   1.00
F604   F     0.53889   0.25424   0.88305   0.00000  Uiso   1.00
H605   H     0.53182   0.24525   0.61357   0.00000  Uiso   1.00
H606   H     0.56675   0.31599   0.68039   0.00000  Uiso   1.00
H607   H     0.39342   0.00503   0.77496   0.00000  Uiso   1.00
H608   H     0.43323   0.01735   0.81961   0.00000  Uiso   1.00
H609   H     0.66508   0.12901   0.67477   0.00000  Uiso   1.00
H610   H     0.66131   0.08224   0.71293   0.00000  Uiso   1.00
H611   H     0.33502   0.20443   0.82523   0.00000  Uiso   1.00
H612   H     0.33859   0.25112   0.78698   0.00000  Uiso   1.00
H613   H     0.46819   0.08808   0.88643   0.00000  Uiso   1.00
H614   H     0.55258   0.29127   0.95885   0.00000  Uiso   1.00
H615   H     0.44744   0.04206   0.54115   0.00000  Uiso   1.00
H616   H     0.59574   0.29707   0.55983   0.00000  Uiso   1.00
H617   H     0.56271   0.00156   0.52627   0.00000  Uiso   1.00
H618   H     0.40425   0.03623   0.94022   0.00000  Uiso   1.00
H619   H     0.43740   0.33175   0.97372   0.00000  Uiso   1.00
H620   H     0.60658   0.32829   0.72502   0.00000  Uiso   1.00
N621   N     0.65011   0.15265   0.73783   0.00000  Uiso   1.00
N622   N     0.34989   0.18068   0.76217   0.00000  Uiso   1.00
N623   N     0.55598   0.30380   0.54804   0.00000  Uiso   1.00
N624   N     0.44405   0.02953   0.95195   0.00000  Uiso   1.00
N625   N     0.56843   0.00317   0.71127   0.00000  Uiso   1.00
N626   N     0.43156   0.33016   0.78873   0.00000  Uiso   1.00
N627   N     0.34439   0.11981   0.70636   0.00000  Uiso   1.00
N628   N     0.65561   0.21353   0.79363   0.00000  Uiso   1.00
O629   O     0.46308   0.24619   0.75299   0.00000  Uiso   1.00
O630   O     0.53692   0.08714   0.74702   0.00000  Uiso   1.00
O631   O     0.55946   0.23721   0.74519   0.00000  Uiso   1.00
O632   O     0.44054   0.09613   0.75482   0.00000  Uiso   1.00
O633   O     0.45181   0.17117   0.81998   0.00000  Uiso   1.00
O634   O     0.54819   0.16216   0.68003   0.00000  Uiso   1.00
O635   O     0.54819   0.16219   0.81218   0.00000  Uiso   1.00
O636   O     0.45181   0.17115   0.68783   0.00000  Uiso   1.00
Zn637  Zn    0.43565   0.17266   0.75521   0.00000  Uiso   1.00
Zn638  Zn    0.56435   0.16067   0.74479   0.00000  Uiso   1.00
C639   C     0.84809   0.26461   0.74873   0.00000  Uiso   1.00
C640   C     0.85402   0.21133   0.90654   0.00000  Uiso   1.00
C641   C     0.83169   0.16670   0.61620   0.00000  Uiso   1.00
C642   C     0.83498   0.16663   0.88380   0.00000  Uiso   1.00
C643   C     0.85099   0.21144   0.59399   0.00000  Uiso   1.00
C644   C     0.81568   0.12189   0.90601   0.00000  Uiso   1.00
C645   C     0.85176   0.21232   0.54724   0.00000  Uiso   1.00
C646   C     0.81492   0.12101   0.95276   0.00000  Uiso   1.00
C647   C     0.83298   0.16681   0.52346   0.00000  Uiso   1.00
C648   C     0.83371   0.16652   0.97654   0.00000  Uiso   1.00
C649   C     0.81348   0.12154   0.54672   0.00000  Uiso   1.00
C650   C     0.81857   0.06872   0.75127   0.00000  Uiso   1.00
C651   C     0.85320   0.21179   0.95328   0.00000  Uiso   1.00
C652   C     0.87077   0.25745   0.52394   0.00000  Uiso   1.00
C653   C     0.79592   0.07588   0.97606   0.00000  Uiso   1.00
C654   C     0.87125   0.25670   0.97692   0.00000  Uiso   1.00
C655   C     0.79544   0.07663   0.52308   0.00000  Uiso   1.00
C656   C     0.85440   0.31808   0.74144   0.00000  Uiso   1.00
C657   C     0.81227   0.01525   0.75856   0.00000  Uiso   1.00
C658   C     0.83387   0.16678   0.83630   0.00000  Uiso   1.00
C659   C     0.83280   0.16655   0.66370   0.00000  Uiso   1.00
C660   C     0.81265   0.12200   0.59346   0.00000  Uiso   1.00
F661   F     0.79445   0.07909   0.61695   0.00000  Uiso   1.00
F662   F     0.87222   0.25424   0.88305   0.00000  Uiso   1.00
H663   H     0.86515   0.24525   0.61357   0.00000  Uiso   1.00
H664   H     0.90008   0.31599   0.68039   0.00000  Uiso   1.00
H665   H     0.72675   0.00503   0.77496   0.00000  Uiso   1.00
H666   H     0.76656   0.01735   0.81961   0.00000  Uiso   1.00
H667   H     0.99841   0.12901   0.67477   0.00000  Uiso   1.00
H668   H     0.99464   0.08224   0.71293   0.00000  Uiso   1.00
H669   H     0.66835   0.20443   0.82523   0.00000  Uiso   1.00
H670   H     0.67193   0.25112   0.78698   0.00000  Uiso   1.00
H671   H     0.80152   0.08808   0.88643   0.00000  Uiso   1.00
H672   H     0.88592   0.29127   0.95885   0.00000  Uiso   1.00
H673   H     0.78077   0.04206   0.54115   0.00000  Uiso   1.00
H674   H     0.92908   0.29707   0.55983   0.00000  Uiso   1.00
H675   H     0.89605   0.00156   0.52627   0.00000  Uiso   1.00
H676   H     0.73759   0.03623   0.94022   0.00000  Uiso   1.00
H677   H     0.77074   0.33175   0.97372   0.00000  Uiso   1.00
H678   H     0.93991   0.32829   0.72502   0.00000  Uiso   1.00
N679   N     0.98344   0.15265   0.73783   0.00000  Uiso   1.00
N680   N     0.68322   0.18068   0.76217   0.00000  Uiso   1.00
N681   N     0.88931   0.30380   0.54804   0.00000  Uiso   1.00
N682   N     0.77739   0.02953   0.95195   0.00000  Uiso   1.00
N683   N     0.90176   0.00317   0.71127   0.00000  Uiso   1.00
N684   N     0.76490   0.33016   0.78873   0.00000  Uiso   1.00
N685   N     0.67772   0.11981   0.70636   0.00000  Uiso   1.00
N686   N     0.98894   0.21353   0.79363   0.00000  Uiso   1.00
O687   O     0.79642   0.24619   0.75299   0.00000  Uiso   1.00
O688   O     0.87025   0.08714   0.74702   0.00000  Uiso   1.00
O689   O     0.89280   0.23721   0.74519   0.00000  Uiso   1.00
O690   O     0.77387   0.09613   0.75482   0.00000  Uiso   1.00
O691   O     0.78514   0.17117   0.81998   0.00000  Uiso   1.00
O692   O     0.88153   0.16216   0.68003   0.00000  Uiso   1.00
O693   O     0.88152   0.16219   0.81218   0.00000  Uiso   1.00
O694   O     0.78515   0.17115   0.68783   0.00000  Uiso   1.00
Zn695  Zn    0.76898   0.17266   0.75521   0.00000  Uiso   1.00
Zn696  Zn    0.89769   0.16067   0.74479   0.00000  Uiso   1.00
C697   C     0.18143   0.59794   0.74873   0.00000  Uiso   1.00
C698   C     0.18736   0.54467   0.90654   0.00000  Uiso   1.00
C699   C     0.16502   0.50004   0.61620   0.00000  Uiso   1.00
C700   C     0.16832   0.49996   0.88380   0.00000  Uiso   1.00
C701   C     0.18433   0.54477   0.59399   0.00000  Uiso   1.00
C702   C     0.14901   0.45522   0.90601   0.00000  Uiso   1.00
C703   C     0.18509   0.54565   0.54724   0.00000  Uiso   1.00
C704   C     0.14826   0.45435   0.95276   0.00000  Uiso   1.00
C705   C     0.16631   0.50014   0.52346   0.00000  Uiso   1.00
C706   C     0.16704   0.49985   0.97654   0.00000  Uiso   1.00
C707   C     0.14681   0.45487   0.54672   0.00000  Uiso   1.00
C708   C     0.15191   0.40206   0.75127   0.00000  Uiso   1.00
C709   C     0.18654   0.54513   0.95328   0.00000  Uiso   1.00
C710   C     0.20410   0.59078   0.52394   0.00000  Uiso   1.00
C711   C     0.12925   0.40921   0.97606   0.00000  Uiso   1.00
C712   C     0.20458   0.59003   0.97692   0.00000  Uiso   1.00
C713   C     0.12877   0.40996   0.52308   0.00000  Uiso   1.00
C714   C     0.18773   0.65142   0.74144   0.00000  Uiso   1.00
C715   C     0.14560   0.34858   0.75856   0.00000  Uiso   1.00
C716   C     0.16720   0.50011   0.83630   0.00000  Uiso   1.00
C717   C     0.16613   0.49989   0.66370   0.00000  Uiso   1.00
C718   C     0.14598   0.45533   0.59346   0.00000  Uiso   1.00
F719   F     0.12778   0.41242   0.61695   0.00000  Uiso   1.00
F720   F     0.20556   0.58758   0.88305   0.00000  Uiso   1.00
H721   H     0.19848   0.57858   0.61357   0.00000  Uiso   1.00
H722   H     0.23342   0.64932   0.68039   0.00000  Uiso   1.00
H723   H     0.06008   0.33837   0.77496   0.00000  Uiso   1.00
H724   H     0.09989   0.35069   0.81961   0.00000  Uiso   1.00
H725   H     0.33175   0.46234   0.67477   0.00000  Uiso   1.00
H726   H     0.32797   0.41558   0.71293   0.00000  Uiso   1.00
H727   H     0.00169   0.53777   0.82523   0.00000  Uiso   1.00
H728   H     0.00526   0.58446   0.78698   0.00000  Uiso   1.00
H729   H     0.13485   0.42142   0.88643   0.00000  Uiso   1.00
H730   H     0.21925   0.62460   0.95885   0.00000  Uiso   1.00
H731   H     0.11411   0.37539   0.54115   0.00000  Uiso   1.00
H732   H     0.26241   0.63040   0.55983   0.00000  Uiso   1.00
H733   H     0.22938   0.33489   0.52627   0.00000  Uiso   1.00
H734   H     0.07092   0.36956   0.94022   0.00000  Uiso   1.00
H735   H     0.10407   0.66508   0.97372   0.00000  Uiso   1.00
H736   H     0.27325   0.66162   0.72502   0.00000  Uiso   1.00
N737   N     0.31678   0.48598   0.73783   0.00000  Uiso   1.00
N738   N     0.01656   0.51402   0.76217   0.00000  Uiso   1.00
N739   N     0.22264   0.63713   0.54804   0.00000  Uiso   1.00
N740   N     0.11072   0.36286   0.95195   0.00000  Uiso   1.00
N741   N     0.23510   0.33650   0.71127   0.00000  Uiso   1.00
N742   N     0.09823   0.66350   0.78873   0.00000  Uiso   1.00
N743   N     0.01106   0.45315   0.70636   0.00000  Uiso   1.00
N744   N     0.32228   0.54687   0.79363   0.00000  Uiso   1.00
O745   O     0.12975   0.57952   0.75299   0.00000  Uiso   1.00
O746   O     0.20358   0.42048   0.74702   0.00000  Uiso   1.00
O747   O     0.22613   0.57054   0.74519   0.00000  Uiso   1.00
O748   O     0.10720   0.42946   0.75482   0.00000  Uiso   1.00
O749   O     0.11847   0.50450   0.81998   0.00000  Uiso   1.00
O750   O     0.21486   0.49550   0.68003   0.00000  Uiso   1.00
O751   O     0.21485   0.49552   0.81218   0.00000  Uiso   1.00
O752   O     0.11848   0.50448   0.68783   0.00000  Uiso   1.00
Zn753  Zn    0.10231   0.50600   0.75521   0.00000  Uiso   1.00
Zn754  Zn    0.23102   0.49400   0.74479   0.00000  Uiso   1.00
C755   C     0.51476   0.59794   0.74873   0.00000  Uiso   1.00
C756   C     0.52069   0.54467   0.90654   0.00000  Uiso   1.00
C757   C     0.49835   0.50004   0.61620   0.00000  Uiso   1.00
C758   C     0.50165   0.49996   0.88380   0.00000  Uiso   1.00
C759   C     0.51766   0.54477   0.59399   0.00000  Uiso   1.00
C760   C     0.48235   0.45522   0.90601   0.00000  Uiso   1.00
C761   C     0.51842   0.54565   0.54724   0.00000  Uiso   1.00
C762   C     0.48159   0.45435   0.95276   0.00000  Uiso   1.00
C763   C     0.49964   0.50014   0.52346   0.00000  Uiso   1.00
C764   C     0.50037   0.49985   0.97654   0.00000  Uiso   1.00
C765   C     0.48015   0.45487   0.54672   0.00000  Uiso   1.00
C766   C     0.48524   0.40206   0.75127   0.00000  Uiso   1.00
C767   C     0.51987   0.54513   0.95328   0.00000  Uiso   1.00
C768   C     0.53744   0.59078   0.52394   0.00000  Uiso   1.00
C769   C     0.46259   0.40921   0.97606   0.00000  Uiso   1.00
C770   C     0.53792   0.59003   0.97692   0.00000  Uiso   1.00
C771   C     0.46210   0.40996   0.52308   0.00000  Uiso   1.00
C772   C     0.52106   0.65142   0.74144   0.00000  Uiso   1.00
C773   C     0.47894   0.34858   0.75856   0.00000  Uiso   1.00
C774   C     0.50054   0.50011   0.83630   0.00000  Uiso   1.00
C775   C     0.49946   0.49989   0.66370   0.00000  Uiso   1.00
C776   C     0.47932   0.45533   0.59346   0.00000  Uiso   1.00
F777   F     0.46111   0.41242   0.61695   0.00000  Uiso   1.00
F778   F     0.53889   0.58758   0.88305   0.00000  Uiso   1.00
H779   H     0.53182   0.57858   0.61357   0.00000  Uiso   1.00
H780   H     0.56675   0.64932   0.68039   0.00000  Uiso   1.00
H781   H     0.39342   0.33837   0.77496   0.00000  Uiso   1.00
H782   H     0.43323   0.35069   0.81961   0.00000  Uiso   1.00
H783   H     0.66508   0.46234   0.67477   0.00000  Uiso   1.00
H784   H     0.66131   0.41558   0.71293   0.00000  Uiso   1.00
H785   H     0.33502   0.53777   0.82523   0.00000  Uiso   1.00
H786   H     0.33859   0.58446   0.78698   0.00000  Uiso   1.00
H787   H     0.46819   0.42142   0.88643   0.00000  Uiso   1.00
H788   H     0.55258   0.62460   0.95885   0.00000  Uiso   1.00
H789   H     0.44744   0.37539   0.54115   0.00000  Uiso   1.00
H790   H     0.59574   0.63040   0.55983   0.00000  Uiso   1.00
H791   H     0.56271   0.33489   0.52627   0.00000  Uiso   1.00
H792   H     0.40425   0.36956   0.94022   0.00000  Uiso   1.00
H793   H     0.43740   0.66508   0.97372   0.00000  Uiso   1.00
H794   H     0.60658   0.66162   0.72502   0.00000  Uiso   1.00
N795   N     0.65011   0.48598   0.73783   0.00000  Uiso   1.00
N796   N     0.34989   0.51402   0.76217   0.00000  Uiso   1.00
N797   N     0.55598   0.63713   0.54804   0.00000  Uiso   1.00
N798   N     0.44405   0.36286   0.95195   0.00000  Uiso   1.00
N799   N     0.56843   0.33650   0.71127   0.00000  Uiso   1.00
N800   N     0.43156   0.66350   0.78873   0.00000  Uiso   1.00
N801   N     0.34439   0.45315   0.70636   0.00000  Uiso   1.00
N802   N     0.65561   0.54687   0.79363   0.00000  Uiso   1.00
O803   O     0.46308   0.57952   0.75299   0.00000  Uiso   1.00
O804   O     0.53692   0.42048   0.74702   0.00000  Uiso   1.00
O805   O     0.55946   0.57054   0.74519   0.00000  Uiso   1.00
O806   O     0.44054   0.42946   0.75482   0.00000  Uiso   1.00
O807   O     0.45181   0.50450   0.81998   0.00000  Uiso   1.00
O808   O     0.54819   0.49550   0.68003   0.00000  Uiso   1.00
O809   O     0.54819   0.49552   0.81218   0.00000  Uiso   1.00
O810   O     0.45181   0.50448   0.68783   0.00000  Uiso   1.00
Zn811  Zn    0.43565   0.50600   0.75521   0.00000  Uiso   1.00
Zn812  Zn    0.56435   0.49400   0.74479   0.00000  Uiso   1.00
C813   C     0.84809   0.59794   0.74873   0.00000  Uiso   1.00
C814   C     0.85402   0.54467   0.90654   0.00000  Uiso   1.00
C815   C     0.83169   0.50004   0.61620   0.00000  Uiso   1.00
C816   C     0.83498   0.49996   0.88380   0.00000  Uiso   1.00
C817   C     0.85099   0.54477   0.59399   0.00000  Uiso   1.00
C818   C     0.81568   0.45522   0.90601   0.00000  Uiso   1.00
C819   C     0.85176   0.54565   0.54724   0.00000  Uiso   1.00
C820   C     0.81492   0.45435   0.95276   0.00000  Uiso   1.00
C821   C     0.83298   0.50014   0.52346   0.00000  Uiso   1.00
C822   C     0.83371   0.49985   0.97654   0.00000  Uiso   1.00
C823   C     0.81348   0.45487   0.54672   0.00000  Uiso   1.00
C824   C     0.81857   0.40206   0.75127   0.00000  Uiso   1.00
C825   C     0.85320   0.54513   0.95328   0.00000  Uiso   1.00
C826   C     0.87077   0.59078   0.52394   0.00000  Uiso   1.00
C827   C     0.79592   0.40921   0.97606   0.00000  Uiso   1.00
C828   C     0.87125   0.59003   0.97692   0.00000  Uiso   1.00
C829   C     0.79544   0.40996   0.52308   0.00000  Uiso   1.00
C830   C     0.85440   0.65142   0.74144   0.00000  Uiso   1.00
C831   C     0.81227   0.34858   0.75856   0.00000  Uiso   1.00
C832   C     0.83387   0.50011   0.83630   0.00000  Uiso   1.00
C833   C     0.83280   0.49989   0.66370   0.00000  Uiso   1.00
C834   C     0.81265   0.45533   0.59346   0.00000  Uiso   1.00
F835   F     0.79445   0.41242   0.61695   0.00000  Uiso   1.00
F836   F     0.87222   0.58758   0.88305   0.00000  Uiso   1.00
H837   H     0.86515   0.57858   0.61357   0.00000  Uiso   1.00
H838   H     0.90008   0.64932   0.68039   0.00000  Uiso   1.00
H839   H     0.72675   0.33837   0.77496   0.00000  Uiso   1.00
H840   H     0.76656   0.35069   0.81961   0.00000  Uiso   1.00
H841   H     0.99841   0.46234   0.67477   0.00000  Uiso   1.00
H842   H     0.99464   0.41558   0.71293   0.00000  Uiso   1.00
H843   H     0.66835   0.53777   0.82523   0.00000  Uiso   1.00
H844   H     0.67193   0.58446   0.78698   0.00000  Uiso   1.00
H845   H     0.80152   0.42142   0.88643   0.00000  Uiso   1.00
H846   H     0.88592   0.62460   0.95885   0.00000  Uiso   1.00
H847   H     0.78077   0.37539   0.54115   0.00000  Uiso   1.00
H848   H     0.92908   0.63040   0.55983   0.00000  Uiso   1.00
H849   H     0.89605   0.33489   0.52627   0.00000  Uiso   1.00
H850   H     0.73759   0.36956   0.94022   0.00000  Uiso   1.00
H851   H     0.77074   0.66508   0.97372   0.00000  Uiso   1.00
H852   H     0.93991   0.66162   0.72502   0.00000  Uiso   1.00
N853   N     0.98344   0.48598   0.73783   0.00000  Uiso   1.00
N854   N     0.68322   0.51402   0.76217   0.00000  Uiso   1.00
N855   N     0.88931   0.63713   0.54804   0.00000  Uiso   1.00
N856   N     0.77739   0.36286   0.95195   0.00000  Uiso   1.00
N857   N     0.90176   0.33650   0.71127   0.00000  Uiso   1.00
N858   N     0.76490   0.66350   0.78873   0.00000  Uiso   1.00
N859   N     0.67772   0.45315   0.70636   0.00000  Uiso   1.00
N860   N     0.98894   0.54687   0.79363   0.00000  Uiso   1.00
O861   O     0.79642   0.57952   0.75299   0.00000  Uiso   1.00
O862   O     0.87025   0.42048   0.74702   0.00000  Uiso   1.00
O863   O     0.89280   0.57054   0.74519   0.00000  Uiso   1.00
O864   O     0.77387   0.42946   0.75482   0.00000  Uiso   1.00
O865   O     0.78514   0.50450   0.81998   0.00000  Uiso   1.00
O866   O     0.88153   0.49550   0.68003   0.00000  Uiso   1.00
O867   O     0.88152   0.49552   0.81218   0.00000  Uiso   1.00
O868   O     0.78515   0.50448   0.68783   0.00000  Uiso   1.00
Zn869  Zn    0.76898   0.50600   0.75521   0.00000  Uiso   1.00
Zn870  Zn    0.89769   0.49400   0.74479   0.00000  Uiso   1.00
C871   C     0.18143   0.93128   0.74873   0.00000  Uiso   1.00
C872   C     0.18736   0.87800   0.90654   0.00000  Uiso   1.00
C873   C     0.16502   0.83337   0.61620   0.00000  Uiso   1.00
C874   C     0.16832   0.83330   0.88380   0.00000  Uiso   1.00
C875   C     0.18433   0.87811   0.59399   0.00000  Uiso   1.00
C876   C     0.14901   0.78856   0.90601   0.00000  Uiso   1.00
C877   C     0.18509   0.87898   0.54724   0.00000  Uiso   1.00
C878   C     0.14826   0.78768   0.95276   0.00000  Uiso   1.00
C879   C     0.16631   0.83348   0.52346   0.00000  Uiso   1.00
C880   C     0.16704   0.83318   0.97654   0.00000  Uiso   1.00
C881   C     0.14681   0.78820   0.54672   0.00000  Uiso   1.00
C882   C     0.15191   0.73539   0.75127   0.00000  Uiso   1.00
C883   C     0.18654   0.87846   0.95328   0.00000  Uiso   1.00
C884   C     0.20410   0.92412   0.52394   0.00000  Uiso   1.00
C885   C     0.12925   0.74255   0.97606   0.00000  Uiso   1.00
C886   C     0.20458   0.92337   0.97692   0.00000  Uiso   1.00
C887   C     0.12877   0.74329   0.52308   0.00000  Uiso   1.00
C888   C     0.18773   0.98475   0.74144   0.00000  Uiso   1.00
C889   C     0.14560   0.68192   0.75856   0.00000  Uiso   1.00
C890   C     0.16720   0.83345   0.83630   0.00000  Uiso   1.00
C891   C     0.16613   0.83322   0.66370   0.00000  Uiso   1.00
C892   C     0.14598   0.78866   0.59346   0.00000  Uiso   1.00
F893   F     0.12778   0.74576   0.61695   0.00000  Uiso   1.00
F894   F     0.20556   0.92091   0.88305   0.00000  Uiso   1.00
H895   H     0.19848   0.91192   0.61357   0.00000  Uiso   1.00
H896   H     0.23342   0.98266   0.68039   0.00000  Uiso   1.00
H897   H     0.06008   0.67170   0.77496   0.00000  Uiso   1.00
H898   H     0.09989   0.68402   0.81961   0.00000  Uiso   1.00
H899   H     0.33175   0.79567   0.67477   0.00000  Uiso   1.00
H900   H     0.32797   0.74891   0.71293   0.00000  Uiso   1.00
H901   H     0.00169   0.87110   0.82523   0.00000  Uiso   1.00
H902   H     0.00526   0.91779   0.78698   0.00000  Uiso   1.00
H903   H     0.13485   0.75475   0.88643   0.00000  Uiso   1.00
H904   H     0.21925   0.95794   0.95885   0.00000  Uiso   1.00
H905   H     0.11411   0.70872   0.54115   0.00000  Uiso   1.00
H906   H     0.26241   0.96373   0.55983   0.00000  Uiso   1.00
H907   H     0.22938   0.66822   0.52627   0.00000  Uiso   1.00
H908   H     0.07092   0.70290   0.94022   0.00000  Uiso   1.00
H909   H     0.10407   0.99842   0.97372   0.00000  Uiso   1.00
H910   H     0.27325   0.99496   0.72502   0.00000  Uiso   1.00
N911   N     0.31678   0.81932   0.73783   0.00000  Uiso   1.00
N912   N     0.01656   0.84735   0.76217   0.00000  Uiso   1.00
N913   N     0.22264   0.97046   0.54804   0.00000  Uiso   1.00
N914   N     0.11072   0.69620   0.95195   0.00000  Uiso   1.00
N915   N     0.23510   0.66984   0.71127   0.00000  Uiso   1.00
N916   N     0.09823   0.99683   0.78873   0.00000  Uiso   1.00
N917   N     0.01106   0.78648   0.70636   0.00000  Uiso   1.00
N918   N     0.32228   0.88020   0.79363   0.00000  Uiso   1.00
O919   O     0.12975   0.91286   0.75299   0.00000  Uiso   1.00
O920   O     0.20358   0.75381   0.74702   0.00000  Uiso   1.00
O921   O     0.22613   0.90387   0.74519   0.00000  Uiso   1.00
O922   O     0.10720   0.76279   0.75482   0.00000  Uiso   1.00
O923   O     0.11847   0.83784   0.81998   0.00000  Uiso   1.00
O924   O     0.21486   0.82883   0.68003   0.00000  Uiso   1.00
O925   O     0.21485   0.82885   0.81218   0.00000  Uiso   1.00
O926   O     0.11848   0.83781   0.68783   0.00000  Uiso   1.00
Zn927  Zn    0.10231   0.83933   0.75521   0.00000  Uiso   1.00
Zn928  Zn    0.23102   0.82734   0.74479   0.00000  Uiso   1.00
C929   C     0.51476   0.93128   0.74873   0.00000  Uiso   1.00
C930   C     0.52069   0.87800   0.90654   0.00000  Uiso   1.00
C931   C     0.49835   0.83337   0.61620   0.00000  Uiso   1.00
C932   C     0.50165   0.83330   0.88380   0.00000  Uiso   1.00
C933   C     0.51766   0.87811   0.59399   0.00000  Uiso   1.00
C934   C     0.48235   0.78856   0.90601   0.00000  Uiso   1.00
C935   C     0.51842   0.87898   0.54724   0.00000  Uiso   1.00
C936   C     0.48159   0.78768   0.95276   0.00000  Uiso   1.00
C937   C     0.49964   0.83348   0.52346   0.00000  Uiso   1.00
C938   C     0.50037   0.83318   0.97654   0.00000  Uiso   1.00
C939   C     0.48015   0.78820   0.54672   0.00000  Uiso   1.00
C940   C     0.48524   0.73539   0.75127   0.00000  Uiso   1.00
C941   C     0.51987   0.87846   0.95328   0.00000  Uiso   1.00
C942   C     0.53744   0.92412   0.52394   0.00000  Uiso   1.00
C943   C     0.46259   0.74255   0.97606   0.00000  Uiso   1.00
C944   C     0.53792   0.92337   0.97692   0.00000  Uiso   1.00
C945   C     0.46210   0.74329   0.52308   0.00000  Uiso   1.00
C946   C     0.52106   0.98475   0.74144   0.00000  Uiso   1.00
C947   C     0.47894   0.68192   0.75856   0.00000  Uiso   1.00
C948   C     0.50054   0.83345   0.83630   0.00000  Uiso   1.00
C949   C     0.49946   0.83322   0.66370   0.00000  Uiso   1.00
C950   C     0.47932   0.78866   0.59346   0.00000  Uiso   1.00
F951   F     0.46111   0.74576   0.61695   0.00000  Uiso   1.00
F952   F     0.53889   0.92091   0.88305   0.00000  Uiso   1.00
H953   H     0.53182   0.91192   0.61357   0.00000  Uiso   1.00
H954   H     0.56675   0.98266   0.68039   0.00000  Uiso   1.00
H955   H     0.39342   0.67170   0.77496   0.00000  Uiso   1.00
H956   H     0.43323   0.68402   0.81961   0.00000  Uiso   1.00
H957   H     0.66508   0.79567   0.67477   0.00000  Uiso   1.00
H958   H     0.66131   0.74891   0.71293   0.00000  Uiso   1.00
H959   H     0.33502   0.87110   0.82523   0.00000  Uiso   1.00
H960   H     0.33859   0.91779   0.78698   0.00000  Uiso   1.00
H961   H     0.46819   0.75475   0.88643   0.00000  Uiso   1.00
H962   H     0.55258   0.95794   0.95885   0.00000  Uiso   1.00
H963   H     0.44744   0.70872   0.54115   0.00000  Uiso   1.00
H964   H     0.59574   0.96373   0.55983   0.00000  Uiso   1.00
H965   H     0.56271   0.66822   0.52627   0.00000  Uiso   1.00
H966   H     0.40425   0.70290   0.94022   0.00000  Uiso   1.00
H967   H     0.43740   0.99842   0.97372   0.00000  Uiso   1.00
H968   H     0.60658   0.99496   0.72502   0.00000  Uiso   1.00
N969   N     0.65011   0.81932   0.73783   0.00000  Uiso   1.00
N970   N     0.34989   0.84735   0.76217   0.00000  Uiso   1.00
N971   N     0.55598   0.97046   0.54804   0.00000  Uiso   1.00
N972   N     0.44405   0.69620   0.95195   0.00000  Uiso   1.00
N973   N     0.56843   0.66984   0.71127   0.00000  Uiso   1.00
N974   N     0.43156   0.99683   0.78873   0.00000  Uiso   1.00
N975   N     0.34439   0.78648   0.70636   0.00000  Uiso   1.00
N976   N     0.65561   0.88020   0.79363   0.00000  Uiso   1.00
O977   O     0.46308   0.91286   0.75299   0.00000  Uiso   1.00
O978   O     0.53692   0.75381   0.74702   0.00000  Uiso   1.00
O979   O     0.55946   0.90387   0.74519   0.00000  Uiso   1.00
O980   O     0.44054   0.76279   0.75482   0.00000  Uiso   1.00
O981   O     0.45181   0.83784   0.81998   0.00000  Uiso   1.00
O982   O     0.54819   0.82883   0.68003   0.00000  Uiso   1.00
O983   O     0.54819   0.82885   0.81218   0.00000  Uiso   1.00
O984   O     0.45181   0.83781   0.68783   0.00000  Uiso   1.00
Zn985  Zn    0.43565   0.83933   0.75521   0.00000  Uiso   1.00
Zn986  Zn    0.56435   0.82734   0.74479   0.00000  Uiso   1.00
C987   C     0.84809   0.93128   0.74873   0.00000  Uiso   1.00
C988   C     0.85402   0.87800   0.90654   0.00000  Uiso   1.00
C989   C     0.83169   0.83337   0.61620   0.00000  Uiso   1.00
C990   C     0.83498   0.83330   0.88380   0.00000  Uiso   1.00
C991   C     0.85099   0.87811   0.59399   0.00000  Uiso   1.00
C992   C     0.81568   0.78856   0.90601   0.00000  Uiso   1.00
C993   C     0.85176   0.87898   0.54724   0.00000  Uiso   1.00
C994   C     0.81492   0.78768   0.95276   0.00000  Uiso   1.00
C995   C     0.83298   0.83348   0.52346   0.00000  Uiso   1.00
C996   C     0.83371   0.83318   0.97654   0.00000  Uiso   1.00
C997   C     0.81348   0.78820   0.54672   0.00000  Uiso   1.00
C998   C     0.81857   0.73539   0.75127   0.00000  Uiso   1.00
C999   C     0.85320   0.87846   0.95328   0.00000  Uiso   1.00
C1000  C     0.87077   0.92412   0.52394   0.00000  Uiso   1.00
C1001  C     0.79592   0.74255   0.97606   0.00000  Uiso   1.00
C1002  C     0.87125   0.92337   0.97692   0.00000  Uiso   1.00
C1003  C     0.79544   0.74329   0.52308   0.00000  Uiso   1.00
C1004  C     0.85440   0.98475   0.74144   0.00000  Uiso   1.00
C1005  C     0.81227   0.68192   0.75856   0.00000  Uiso   1.00
C1006  C     0.83387   0.83345   0.83630   0.00000  Uiso   1.00
C1007  C     0.83280   0.83322   0.66370   0.00000  Uiso   1.00
C1008  C     0.81265   0.78866   0.59346   0.00000  Uiso   1.00
F1009  F     0.79445   0.74576   0.61695   0.00000  Uiso   1.00
F1010  F     0.87222   0.92091   0.88305   0.00000  Uiso   1.00
H1011  H     0.86515   0.91192   0.61357   0.00000  Uiso   1.00
H1012  H     0.90008   0.98266   0.68039   0.00000  Uiso   1.00
H1013  H     0.72675   0.67170   0.77496   0.00000  Uiso   1.00
H1014  H     0.76656   0.68402   0.81961   0.00000  Uiso   1.00
H1015  H     0.99841   0.79567   0.67477   0.00000  Uiso   1.00
H1016  H     0.99464   0.74891   0.71293   0.00000  Uiso   1.00
H1017  H     0.66835   0.87110   0.82523   0.00000  Uiso   1.00
H1018  H     0.67193   0.91779   0.78698   0.00000  Uiso   1.00
H1019  H     0.80152   0.75475   0.88643   0.00000  Uiso   1.00
H1020  H     0.88592   0.95794   0.95885   0.00000  Uiso   1.00
H1021  H     0.78077   0.70872   0.54115   0.00000  Uiso   1.00
H1022  H     0.92908   0.96373   0.55983   0.00000  Uiso   1.00
H1023  H     0.89605   0.66822   0.52627   0.00000  Uiso   1.00
H1024  H     0.73759   0.70290   0.94022   0.00000  Uiso   1.00
H1025  H     0.77074   0.99842   0.97372   0.00000  Uiso   1.00
H1026  H     0.93991   0.99496   0.72502   0.00000  Uiso   1.00
N1027  N     0.98344   0.81932   0.73783   0.00000  Uiso   1.00
N1028  N     0.68322   0.84735   0.76217   0.00000  Uiso   1.00
N1029  N     0.88931   0.97046   0.54804   0.00000  Uiso   1.00
N1030  N     0.77739   0.69620   0.95195   0.00000  Uiso   1.00
N1031  N     0.90176   0.66984   0.71127   0.00000  Uiso   1.00
N1032  N     0.76490   0.99683   0.78873   0.00000  Uiso   1.00
N1033  N     0.67772   0.78648   0.70636   0.00000  Uiso   1.00
N1034  N     0.98894   0.88020   0.79363   0.00000  Uiso   1.00
O1035  O     0.79642   0.91286   0.75299   0.00000  Uiso   1.00
O1036  O     0.87025   0.75381   0.74702   0.00000  Uiso   1.00
O1037  O     0.89280   0.90387   0.74519   0.00000  Uiso   1.00
O1038  O     0.77387   0.76279   0.75482   0.00000  Uiso   1.00
O1039  O     0.78514   0.83784   0.81998   0.00000  Uiso   1.00
O1040  O     0.88153   0.82883   0.68003   0.00000  Uiso   1.00
O1041  O     0.88152   0.82885   0.81218   0.00000  Uiso   1.00
O1042  O     0.78515   0.83781   0.68783   0.00000  Uiso   1.00
Zn1043 Zn    0.76898   0.83933   0.75521   0.00000  Uiso   1.00
Zn1044 Zn    0.89769   0.82734   0.74479   0.00000  Uiso   1.00
loop_
_geom_bond_atom_site_label_1
_geom_bond_atom_site_label_2
_geom_bond_distance
_geom_bond_site_symmetry_2
_ccdc_geom_bond_type
C1     O51     1.289   .     A
C1     C18     1.403   .     S
C1     O49     1.277   .     A
C2     C4      1.389   .     A
C2     F24     1.361   .     S
C2     C13     1.387   .     A
C3     C5      1.388   .     A
C3     C21     1.414   .     S
C3     C22     1.389   .     A
C4     C20     1.414   .     S
C4     C6      1.388   .     A
C5     H25     1.085   .     S
C5     C7      1.388   .     A
C6     H33     1.085   .     S
C6     C8      1.388   .     A
C7     C9      1.419   .     A
C7     C14     1.410   .     A
C8     C10     1.419   .     A
C8     C15     1.410   .     A
C9     C11     1.415   .     A
C9     C532    1.392   1_554 S
C10    C13     1.415   .     A
C10    C531    1.392   .     S
C11    C22     1.387   .     A
C11    C17     1.399   .     A
C12    O50     1.277   .     A
C12    O52     1.289   .     A
C12    C19     1.403   .     S
C13    C16     1.399   .     A
C14    N43     1.439   .     S
C14    C538    1.395   1_554 S
C15    N44     1.439   .     S
C15    C539    1.395   .     S
C16    H34     1.084   .     S
C16    C536    1.395   .     S
C17    H35     1.084   .     S
C17    C537    1.395   1_554 S
C18    C193    1.351   .     S
C18    N219    1.443   .     S
C19    C366    1.351   1_545 S
C19    N394    1.443   1_545 S
C20    O55     1.287   .     A
C20    O53     1.287   .     A
C21    O56     1.287   .     A
C21    O54     1.287   .     A
C22    F23     1.361   .     S
H26    N219    1.046   .     S
H27    N394    1.046   1_545 S
H28    N394    1.046   1_545 S
H29    N105    1.044   .     S
H30    N105    1.044   .     S
H31    N164    1.045   1_455 S
H32    N164    1.044   1_455 S
H36    N43     1.046   .     S
H37    N391    1.046   1_545 S
H38    N44     1.046   .     S
H39    N218    1.046   .     S
H40    N219    1.046   .     S
N41    Zn58    2.025   .     S
N41    N100    1.282   .     S
N41    N105    1.385   .     S
N42    Zn57    2.025   .     S
N42    N157    1.282   1_455 S
N42    N164    1.385   1_455 S
N43    H211    1.046   .     S
N44    H387    1.046   1_545 S
N45    C366    1.443   1_545 S
N45    H374    1.046   1_545 S
N45    H388    1.046   1_545 S
N46    H202    1.046   .     S
N46    H201    1.046   .     S
N46    C193    1.443   .     S
N47    N157    1.385   1_455 S
N47    H146    1.044   1_455 S
N47    H145    1.044   1_455 S
N48    H89     1.045   .     S
N48    H90     1.044   .     S
N48    N100    1.385   .     S
O49    Zn57    1.974   .     S
O50    Zn58    1.974   .     S
O51    Zn58    1.984   .     S
O52    Zn57    1.984   .     S
O53    Zn57    1.992   .     S
O54    Zn58    1.992   .     S
O55    Zn58    2.007   .     S
O56    Zn57    2.007   .     S
C59    O109    1.289   .     A
C59    C76     1.403   .     S
C59    O107    1.277   .     A
C60    C62     1.389   .     A
C60    F82     1.361   .     S
C60    C71     1.387   .     A
C61    C63     1.388   .     A
C61    C79     1.414   .     S
C61    C80     1.389   .     A
C62    C78     1.414   .     S
C62    C64     1.388   .     A
C63    H83     1.085   .     S
C63    C65     1.388   .     A
C64    H91     1.085   .     S
C64    C66     1.388   .     A
C65    C67     1.419   .     A
C65    C72     1.410   .     A
C66    C68     1.419   .     A
C66    C73     1.410   .     A
C67    C69     1.415   .     A
C67    C590    1.392   1_554 S
C68    C71     1.415   .     A
C68    C589    1.392   .     S
C69    C80     1.387   .     A
C69    C75     1.399   .     A
C70    O108    1.277   .     A
C70    O110    1.289   .     A
C70    C77     1.403   .     S
C71    C74     1.399   .     A
C72    N101    1.439   .     S
C72    C596    1.395   1_554 S
C73    N102    1.439   .     S
C73    C597    1.395   .     S
C74    H92     1.084   .     S
C74    C594    1.395   .     S
C75    H93     1.084   .     S
C75    C595    1.395   1_554 S
C76    C251    1.351   .     S
C76    N277    1.443   .     S
C77    C424    1.351   1_545 S
C77    N452    1.443   1_545 S
C78    O113    1.287   .     A
C78    O111    1.287   .     A
C79    O114    1.287   .     A
C79    O112    1.287   .     A
C80    F81     1.361   .     S
H84    N277    1.046   .     S
H85    N452    1.046   1_545 S
H86    N452    1.046   1_545 S
H87    N163    1.044   .     S
H88    N163    1.044   .     S
H94    N101    1.046   .     S
H95    N449    1.046   1_545 S
H96    N102    1.046   .     S
H97    N276    1.046   .     S
H98    N277    1.046   .     S
N99    Zn116   2.025   .     S
N99    N158    1.282   .     S
N99    N163    1.385   .     S
N100   Zn115   2.025   .     S
N101   H269    1.046   .     S
N102   H445    1.046   1_545 S
N103   C424    1.443   1_545 S
N103   H432    1.046   1_545 S
N103   H446    1.046   1_545 S
N104   H260    1.046   .     S
N104   H259    1.046   .     S
N104   C251    1.443   .     S
N106   H147    1.045   .     S
N106   H148    1.044   .     S
N106   N158    1.385   .     S
O107   Zn115   1.974   .     S
O108   Zn116   1.974   .     S
O109   Zn116   1.984   .     S
O110   Zn115   1.984   .     S
O111   Zn115   1.992   .     S
O112   Zn116   1.992   .     S
O113   Zn116   2.007   .     S
O114   Zn115   2.007   .     S
C117   O167    1.289   .     A
C117   C134    1.403   .     S
C117   O165    1.277   .     A
C118   C120    1.389   .     A
C118   F140    1.361   .     S
C118   C129    1.387   .     A
C119   C121    1.388   .     A
C119   C137    1.414   .     S
C119   C138    1.389   .     A
C120   C136    1.414   .     S
C120   C122    1.388   .     A
C121   H141    1.085   .     S
C121   C123    1.388   .     A
C122   H149    1.085   .     S
C122   C124    1.388   .     A
C123   C125    1.419   .     A
C123   C130    1.410   .     A
C124   C126    1.419   .     A
C124   C131    1.410   .     A
C125   C127    1.415   .     A
C125   C648    1.392   1_554 S
C126   C129    1.415   .     A
C126   C647    1.392   .     S
C127   C138    1.387   .     A
C127   C133    1.399   .     A
C128   O166    1.277   .     A
C128   O168    1.289   .     A
C128   C135    1.403   .     S
C129   C132    1.399   .     A
C130   N159    1.439   .     S
C130   C654    1.395   1_554 S
C131   N160    1.439   .     S
C131   C655    1.395   .     S
C132   H150    1.084   .     S
C132   C652    1.395   .     S
C133   H151    1.084   .     S
C133   C653    1.395   1_554 S
C134   C309    1.351   .     S
C134   N335    1.443   .     S
C135   C482    1.351   1_545 S
C135   N510    1.443   1_545 S
C136   O171    1.287   .     A
C136   O169    1.287   .     A
C137   O172    1.287   .     A
C137   O170    1.287   .     A
C138   F139    1.361   .     S
H142   N335    1.046   .     S
H143   N510    1.046   1_545 S
H144   N510    1.046   1_545 S
H145   N47     1.044   1_655 S
H146   N47     1.044   1_655 S
H152   N159    1.046   .     S
H153   N507    1.046   1_545 S
H154   N160    1.046   .     S
H155   N334    1.046   .     S
H156   N335    1.046   .     S
N157   Zn174   2.025   .     S
N157   N42     1.282   1_655 S
N157   N47     1.385   1_655 S
N158   Zn173   2.025   .     S
N159   H327    1.046   .     S
N160   H503    1.046   1_545 S
N161   C482    1.443   1_545 S
N161   H490    1.046   1_545 S
N161   H504    1.046   1_545 S
N162   H318    1.046   .     S
N162   H317    1.046   .     S
N162   C309    1.443   .     S
N164   H31     1.045   1_655 S
N164   H32     1.044   1_655 S
N164   N42     1.385   1_655 S
O165   Zn173   1.974   .     S
O166   Zn174   1.974   .     S
O167   Zn174   1.984   .     S
O168   Zn173   1.984   .     S
O169   Zn173   1.992   .     S
O170   Zn174   1.992   .     S
O171   Zn174   2.007   .     S
O172   Zn173   2.007   .     S
C175   O225    1.289   .     A
C175   C192    1.403   .     S
C175   O223    1.277   .     A
C176   C178    1.389   .     A
C176   F198    1.361   .     S
C176   C187    1.387   .     A
C177   C179    1.388   .     A
C177   C195    1.414   .     S
C177   C196    1.389   .     A
C178   C194    1.414   .     S
C178   C180    1.388   .     A
C179   H199    1.085   .     S
C179   C181    1.388   .     A
C180   H207    1.085   .     S
C180   C182    1.388   .     A
C181   C183    1.419   .     A
C181   C188    1.410   .     A
C182   C184    1.419   .     A
C182   C189    1.410   .     A
C183   C185    1.415   .     A
C183   C706    1.392   1_554 S
C184   C187    1.415   .     A
C184   C705    1.392   .     S
C185   C196    1.387   .     A
C185   C191    1.399   .     A
C186   O224    1.277   .     A
C186   O226    1.289   .     A
C186   C193    1.403   .     S
C187   C190    1.399   .     A
C188   N217    1.439   .     S
C188   C712    1.395   1_554 S
C189   N218    1.439   .     S
C189   C713    1.395   .     S
C190   H208    1.084   .     S
C190   C710    1.395   .     S
C191   H209    1.084   .     S
C191   C711    1.395   1_554 S
C192   C367    1.351   .     S
C192   N393    1.443   .     S
C194   O229    1.287   .     A
C194   O227    1.287   .     A
C195   O230    1.287   .     A
C195   O228    1.287   .     A
C196   F197    1.361   .     S
H200   N393    1.046   .     S
H203   N279    1.044   .     S
H204   N279    1.044   .     S
H205   N338    1.045   1_455 S
H206   N338    1.044   1_455 S
H210   N217    1.046   .     S
H212   N218    1.046   .     S
H213   N392    1.046   .     S
H214   N393    1.046   .     S
N215   Zn232   2.025   .     S
N215   N274    1.282   .     S
N215   N279    1.385   .     S
N216   Zn231   2.025   .     S
N216   N331    1.282   1_455 S
N216   N338    1.385   1_455 S
N217   H385    1.046   .     S
N220   H376    1.046   .     S
N220   H375    1.046   .     S
N220   C367    1.443   .     S
N221   N331    1.385   1_455 S
N221   H320    1.044   1_455 S
N221   H319    1.044   1_455 S
N222   H263    1.045   .     S
N222   H264    1.044   .     S
N222   N274    1.385   .     S
O223   Zn231   1.974   .     S
O224   Zn232   1.974   .     S
O225   Zn232   1.984   .     S
O226   Zn231   1.984   .     S
O227   Zn231   1.992   .     S
O228   Zn232   1.992   .     S
O229   Zn232   2.007   .     S
O230   Zn231   2.007   .     S
C233   O283    1.289   .     A
C233   C250    1.403   .     S
C233   O281    1.277   .     A
C234   C236    1.389   .     A
C234   F256    1.361   .     S
C234   C245    1.387   .     A
C235   C237    1.388   .     A
C235   C253    1.414   .     S
C235   C254    1.389   .     A
C236   C252    1.414   .     S
C236   C238    1.388   .     A
C237   H257    1.085   .     S
C237   C239    1.388   .     A
C238   H265    1.085   .     S
C238   C240    1.388   .     A
C239   C241    1.419   .     A
C239   C246    1.410   .     A
C240   C242    1.419   .     A
C240   C247    1.410   .     A
C241   C243    1.415   .     A
C241   C764    1.392   1_554 S
C242   C245    1.415   .     A
C242   C763    1.392   .     S
C243   C254    1.387   .     A
C243   C249    1.399   .     A
C244   O282    1.277   .     A
C244   O284    1.289   .     A
C244   C251    1.403   .     S
C245   C248    1.399   .     A
C246   N275    1.439   .     S
C246   C770    1.395   1_554 S
C247   N276    1.439   .     S
C247   C771    1.395   .     S
C248   H266    1.084   .     S
C248   C768    1.395   .     S
C249   H267    1.084   .     S
C249   C769    1.395   1_554 S
C250   C425    1.351   .     S
C250   N451    1.443   .     S
C252   O287    1.287   .     A
C252   O285    1.287   .     A
C253   O288    1.287   .     A
C253   O286    1.287   .     A
C254   F255    1.361   .     S
H258   N451    1.046   .     S
H261   N337    1.044   .     S
H262   N337    1.044   .     S
H268   N275    1.046   .     S
H270   N276    1.046   .     S
H271   N450    1.046   .     S
H272   N451    1.046   .     S
N273   Zn290   2.025   .     S
N273   N332    1.282   .     S
N273   N337    1.385   .     S
N274   Zn289   2.025   .     S
N275   H443    1.046   .     S
N278   H434    1.046   .     S
N278   H433    1.046   .     S
N278   C425    1.443   .     S
N280   H321    1.045   .     S
N280   H322    1.044   .     S
N280   N332    1.385   .     S
O281   Zn289   1.974   .     S
O282   Zn290   1.974   .     S
O283   Zn290   1.984   .     S
O284   Zn289   1.984   .     S
O285   Zn289   1.992   .     S
O286   Zn290   1.992   .     S
O287   Zn290   2.007   .     S
O288   Zn289   2.007   .     S
C291   O341    1.289   .     A
C291   C308    1.403   .     S
C291   O339    1.277   .     A
C292   C294    1.389   .     A
C292   F314    1.361   .     S
C292   C303    1.387   .     A
C293   C295    1.388   .     A
C293   C311    1.414   .     S
C293   C312    1.389   .     A
C294   C310    1.414   .     S
C294   C296    1.388   .     A
C295   H315    1.085   .     S
C295   C297    1.388   .     A
C296   H323    1.085   .     S
C296   C298    1.388   .     A
C297   C299    1.419   .     A
C297   C304    1.410   .     A
C298   C300    1.419   .     A
C298   C305    1.410   .     A
C299   C301    1.415   .     A
C299   C822    1.392   1_554 S
C300   C303    1.415   .     A
C300   C821    1.392   .     S
C301   C312    1.387   .     A
C301   C307    1.399   .     A
C302   O340    1.277   .     A
C302   O342    1.289   .     A
C302   C309    1.403   .     S
C303   C306    1.399   .     A
C304   N333    1.439   .     S
C304   C828    1.395   1_554 S
C305   N334    1.439   .     S
C305   C829    1.395   .     S
C306   H324    1.084   .     S
C306   C826    1.395   .     S
C307   H325    1.084   .     S
C307   C827    1.395   1_554 S
C308   C483    1.351   .     S
C308   N509    1.443   .     S
C310   O345    1.287   .     A
C310   O343    1.287   .     A
C311   O346    1.287   .     A
C311   O344    1.287   .     A
C312   F313    1.361   .     S
H316   N509    1.046   .     S
H319   N221    1.044   1_655 S
H320   N221    1.044   1_655 S
H326   N333    1.046   .     S
H328   N334    1.046   .     S
H329   N508    1.046   .     S
H330   N509    1.046   .     S
N331   Zn348   2.025   .     S
N331   N216    1.282   1_655 S
N331   N221    1.385   1_655 S
N332   Zn347   2.025   .     S
N333   H501    1.046   .     S
N336   H492    1.046   .     S
N336   H491    1.046   .     S
N336   C483    1.443   .     S
N338   H205    1.045   1_655 S
N338   H206    1.044   1_655 S
N338   N216    1.385   1_655 S
O339   Zn347   1.974   .     S
O340   Zn348   1.974   .     S
O341   Zn348   1.984   .     S
O342   Zn347   1.984   .     S
O343   Zn347   1.992   .     S
O344   Zn348   1.992   .     S
O345   Zn348   2.007   .     S
O346   Zn347   2.007   .     S
C349   O399    1.289   .     A
C349   C366    1.403   .     S
C349   O397    1.277   .     A
C350   C352    1.389   .     A
C350   F372    1.361   .     S
C350   C361    1.387   .     A
C351   C353    1.388   .     A
C351   C369    1.414   .     S
C351   C370    1.389   .     A
C352   C368    1.414   .     S
C352   C354    1.388   .     A
C353   H373    1.085   .     S
C353   C355    1.388   .     A
C354   H381    1.085   .     S
C354   C356    1.388   .     A
C355   C357    1.419   .     A
C355   C362    1.410   .     A
C356   C358    1.419   .     A
C356   C363    1.410   .     A
C357   C359    1.415   .     A
C357   C880    1.392   1_554 S
C358   C361    1.415   .     A
C358   C879    1.392   .     S
C359   C370    1.387   .     A
C359   C365    1.399   .     A
C360   O398    1.277   .     A
C360   O400    1.289   .     A
C360   C367    1.403   .     S
C361   C364    1.399   .     A
C362   N391    1.439   .     S
C362   C886    1.395   1_554 S
C363   N392    1.439   .     S
C363   C887    1.395   .     S
C364   H382    1.084   .     S
C364   C884    1.395   .     S
C365   H383    1.084   .     S
C365   C885    1.395   1_554 S
C366   C19     1.351   1_565 S
C366   N45     1.443   1_565 S
C368   O403    1.287   .     A
C368   O401    1.287   .     A
C369   O404    1.287   .     A
C369   O402    1.287   .     A
C370   F371    1.361   .     S
H374   N45     1.046   1_565 S
H377   N453    1.044   .     S
H378   N453    1.044   .     S
H379   N512    1.045   1_455 S
H380   N512    1.044   1_455 S
H384   N391    1.046   .     S
H386   N392    1.046   .     S
H387   N44     1.046   1_565 S
H388   N45     1.046   1_565 S
N389   Zn406   2.025   .     S
N389   N448    1.282   .     S
N389   N453    1.385   .     S
N390   Zn405   2.025   .     S
N390   N505    1.282   1_455 S
N390   N512    1.385   1_455 S
N391   H37     1.046   1_565 S
N394   H28     1.046   1_565 S
N394   H27     1.046   1_565 S
N394   C19     1.443   1_565 S
N395   N505    1.385   1_455 S
N395   H494    1.044   1_455 S
N395   H493    1.044   1_455 S
N396   H437    1.045   .     S
N396   H438    1.044   .     S
N396   N448    1.385   .     S
O397   Zn405   1.974   .     S
O398   Zn406   1.974   .     S
O399   Zn406   1.984   .     S
O400   Zn405   1.984   .     S
O401   Zn405   1.992   .     S
O402   Zn406   1.992   .     S
O403   Zn406   2.007   .     S
O404   Zn405   2.007   .     S
C407   O457    1.289   .     A
C407   C424    1.403   .     S
C407   O455    1.277   .     A
C408   C410    1.389   .     A
C408   F430    1.361   .     S
C408   C419    1.387   .     A
C409   C411    1.388   .     A
C409   C427    1.414   .     S
C409   C428    1.389   .     A
C410   C426    1.414   .     S
C410   C412    1.388   .     A
C411   H431    1.085   .     S
C411   C413    1.388   .     A
C412   H439    1.085   .     S
C412   C414    1.388   .     A
C413   C415    1.419   .     A
C413   C420    1.410   .     A
C414   C416    1.419   .     A
C414   C421    1.410   .     A
C415   C417    1.415   .     A
C415   C938    1.392   1_554 S
C416   C419    1.415   .     A
C416   C937    1.392   .     S
C417   C428    1.387   .     A
C417   C423    1.399   .     A
C418   O456    1.277   .     A
C418   O458    1.289   .     A
C418   C425    1.403   .     S
C419   C422    1.399   .     A
C420   N449    1.439   .     S
C420   C944    1.395   1_554 S
C421   N450    1.439   .     S
C421   C945    1.395   .     S
C422   H440    1.084   .     S
C422   C942    1.395   .     S
C423   H441    1.084   .     S
C423   C943    1.395   1_554 S
C424   C77     1.351   1_565 S
C424   N103    1.443   1_565 S
C426   O461    1.287   .     A
C426   O459    1.287   .     A
C427   O462    1.287   .     A
C427   O460    1.287   .     A
C428   F429    1.361   .     S
H432   N103    1.046   1_565 S
H435   N511    1.044   .     S
H436   N511    1.044   .     S
H442   N449    1.046   .     S
H444   N450    1.046   .     S
H445   N102    1.046   1_565 S
H446   N103    1.046   1_565 S
N447   Zn464   2.025   .     S
N447   N506    1.282   .     S
N447   N511    1.385   .     S
N448   Zn463   2.025   .     S
N449   H95     1.046   1_565 S
N452   H86     1.046   1_565 S
N452   H85     1.046   1_565 S
N452   C77     1.443   1_565 S
N454   H495    1.045   .     S
N454   H496    1.044   .     S
N454   N506    1.385   .     S
O455   Zn463   1.974   .     S
O456   Zn464   1.974   .     S
O457   Zn464   1.984   .     S
O458   Zn463   1.984   .     S
O459   Zn463   1.992   .     S
O460   Zn464   1.992   .     S
O461   Zn464   2.007   .     S
O462   Zn463   2.007   .     S
C465   O515    1.289   .     A
C465   C482    1.403   .     S
C465   O513    1.277   .     A
C466   C468    1.389   .     A
C466   F488    1.361   .     S
C466   C477    1.387   .     A
C467   C469    1.388   .     A
C467   C485    1.414   .     S
C467   C486    1.389   .     A
C468   C484    1.414   .     S
C468   C470    1.388   .     A
C469   H489    1.085   .     S
C469   C471    1.388   .     A
C470   H497    1.085   .     S
C470   C472    1.388   .     A
C471   C473    1.419   .     A
C471   C478    1.410   .     A
C472   C474    1.419   .     A
C472   C479    1.410   .     A
C473   C475    1.415   .     A
C473   C996    1.392   1_554 S
C474   C477    1.415   .     A
C474   C995    1.392   .     S
C475   C486    1.387   .     A
C475   C481    1.399   .     A
C476   O514    1.277   .     A
C476   O516    1.289   .     A
C476   C483    1.403   .     S
C477   C480    1.399   .     A
C478   N507    1.439   .     S
C478   C1002   1.395   1_554 S
C479   N508    1.439   .     S
C479   C1003   1.395   .     S
C480   H498    1.084   .     S
C480   C1000   1.395   .     S
C481   H499    1.084   .     S
C481   C1001   1.395   1_554 S
C482   C135    1.351   1_565 S
C482   N161    1.443   1_565 S
C484   O519    1.287   .     A
C484   O517    1.287   .     A
C485   O520    1.287   .     A
C485   O518    1.287   .     A
C486   F487    1.361   .     S
H490   N161    1.046   1_565 S
H493   N395    1.044   1_655 S
H494   N395    1.044   1_655 S
H500   N507    1.046   .     S
H502   N508    1.046   .     S
H503   N160    1.046   1_565 S
H504   N161    1.046   1_565 S
N505   Zn522   2.025   .     S
N505   N390    1.282   1_655 S
N505   N395    1.385   1_655 S
N506   Zn521   2.025   .     S
N507   H153    1.046   1_565 S
N510   H144    1.046   1_565 S
N510   H143    1.046   1_565 S
N510   C135    1.443   1_565 S
N512   H379    1.045   1_655 S
N512   H380    1.044   1_655 S
N512   N390    1.385   1_655 S
O513   Zn521   1.974   .     S
O514   Zn522   1.974   .     S
O515   Zn522   1.984   .     S
O516   Zn521   1.984   .     S
O517   Zn521   1.992   .     S
O518   Zn522   1.992   .     S
O519   Zn522   2.007   .     S
O520   Zn521   2.007   .     S
C523   O573    1.289   .     A
C523   C540    1.403   .     S
C523   O571    1.277   .     A
C524   C526    1.389   .     A
C524   F546    1.361   .     S
C524   C535    1.387   .     A
C525   C527    1.388   .     A
C525   C543    1.414   .     S
C525   C544    1.389   .     A
C526   C542    1.414   .     S
C526   C528    1.388   .     A
C527   H547    1.085   .     S
C527   C529    1.388   .     A
C528   H555    1.085   .     S
C528   C530    1.388   .     A
C529   C531    1.419   .     A
C529   C536    1.410   .     A
C530   C532    1.419   .     A
C530   C537    1.410   .     A
C531   C533    1.415   .     A
C532   C535    1.415   .     A
C532   C9      1.392   1_556 S
C533   C544    1.387   .     A
C533   C539    1.399   .     A
C534   O572    1.277   .     A
C534   O574    1.289   .     A
C534   C541    1.403   .     S
C535   C538    1.399   .     A
C536   N565    1.439   .     S
C537   N566    1.439   .     S
C537   C17     1.395   1_556 S
C538   H556    1.084   .     S
C538   C14     1.395   1_556 S
C539   H557    1.084   .     S
C540   C715    1.351   .     S
C540   N741    1.443   .     S
C541   C888    1.351   1_545 S
C541   N916    1.443   1_545 S
C542   O577    1.287   .     A
C542   O575    1.287   .     A
C543   O578    1.287   .     A
C543   O576    1.287   .     A
C544   F545    1.361   .     S
H548   N741    1.046   .     S
H549   N916    1.046   1_545 S
H550   N916    1.046   1_545 S
H551   N627    1.044   .     S
H552   N627    1.044   .     S
H553   N686    1.045   1_455 S
H554   N686    1.044   1_455 S
H558   N565    1.046   .     S
H559   N913    1.046   1_545 S
H560   N566    1.046   .     S
H561   N740    1.046   .     S
H562   N741    1.046   .     S
N563   Zn580   2.025   .     S
N563   N622    1.282   .     S
N563   N627    1.385   .     S
N564   Zn579   2.025   .     S
N564   N679    1.282   1_455 S
N564   N686    1.385   1_455 S
N565   H733    1.046   .     S
N566   H909    1.046   1_545 S
N567   C888    1.443   1_545 S
N567   H896    1.046   1_545 S
N567   H910    1.046   1_545 S
N568   H724    1.046   .     S
N568   H723    1.046   .     S
N568   C715    1.443   .     S
N569   N679    1.385   1_455 S
N569   H668    1.044   1_455 S
N569   H667    1.044   1_455 S
N570   H611    1.045   .     S
N570   H612    1.044   .     S
N570   N622    1.385   .     S
O571   Zn579   1.974   .     S
O572   Zn580   1.974   .     S
O573   Zn580   1.984   .     S
O574   Zn579   1.984   .     S
O575   Zn579   1.992   .     S
O576   Zn580   1.992   .     S
O577   Zn580   2.007   .     S
O578   Zn579   2.007   .     S
C581   O631    1.289   .     A
C581   C598    1.403   .     S
C581   O629    1.277   .     A
C582   C584    1.389   .     A
C582   F604    1.361   .     S
C582   C593    1.387   .     A
C583   C585    1.388   .     A
C583   C601    1.414   .     S
C583   C602    1.389   .     A
C584   C600    1.414   .     S
C584   C586    1.388   .     A
C585   H605    1.085   .     S
C585   C587    1.388   .     A
C586   H613    1.085   .     S
C586   C588    1.388   .     A
C587   C589    1.419   .     A
C587   C594    1.410   .     A
C588   C590    1.419   .     A
C588   C595    1.410   .     A
C589   C591    1.415   .     A
C590   C593    1.415   .     A
C590   C67     1.392   1_556 S
C591   C602    1.387   .     A
C591   C597    1.399   .     A
C592   O630    1.277   .     A
C592   O632    1.289   .     A
C592   C599    1.403   .     S
C593   C596    1.399   .     A
C594   N623    1.439   .     S
C595   N624    1.439   .     S
C595   C75     1.395   1_556 S
C596   H614    1.084   .     S
C596   C72     1.395   1_556 S
C597   H615    1.084   .     S
C598   C773    1.351   .     S
C598   N799    1.443   .     S
C599   C946    1.351   1_545 S
C599   N974    1.443   1_545 S
C600   O635    1.287   .     A
C600   O633    1.287   .     A
C601   O636    1.287   .     A
C601   O634    1.287   .     A
C602   F603    1.361   .     S
H606   N799    1.046   .     S
H607   N974    1.046   1_545 S
H608   N974    1.046   1_545 S
H609   N685    1.044   .     S
H610   N685    1.044   .     S
H616   N623    1.046   .     S
H617   N971    1.046   1_545 S
H618   N624    1.046   .     S
H619   N798    1.046   .     S
H620   N799    1.046   .     S
N621   Zn638   2.025   .     S
N621   N680    1.282   .     S
N621   N685    1.385   .     S
N622   Zn637   2.025   .     S
N623   H791    1.046   .     S
N624   H967    1.046   1_545 S
N625   C946    1.443   1_545 S
N625   H954    1.046   1_545 S
N625   H968    1.046   1_545 S
N626   H782    1.046   .     S
N626   H781    1.046   .     S
N626   C773    1.443   .     S
N628   H669    1.045   .     S
N628   H670    1.044   .     S
N628   N680    1.385   .     S
O629   Zn637   1.974   .     S
O630   Zn638   1.974   .     S
O631   Zn638   1.984   .     S
O632   Zn637   1.984   .     S
O633   Zn637   1.992   .     S
O634   Zn638   1.992   .     S
O635   Zn638   2.007   .     S
O636   Zn637   2.007   .     S
C639   O689    1.289   .     A
C639   C656    1.403   .     S
C639   O687    1.277   .     A
C640   C642    1.389   .     A
C640   F662    1.361   .     S
C640   C651    1.387   .     A
C641   C643    1.388   .     A
C641   C659    1.414   .     S
C641   C660    1.389   .     A
C642   C658    1.414   .     S
C642   C644    1.388   .     A
C643   H663    1.085   .     S
C643   C645    1.388   .     A
C644   H671    1.085   .     S
C644   C646    1.388   .     A
C645   C647    1.419   .     A
C645   C652    1.410   .     A
C646   C648    1.419   .     A
C646   C653    1.410   .     A
C647   C649    1.415   .     A
C648   C651    1.415   .     A
C648   C125    1.392   1_556 S
C649   C660    1.387   .     A
C649   C655    1.399   .     A
C650   O688    1.277   .     A
C650   O690    1.289   .     A
C650   C657    1.403   .     S
C651   C654    1.399   .     A
C652   N681    1.439   .     S
C653   N682    1.439   .     S
C653   C133    1.395   1_556 S
C654   H672    1.084   .     S
C654   C130    1.395   1_556 S
C655   H673    1.084   .     S
C656   C831    1.351   .     S
C656   N857    1.443   .     S
C657   C1004   1.351   1_545 S
C657   N1032   1.443   1_545 S
C658   O693    1.287   .     A
C658   O691    1.287   .     A
C659   O694    1.287   .     A
C659   O692    1.287   .     A
C660   F661    1.361   .     S
H664   N857    1.046   .     S
H665   N1032   1.046   1_545 S
H666   N1032   1.046   1_545 S
H667   N569    1.044   1_655 S
H668   N569    1.044   1_655 S
H674   N681    1.046   .     S
H675   N1029   1.046   1_545 S
H676   N682    1.046   .     S
H677   N856    1.046   .     S
H678   N857    1.046   .     S
N679   Zn696   2.025   .     S
N679   N564    1.282   1_655 S
N679   N569    1.385   1_655 S
N680   Zn695   2.025   .     S
N681   H849    1.046   .     S
N682   H1025   1.046   1_545 S
N683   C1004   1.443   1_545 S
N683   H1012   1.046   1_545 S
N683   H1026   1.046   1_545 S
N684   H840    1.046   .     S
N684   H839    1.046   .     S
N684   C831    1.443   .     S
N686   H553    1.045   1_655 S
N686   H554    1.044   1_655 S
N686   N564    1.385   1_655 S
O687   Zn695   1.974   .     S
O688   Zn696   1.974   .     S
O689   Zn696   1.984   .     S
O690   Zn695   1.984   .     S
O691   Zn695   1.992   .     S
O692   Zn696   1.992   .     S
O693   Zn696   2.007   .     S
O694   Zn695   2.007   .     S
C697   O747    1.289   .     A
C697   C714    1.403   .     S
C697   O745    1.277   .     A
C698   C700    1.389   .     A
C698   F720    1.361   .     S
C698   C709    1.387   .     A
C699   C701    1.388   .     A
C699   C717    1.414   .     S
C699   C718    1.389   .     A
C700   C716    1.414   .     S
C700   C702    1.388   .     A
C701   H721    1.085   .     S
C701   C703    1.388   .     A
C702   H729    1.085   .     S
C702   C704    1.388   .     A
C703   C705    1.419   .     A
C703   C710    1.410   .     A
C704   C706    1.419   .     A
C704   C711    1.410   .     A
C705   C707    1.415   .     A
C706   C709    1.415   .     A
C706   C183    1.392   1_556 S
C707   C718    1.387   .     A
C707   C713    1.399   .     A
C708   O746    1.277   .     A
C708   O748    1.289   .     A
C708   C715    1.403   .     S
C709   C712    1.399   .     A
C710   N739    1.439   .     S
C711   N740    1.439   .     S
C711   C191    1.395   1_556 S
C712   H730    1.084   .     S
C712   C188    1.395   1_556 S
C713   H731    1.084   .     S
C714   C889    1.351   .     S
C714   N915    1.443   .     S
C716   O751    1.287   .     A
C716   O749    1.287   .     A
C717   O752    1.287   .     A
C717   O750    1.287   .     A
C718   F719    1.361   .     S
H722   N915    1.046   .     S
H725   N801    1.044   .     S
H726   N801    1.044   .     S
H727   N860    1.045   1_455 S
H728   N860    1.044   1_455 S
H732   N739    1.046   .     S
H734   N740    1.046   .     S
H735   N914    1.046   .     S
H736   N915    1.046   .     S
N737   Zn754   2.025   .     S
N737   N796    1.282   .     S
N737   N801    1.385   .     S
N738   Zn753   2.025   .     S
N738   N853    1.282   1_455 S
N738   N860    1.385   1_455 S
N739   H907    1.046   .     S
N742   H898    1.046   .     S
N742   H897    1.046   .     S
N742   C889    1.443   .     S
N743   N853    1.385   1_455 S
N743   H842    1.044   1_455 S
N743   H841    1.044   1_455 S
N744   H785    1.045   .     S
N744   H786    1.044   .     S
N744   N796    1.385   .     S
O745   Zn753   1.974   .     S
O746   Zn754   1.974   .     S
O747   Zn754   1.984   .     S
O748   Zn753   1.984   .     S
O749   Zn753   1.992   .     S
O750   Zn754   1.992   .     S
O751   Zn754   2.007   .     S
O752   Zn753   2.007   .     S
C755   O805    1.289   .     A
C755   C772    1.403   .     S
C755   O803    1.277   .     A
C756   C758    1.389   .     A
C756   F778    1.361   .     S
C756   C767    1.387   .     A
C757   C759    1.388   .     A
C757   C775    1.414   .     S
C757   C776    1.389   .     A
C758   C774    1.414   .     S
C758   C760    1.388   .     A
C759   H779    1.085   .     S
C759   C761    1.388   .     A
C760   H787    1.085   .     S
C760   C762    1.388   .     A
C761   C763    1.419   .     A
C761   C768    1.410   .     A
C762   C764    1.419   .     A
C762   C769    1.410   .     A
C763   C765    1.415   .     A
C764   C767    1.415   .     A
C764   C241    1.392   1_556 S
C765   C776    1.387   .     A
C765   C771    1.399   .     A
C766   O804    1.277   .     A
C766   O806    1.289   .     A
C766   C773    1.403   .     S
C767   C770    1.399   .     A
C768   N797    1.439   .     S
C769   N798    1.439   .     S
C769   C249    1.395   1_556 S
C770   H788    1.084   .     S
C770   C246    1.395   1_556 S
C771   H789    1.084   .     S
C772   C947    1.351   .     S
C772   N973    1.443   .     S
C774   O809    1.287   .     A
C774   O807    1.287   .     A
C775   O810    1.287   .     A
C775   O808    1.287   .     A
C776   F777    1.361   .     S
H780   N973    1.046   .     S
H783   N859    1.044   .     S
H784   N859    1.044   .     S
H790   N797    1.046   .     S
H792   N798    1.046   .     S
H793   N972    1.046   .     S
H794   N973    1.046   .     S
N795   Zn812   2.025   .     S
N795   N854    1.282   .     S
N795   N859    1.385   .     S
N796   Zn811   2.025   .     S
N797   H965    1.046   .     S
N800   H956    1.046   .     S
N800   H955    1.046   .     S
N800   C947    1.443   .     S
N802   H843    1.045   .     S
N802   H844    1.044   .     S
N802   N854    1.385   .     S
O803   Zn811   1.974   .     S
O804   Zn812   1.974   .     S
O805   Zn812   1.984   .     S
O806   Zn811   1.984   .     S
O807   Zn811   1.992   .     S
O808   Zn812   1.992   .     S
O809   Zn812   2.007   .     S
O810   Zn811   2.007   .     S
C813   O863    1.289   .     A
C813   C830    1.403   .     S
C813   O861    1.277   .     A
C814   C816    1.389   .     A
C814   F836    1.361   .     S
C814   C825    1.387   .     A
C815   C817    1.388   .     A
C815   C833    1.414   .     S
C815   C834    1.389   .     A
C816   C832    1.414   .     S
C816   C818    1.388   .     A
C817   H837    1.085   .     S
C817   C819    1.388   .     A
C818   H845    1.085   .     S
C818   C820    1.388   .     A
C819   C821    1.419   .     A
C819   C826    1.410   .     A
C820   C822    1.419   .     A
C820   C827    1.410   .     A
C821   C823    1.415   .     A
C822   C825    1.415   .     A
C822   C299    1.392   1_556 S
C823   C834    1.387   .     A
C823   C829    1.399   .     A
C824   O862    1.277   .     A
C824   O864    1.289   .     A
C824   C831    1.403   .     S
C825   C828    1.399   .     A
C826   N855    1.439   .     S
C827   N856    1.439   .     S
C827   C307    1.395   1_556 S
C828   H846    1.084   .     S
C828   C304    1.395   1_556 S
C829   H847    1.084   .     S
C830   C1005   1.351   .     S
C830   N1031   1.443   .     S
C832   O867    1.287   .     A
C832   O865    1.287   .     A
C833   O868    1.287   .     A
C833   O866    1.287   .     A
C834   F835    1.361   .     S
H838   N1031   1.046   .     S
H841   N743    1.044   1_655 S
H842   N743    1.044   1_655 S
H848   N855    1.046   .     S
H850   N856    1.046   .     S
H851   N1030   1.046   .     S
H852   N1031   1.046   .     S
N853   Zn870   2.025   .     S
N853   N738    1.282   1_655 S
N853   N743    1.385   1_655 S
N854   Zn869   2.025   .     S
N855   H1023   1.046   .     S
N858   H1014   1.046   .     S
N858   H1013   1.046   .     S
N858   C1005   1.443   .     S
N860   H727    1.045   1_655 S
N860   H728    1.044   1_655 S
N860   N738    1.385   1_655 S
O861   Zn869   1.974   .     S
O862   Zn870   1.974   .     S
O863   Zn870   1.984   .     S
O864   Zn869   1.984   .     S
O865   Zn869   1.992   .     S
O866   Zn870   1.992   .     S
O867   Zn870   2.007   .     S
O868   Zn869   2.007   .     S
C871   O921    1.289   .     A
C871   C888    1.403   .     S
C871   O919    1.277   .     A
C872   C874    1.389   .     A
C872   F894    1.361   .     S
C872   C883    1.387   .     A
C873   C875    1.388   .     A
C873   C891    1.414   .     S
C873   C892    1.389   .     A
C874   C890    1.414   .     S
C874   C876    1.388   .     A
C875   H895    1.085   .     S
C875   C877    1.388   .     A
C876   H903    1.085   .     S
C876   C878    1.388   .     A
C877   C879    1.419   .     A
C877   C884    1.410   .     A
C878   C880    1.419   .     A
C878   C885    1.410   .     A
C879   C881    1.415   .     A
C880   C883    1.415   .     A
C880   C357    1.392   1_556 S
C881   C892    1.387   .     A
C881   C887    1.399   .     A
C882   O920    1.277   .     A
C882   O922    1.289   .     A
C882   C889    1.403   .     S
C883   C886    1.399   .     A
C884   N913    1.439   .     S
C885   N914    1.439   .     S
C885   C365    1.395   1_556 S
C886   H904    1.084   .     S
C886   C362    1.395   1_556 S
C887   H905    1.084   .     S
C888   C541    1.351   1_565 S
C888   N567    1.443   1_565 S
C890   O925    1.287   .     A
C890   O923    1.287   .     A
C891   O926    1.287   .     A
C891   O924    1.287   .     A
C892   F893    1.361   .     S
H896   N567    1.046   1_565 S
H899   N975    1.044   .     S
H900   N975    1.044   .     S
H901   N1034   1.045   1_455 S
H902   N1034   1.044   1_455 S
H906   N913    1.046   .     S
H908   N914    1.046   .     S
H909   N566    1.046   1_565 S
H910   N567    1.046   1_565 S
N911   Zn928   2.025   .     S
N911   N970    1.282   .     S
N911   N975    1.385   .     S
N912   Zn927   2.025   .     S
N912   N1027   1.282   1_455 S
N912   N1034   1.385   1_455 S
N913   H559    1.046   1_565 S
N916   H550    1.046   1_565 S
N916   H549    1.046   1_565 S
N916   C541    1.443   1_565 S
N917   N1027   1.385   1_455 S
N917   H1016   1.044   1_455 S
N917   H1015   1.044   1_455 S
N918   H959    1.045   .     S
N918   H960    1.044   .     S
N918   N970    1.385   .     S
O919   Zn927   1.974   .     S
O920   Zn928   1.974   .     S
O921   Zn928   1.984   .     S
O922   Zn927   1.984   .     S
O923   Zn927   1.992   .     S
O924   Zn928   1.992   .     S
O925   Zn928   2.007   .     S
O926   Zn927   2.007   .     S
C929   O979    1.289   .     A
C929   C946    1.403   .     S
C929   O977    1.277   .     A
C930   C932    1.389   .     A
C930   F952    1.361   .     S
C930   C941    1.387   .     A
C931   C933    1.388   .     A
C931   C949    1.414   .     S
C931   C950    1.389   .     A
C932   C948    1.414   .     S
C932   C934    1.388   .     A
C933   H953    1.085   .     S
C933   C935    1.388   .     A
C934   H961    1.085   .     S
C934   C936    1.388   .     A
C935   C937    1.419   .     A
C935   C942    1.410   .     A
C936   C938    1.419   .     A
C936   C943    1.410   .     A
C937   C939    1.415   .     A
C938   C941    1.415   .     A
C938   C415    1.392   1_556 S
C939   C950    1.387   .     A
C939   C945    1.399   .     A
C940   O978    1.277   .     A
C940   O980    1.289   .     A
C940   C947    1.403   .     S
C941   C944    1.399   .     A
C942   N971    1.439   .     S
C943   N972    1.439   .     S
C943   C423    1.395   1_556 S
C944   H962    1.084   .     S
C944   C420    1.395   1_556 S
C945   H963    1.084   .     S
C946   C599    1.351   1_565 S
C946   N625    1.443   1_565 S
C948   O983    1.287   .     A
C948   O981    1.287   .     A
C949   O984    1.287   .     A
C949   O982    1.287   .     A
C950   F951    1.361   .     S
H954   N625    1.046   1_565 S
H957   N1033   1.044   .     S
H958   N1033   1.044   .     S
H964   N971    1.046   .     S
H966   N972    1.046   .     S
H967   N624    1.046   1_565 S
H968   N625    1.046   1_565 S
N969   Zn986   2.025   .     S
N969   N1028   1.282   .     S
N969   N1033   1.385   .     S
N970   Zn985   2.025   .     S
N971   H617    1.046   1_565 S
N974   H608    1.046   1_565 S
N974   H607    1.046   1_565 S
N974   C599    1.443   1_565 S
N976   H1017   1.045   .     S
N976   H1018   1.044   .     S
N976   N1028   1.385   .     S
O977   Zn985   1.974   .     S
O978   Zn986   1.974   .     S
O979   Zn986   1.984   .     S
O980   Zn985   1.984   .     S
O981   Zn985   1.992   .     S
O982   Zn986   1.992   .     S
O983   Zn986   2.007   .     S
O984   Zn985   2.007   .     S
C987   O1037   1.289   .     A
C987   C1004   1.403   .     S
C987   O1035   1.277   .     A
C988   C990    1.389   .     A
C988   F1010   1.361   .     S
C988   C999    1.387   .     A
C989   C991    1.388   .     A
C989   C1007   1.414   .     S
C989   C1008   1.389   .     A
C990   C1006   1.414   .     S
C990   C992    1.388   .     A
C991   H1011   1.085   .     S
C991   C993    1.388   .     A
C992   H1019   1.085   .     S
C992   C994    1.388   .     A
C993   C995    1.419   .     A
C993   C1000   1.410   .     A
C994   C996    1.419   .     A
C994   C1001   1.410   .     A
C995   C997    1.415   .     A
C996   C999    1.415   .     A
C996   C473    1.392   1_556 S
C997   C1008   1.387   .     A
C997   C1003   1.399   .     A
C998   O1036   1.277   .     A
C998   O1038   1.289   .     A
C998   C1005   1.403   .     S
C999   C1002   1.399   .     A
C1000  N1029   1.439   .     S
C1001  N1030   1.439   .     S
C1001  C481    1.395   1_556 S
C1002  H1020   1.084   .     S
C1002  C478    1.395   1_556 S
C1003  H1021   1.084   .     S
C1004  C657    1.351   1_565 S
C1004  N683    1.443   1_565 S
C1006  O1041   1.287   .     A
C1006  O1039   1.287   .     A
C1007  O1042   1.287   .     A
C1007  O1040   1.287   .     A
C1008  F1009   1.361   .     S
H1012  N683    1.046   1_565 S
H1015  N917    1.044   1_655 S
H1016  N917    1.044   1_655 S
H1022  N1029   1.046   .     S
H1024  N1030   1.046   .     S
H1025  N682    1.046   1_565 S
H1026  N683    1.046   1_565 S
N1027  Zn1044  2.025   .     S
N1027  N912    1.282   1_655 S
N1027  N917    1.385   1_655 S
N1028  Zn1043  2.025   .     S
N1029  H675    1.046   1_565 S
N1032  H666    1.046   1_565 S
N1032  H665    1.046   1_565 S
N1032  C657    1.443   1_565 S
N1034  H901    1.045   1_655 S
N1034  H902    1.044   1_655 S
N1034  N912    1.385   1_655 S
O1035  Zn1043  1.974   .     S
O1036  Zn1044  1.974   .     S
O1037  Zn1044  1.984   .     S
O1038  Zn1043  1.984   .     S
O1039  Zn1043  1.992   .     S
O1040  Zn1044  1.992   .     S
O1041  Zn1044  2.007   .     S
O1042  Zn1043  2.007   .     S
