data_str_m2_o2_o10_pcu_sym.176
_audit_creation_date              2020-01-03
_audit_creation_method            'Materials Studio'
_symmetry_space_group_name_H-M    'P1'
_symmetry_Int_Tables_number       1
_symmetry_cell_setting            triclinic
loop_
_symmetry_equiv_pos_as_xyz
  x,y,z
_cell_length_a                    26.4024
_cell_length_b                    30.3066
_cell_length_c                    27.8640
_cell_angle_alpha                 91.1130
_cell_angle_beta                  96.9549
_cell_angle_gamma                 90.8751
loop_
_atom_site_label
_atom_site_type_symbol
_atom_site_fract_x
_atom_site_fract_y
_atom_site_fract_z
_atom_site_U_iso_or_equiv
_atom_site_adp_type
_atom_site_occupancy
O1     O     0.16667   0.18573   0.29071   0.00000  Uiso   1.00
O2     O     0.16666   0.31428   0.20928   0.00000  Uiso   1.00
O3     O     0.16667   0.18573   0.20928   0.00000  Uiso   1.00
O4     O     0.16666   0.31427   0.29072   0.00000  Uiso   1.00
C5     C     0.16859   0.16496   0.24972   0.00000  Uiso   1.00
C6     C     0.16533   0.33482   0.25033   0.00000  Uiso   1.00
O7     O     0.09161   0.25000   0.28132   0.00000  Uiso   1.00
O8     O     0.24172   0.25001   0.21868   0.00000  Uiso   1.00
O9     O     0.09161   0.25000   0.19988   0.00000  Uiso   1.00
O10    O     0.24172   0.25000   0.30011   0.00000  Uiso   1.00
C11    C     0.06838   0.25132   0.23813   0.00000  Uiso   1.00
C12    C     0.26509   0.24863   0.26172   0.00000  Uiso   1.00
Cu13   Cu    0.16667   0.25000   0.29821   0.00000  Uiso   1.00
Cu14   Cu    0.16667   0.25001   0.20178   0.00000  Uiso   1.00
C15    C     0.01442   0.25906   0.23356   0.00000  Uiso   1.00
C16    C     0.31899   0.23931   0.26521   0.00000  Uiso   1.00
C17    C     0.16507   0.04858   0.29273   0.00000  Uiso   1.00
C18    C     0.20075   0.45053   0.22428   0.00000  Uiso   1.00
H19    H     0.16033   0.03263   0.32638   0.00000  Uiso   1.00
H20    H     0.22799   0.46639   0.20385   0.00000  Uiso   1.00
C21    C     0.16468   0.09428   0.29174   0.00000  Uiso   1.00
C22    C     0.19775   0.40482   0.22361   0.00000  Uiso   1.00
H23    H     0.15824   0.11214   0.32443   0.00000  Uiso   1.00
H24    H     0.22242   0.38645   0.20238   0.00000  Uiso   1.00
C25    C     0.17213   0.11656   0.24936   0.00000  Uiso   1.00
C26    C     0.16468   0.38285   0.25118   0.00000  Uiso   1.00
C27    C     0.18177   0.09188   0.20775   0.00000  Uiso   1.00
C28    C     0.13351   0.40727   0.27971   0.00000  Uiso   1.00
C29    C     0.17942   0.04584   0.20859   0.00000  Uiso   1.00
C30    C     0.13610   0.45337   0.27892   0.00000  Uiso   1.00
H31    H     0.18464   0.02725   0.17604   0.00000  Uiso   1.00
H32    H     0.11079   0.47219   0.29893   0.00000  Uiso   1.00
C33    C     0.17135   0.02388   0.25093   0.00000  Uiso   1.00
C34    C     0.16955   0.47526   0.25149   0.00000  Uiso   1.00
C35    C     0.20604   0.26992   0.05900   0.00000  Uiso   1.00
C36    C     0.15158   0.21262   0.44348   0.00000  Uiso   1.00
H37    H     0.23851   0.28509   0.04520   0.00000  Uiso   1.00
H38    H     0.14069   0.18224   0.45954   0.00000  Uiso   1.00
C39    C     0.20404   0.27168   0.10919   0.00000  Uiso   1.00
C40    C     0.14994   0.21375   0.39284   0.00000  Uiso   1.00
H41    H     0.23228   0.29085   0.13198   0.00000  Uiso   1.00
H42    H     0.13604   0.18493   0.37156   0.00000  Uiso   1.00
N43    N     0.16667   0.25001   0.12934   0.00000  Uiso   1.00
N44    N     0.16667   0.24999   0.37065   0.00000  Uiso   1.00
C45    C     0.12825   0.22826   0.09957   0.00000  Uiso   1.00
C46    C     0.18526   0.28611   0.39868   0.00000  Uiso   1.00
C47    C     0.12604   0.22959   0.04848   0.00000  Uiso   1.00
C48    C     0.18250   0.28790   0.44919   0.00000  Uiso   1.00
C49    C     0.16622   0.24975   0.02728   0.00000  Uiso   1.00
C50    C     0.16659   0.25022   0.47275   0.00000  Uiso   1.00
C51    C     0.32591   0.29212   0.19559   0.00000  Uiso   1.00
C52    C     0.03027   0.32424   0.17608   0.00000  Uiso   1.00
H53    H     0.05695   0.33943   0.20566   0.00000  Uiso   1.00
H54    H     0.05198   0.30759   0.14945   0.00000  Uiso   1.00
H55    H     0.00870   0.35112   0.15680   0.00000  Uiso   1.00
H56    H     0.30719   0.27251   0.16433   0.00000  Uiso   1.00
H57    H     0.29767   0.31333   0.21102   0.00000  Uiso   1.00
C58    C     0.00501   0.20299   0.30032   0.00000  Uiso   1.00
C59    C     0.30224   0.16275   0.29828   0.00000  Uiso   1.00
H60    H     0.26746   0.17048   0.31522   0.00000  Uiso   1.00
H61    H     0.29145   0.15130   0.26027   0.00000  Uiso   1.00
H62    H     0.32159   0.13540   0.31874   0.00000  Uiso   1.00
H63    H     0.04168   0.18918   0.29219   0.00000  Uiso   1.00
H64    H     0.01053   0.21698   0.33778   0.00000  Uiso   1.00
N65    N     0.19612   0.11245   0.16527   0.00000  Uiso   1.00
O66    O     0.23545   0.13924   0.16894   0.00000  Uiso   1.00
O67    O     0.17750   0.09732   0.12264   0.00000  Uiso   1.00
N68    N     0.09879   0.38658   0.30896   0.00000  Uiso   1.00
O69    O     0.07445   0.35012   0.29480   0.00000  Uiso   1.00
O70    O     0.08701   0.40684   0.34761   0.00000  Uiso   1.00
N71    N     0.08834   0.20521   0.11959   0.00000  Uiso   1.00
O72    O     0.09569   0.16509   0.13419   0.00000  Uiso   1.00
O73    O     0.04182   0.21931   0.11158   0.00000  Uiso   1.00
N74    N     0.20926   0.32229   0.37761   0.00000  Uiso   1.00
O75    O     0.25510   0.31794   0.36580   0.00000  Uiso   1.00
O76    O     0.19053   0.36163   0.37991   0.00000  Uiso   1.00
N77    N     0.08178   0.21204   0.01877   0.00000  Uiso   1.00
O78    O     0.05585   0.23696   0.48753   0.00000  Uiso   1.00
O79    O     0.06648   0.17153   0.02364   0.00000  Uiso   1.00
N80    N     0.19479   0.32851   0.47577   0.00000  Uiso   1.00
O81    O     0.16132   0.34667   0.00019   0.00000  Uiso   1.00
O82    O     0.23940   0.34738   0.47579   0.00000  Uiso   1.00
O83    O     0.50000   0.18573   0.29071   0.00000  Uiso   1.00
O84    O     0.50000   0.31428   0.20928   0.00000  Uiso   1.00
O85    O     0.50000   0.18573   0.20928   0.00000  Uiso   1.00
O86    O     0.50000   0.31427   0.29072   0.00000  Uiso   1.00
C87    C     0.50193   0.16496   0.24972   0.00000  Uiso   1.00
C88    C     0.49867   0.33482   0.25033   0.00000  Uiso   1.00
O89    O     0.42495   0.25000   0.28132   0.00000  Uiso   1.00
O90    O     0.57505   0.25001   0.21868   0.00000  Uiso   1.00
O91    O     0.42495   0.25000   0.19988   0.00000  Uiso   1.00
O92    O     0.57505   0.25000   0.30011   0.00000  Uiso   1.00
C93    C     0.40172   0.25132   0.23813   0.00000  Uiso   1.00
C94    C     0.59842   0.24863   0.26172   0.00000  Uiso   1.00
Cu95   Cu    0.50000   0.25000   0.29821   0.00000  Uiso   1.00
Cu96   Cu    0.50000   0.25001   0.20178   0.00000  Uiso   1.00
C97    C     0.34775   0.25906   0.23356   0.00000  Uiso   1.00
C98    C     0.65233   0.23931   0.26521   0.00000  Uiso   1.00
C99    C     0.49840   0.04858   0.29273   0.00000  Uiso   1.00
C100   C     0.53408   0.45053   0.22428   0.00000  Uiso   1.00
H101   H     0.49367   0.03263   0.32638   0.00000  Uiso   1.00
H102   H     0.56132   0.46639   0.20385   0.00000  Uiso   1.00
C103   C     0.49801   0.09428   0.29174   0.00000  Uiso   1.00
C104   C     0.53108   0.40482   0.22361   0.00000  Uiso   1.00
H105   H     0.49157   0.11214   0.32443   0.00000  Uiso   1.00
H106   H     0.55575   0.38645   0.20238   0.00000  Uiso   1.00
C107   C     0.50546   0.11656   0.24936   0.00000  Uiso   1.00
C108   C     0.49801   0.38285   0.25118   0.00000  Uiso   1.00
C109   C     0.51510   0.09188   0.20775   0.00000  Uiso   1.00
C110   C     0.46684   0.40727   0.27971   0.00000  Uiso   1.00
C111   C     0.51275   0.04584   0.20859   0.00000  Uiso   1.00
C112   C     0.46943   0.45337   0.27892   0.00000  Uiso   1.00
H113   H     0.51797   0.02725   0.17604   0.00000  Uiso   1.00
H114   H     0.44412   0.47219   0.29893   0.00000  Uiso   1.00
C115   C     0.50468   0.02388   0.25093   0.00000  Uiso   1.00
C116   C     0.50289   0.47526   0.25149   0.00000  Uiso   1.00
C117   C     0.53937   0.26992   0.05900   0.00000  Uiso   1.00
C118   C     0.48491   0.21262   0.44348   0.00000  Uiso   1.00
H119   H     0.57184   0.28509   0.04520   0.00000  Uiso   1.00
H120   H     0.47402   0.18224   0.45954   0.00000  Uiso   1.00
C121   C     0.53737   0.27168   0.10919   0.00000  Uiso   1.00
C122   C     0.48327   0.21375   0.39284   0.00000  Uiso   1.00
H123   H     0.56561   0.29085   0.13198   0.00000  Uiso   1.00
H124   H     0.46937   0.18493   0.37156   0.00000  Uiso   1.00
N125   N     0.50000   0.25001   0.12934   0.00000  Uiso   1.00
N126   N     0.50000   0.24999   0.37065   0.00000  Uiso   1.00
C127   C     0.46158   0.22826   0.09957   0.00000  Uiso   1.00
C128   C     0.51860   0.28611   0.39868   0.00000  Uiso   1.00
C129   C     0.45938   0.22959   0.04848   0.00000  Uiso   1.00
C130   C     0.51583   0.28790   0.44919   0.00000  Uiso   1.00
C131   C     0.49956   0.24975   0.02728   0.00000  Uiso   1.00
C132   C     0.49992   0.25022   0.47275   0.00000  Uiso   1.00
C133   C     0.65925   0.29212   0.19559   0.00000  Uiso   1.00
C134   C     0.36361   0.32424   0.17608   0.00000  Uiso   1.00
H135   H     0.39028   0.33943   0.20566   0.00000  Uiso   1.00
H136   H     0.38531   0.30759   0.14945   0.00000  Uiso   1.00
H137   H     0.34204   0.35112   0.15680   0.00000  Uiso   1.00
H138   H     0.64052   0.27251   0.16433   0.00000  Uiso   1.00
H139   H     0.63100   0.31333   0.21102   0.00000  Uiso   1.00
C140   C     0.33834   0.20299   0.30032   0.00000  Uiso   1.00
C141   C     0.63558   0.16275   0.29828   0.00000  Uiso   1.00
H142   H     0.60079   0.17048   0.31522   0.00000  Uiso   1.00
H143   H     0.62478   0.15130   0.26027   0.00000  Uiso   1.00
H144   H     0.65492   0.13540   0.31874   0.00000  Uiso   1.00
H145   H     0.37501   0.18918   0.29219   0.00000  Uiso   1.00
H146   H     0.34386   0.21698   0.33778   0.00000  Uiso   1.00
N147   N     0.52945   0.11245   0.16527   0.00000  Uiso   1.00
O148   O     0.56878   0.13924   0.16894   0.00000  Uiso   1.00
O149   O     0.51083   0.09732   0.12264   0.00000  Uiso   1.00
N150   N     0.43212   0.38658   0.30896   0.00000  Uiso   1.00
O151   O     0.40778   0.35012   0.29480   0.00000  Uiso   1.00
O152   O     0.42035   0.40684   0.34761   0.00000  Uiso   1.00
N153   N     0.42168   0.20521   0.11959   0.00000  Uiso   1.00
O154   O     0.42902   0.16509   0.13419   0.00000  Uiso   1.00
O155   O     0.37516   0.21931   0.11158   0.00000  Uiso   1.00
N156   N     0.54259   0.32229   0.37761   0.00000  Uiso   1.00
O157   O     0.58843   0.31794   0.36580   0.00000  Uiso   1.00
O158   O     0.52386   0.36163   0.37991   0.00000  Uiso   1.00
N159   N     0.41511   0.21204   0.01877   0.00000  Uiso   1.00
O160   O     0.38918   0.23696   0.48753   0.00000  Uiso   1.00
O161   O     0.39982   0.17153   0.02364   0.00000  Uiso   1.00
N162   N     0.52813   0.32851   0.47577   0.00000  Uiso   1.00
O163   O     0.49465   0.34667   0.00019   0.00000  Uiso   1.00
O164   O     0.57274   0.34738   0.47579   0.00000  Uiso   1.00
O165   O     0.83334   0.18573   0.29071   0.00000  Uiso   1.00
O166   O     0.83333   0.31428   0.20928   0.00000  Uiso   1.00
O167   O     0.83334   0.18573   0.20928   0.00000  Uiso   1.00
O168   O     0.83333   0.31427   0.29072   0.00000  Uiso   1.00
C169   C     0.83526   0.16496   0.24972   0.00000  Uiso   1.00
C170   C     0.83200   0.33482   0.25033   0.00000  Uiso   1.00
O171   O     0.75828   0.25000   0.28132   0.00000  Uiso   1.00
O172   O     0.90839   0.25001   0.21868   0.00000  Uiso   1.00
O173   O     0.75828   0.25000   0.19988   0.00000  Uiso   1.00
O174   O     0.90839   0.25000   0.30011   0.00000  Uiso   1.00
C175   C     0.73505   0.25132   0.23813   0.00000  Uiso   1.00
C176   C     0.93175   0.24863   0.26172   0.00000  Uiso   1.00
Cu177  Cu    0.83333   0.25000   0.29821   0.00000  Uiso   1.00
Cu178  Cu    0.83333   0.25001   0.20178   0.00000  Uiso   1.00
C179   C     0.68108   0.25906   0.23356   0.00000  Uiso   1.00
C180   C     0.98566   0.23931   0.26521   0.00000  Uiso   1.00
C181   C     0.83173   0.04858   0.29273   0.00000  Uiso   1.00
C182   C     0.86742   0.45053   0.22428   0.00000  Uiso   1.00
H183   H     0.82700   0.03263   0.32638   0.00000  Uiso   1.00
H184   H     0.89465   0.46639   0.20385   0.00000  Uiso   1.00
C185   C     0.83134   0.09428   0.29174   0.00000  Uiso   1.00
C186   C     0.86442   0.40482   0.22361   0.00000  Uiso   1.00
H187   H     0.82490   0.11214   0.32443   0.00000  Uiso   1.00
H188   H     0.88908   0.38645   0.20238   0.00000  Uiso   1.00
C189   C     0.83880   0.11656   0.24936   0.00000  Uiso   1.00
C190   C     0.83134   0.38285   0.25118   0.00000  Uiso   1.00
C191   C     0.84844   0.09188   0.20775   0.00000  Uiso   1.00
C192   C     0.80017   0.40727   0.27971   0.00000  Uiso   1.00
C193   C     0.84609   0.04584   0.20859   0.00000  Uiso   1.00
C194   C     0.80277   0.45337   0.27892   0.00000  Uiso   1.00
H195   H     0.85130   0.02725   0.17604   0.00000  Uiso   1.00
H196   H     0.77746   0.47219   0.29893   0.00000  Uiso   1.00
C197   C     0.83802   0.02388   0.25093   0.00000  Uiso   1.00
C198   C     0.83622   0.47526   0.25149   0.00000  Uiso   1.00
C199   C     0.87270   0.26992   0.05900   0.00000  Uiso   1.00
C200   C     0.81825   0.21262   0.44348   0.00000  Uiso   1.00
H201   H     0.90517   0.28509   0.04520   0.00000  Uiso   1.00
H202   H     0.80736   0.18224   0.45954   0.00000  Uiso   1.00
C203   C     0.87071   0.27168   0.10919   0.00000  Uiso   1.00
C204   C     0.81660   0.21375   0.39284   0.00000  Uiso   1.00
H205   H     0.89894   0.29085   0.13198   0.00000  Uiso   1.00
H206   H     0.80270   0.18493   0.37156   0.00000  Uiso   1.00
N207   N     0.83333   0.25001   0.12934   0.00000  Uiso   1.00
N208   N     0.83333   0.24999   0.37065   0.00000  Uiso   1.00
C209   C     0.79492   0.22826   0.09957   0.00000  Uiso   1.00
C210   C     0.85193   0.28611   0.39868   0.00000  Uiso   1.00
C211   C     0.79271   0.22959   0.04848   0.00000  Uiso   1.00
C212   C     0.84916   0.28790   0.44919   0.00000  Uiso   1.00
C213   C     0.83289   0.24975   0.02728   0.00000  Uiso   1.00
C214   C     0.83326   0.25022   0.47275   0.00000  Uiso   1.00
C215   C     0.99258   0.29212   0.19559   0.00000  Uiso   1.00
C216   C     0.69694   0.32424   0.17608   0.00000  Uiso   1.00
H217   H     0.72361   0.33943   0.20566   0.00000  Uiso   1.00
H218   H     0.71864   0.30759   0.14945   0.00000  Uiso   1.00
H219   H     0.67537   0.35112   0.15680   0.00000  Uiso   1.00
H220   H     0.97385   0.27251   0.16433   0.00000  Uiso   1.00
H221   H     0.96433   0.31333   0.21102   0.00000  Uiso   1.00
C222   C     0.67168   0.20299   0.30032   0.00000  Uiso   1.00
C223   C     0.96891   0.16275   0.29828   0.00000  Uiso   1.00
H224   H     0.93412   0.17048   0.31522   0.00000  Uiso   1.00
H225   H     0.95811   0.15130   0.26027   0.00000  Uiso   1.00
H226   H     0.98826   0.13540   0.31874   0.00000  Uiso   1.00
H227   H     0.70834   0.18918   0.29219   0.00000  Uiso   1.00
H228   H     0.67719   0.21698   0.33778   0.00000  Uiso   1.00
N229   N     0.86278   0.11245   0.16527   0.00000  Uiso   1.00
O230   O     0.90212   0.13924   0.16894   0.00000  Uiso   1.00
O231   O     0.84416   0.09732   0.12264   0.00000  Uiso   1.00
N232   N     0.76545   0.38658   0.30896   0.00000  Uiso   1.00
O233   O     0.74111   0.35012   0.29480   0.00000  Uiso   1.00
O234   O     0.75368   0.40684   0.34761   0.00000  Uiso   1.00
N235   N     0.75501   0.20521   0.11959   0.00000  Uiso   1.00
O236   O     0.76235   0.16509   0.13419   0.00000  Uiso   1.00
O237   O     0.70849   0.21931   0.11158   0.00000  Uiso   1.00
N238   N     0.87592   0.32229   0.37761   0.00000  Uiso   1.00
O239   O     0.92177   0.31794   0.36580   0.00000  Uiso   1.00
O240   O     0.85719   0.36163   0.37991   0.00000  Uiso   1.00
N241   N     0.74844   0.21204   0.01877   0.00000  Uiso   1.00
O242   O     0.72251   0.23696   0.48753   0.00000  Uiso   1.00
O243   O     0.73315   0.17153   0.02364   0.00000  Uiso   1.00
N244   N     0.86146   0.32851   0.47577   0.00000  Uiso   1.00
O245   O     0.82799   0.34667   0.00019   0.00000  Uiso   1.00
O246   O     0.90607   0.34738   0.47579   0.00000  Uiso   1.00
O247   O     0.16667   0.68573   0.29071   0.00000  Uiso   1.00
O248   O     0.16666   0.81428   0.20928   0.00000  Uiso   1.00
O249   O     0.16667   0.68573   0.20928   0.00000  Uiso   1.00
O250   O     0.16666   0.81427   0.29072   0.00000  Uiso   1.00
C251   C     0.16859   0.66496   0.24972   0.00000  Uiso   1.00
C252   C     0.16533   0.83482   0.25033   0.00000  Uiso   1.00
O253   O     0.09161   0.75000   0.28132   0.00000  Uiso   1.00
O254   O     0.24172   0.75001   0.21868   0.00000  Uiso   1.00
O255   O     0.09161   0.75000   0.19988   0.00000  Uiso   1.00
O256   O     0.24172   0.75000   0.30011   0.00000  Uiso   1.00
C257   C     0.06838   0.75132   0.23813   0.00000  Uiso   1.00
C258   C     0.26509   0.74863   0.26172   0.00000  Uiso   1.00
Cu259  Cu    0.16667   0.75000   0.29821   0.00000  Uiso   1.00
Cu260  Cu    0.16667   0.75001   0.20178   0.00000  Uiso   1.00
C261   C     0.01442   0.75906   0.23356   0.00000  Uiso   1.00
C262   C     0.31899   0.73931   0.26521   0.00000  Uiso   1.00
C263   C     0.16507   0.54858   0.29273   0.00000  Uiso   1.00
C264   C     0.20075   0.95053   0.22428   0.00000  Uiso   1.00
H265   H     0.16033   0.53263   0.32638   0.00000  Uiso   1.00
H266   H     0.22799   0.96639   0.20385   0.00000  Uiso   1.00
C267   C     0.16468   0.59428   0.29174   0.00000  Uiso   1.00
C268   C     0.19775   0.90482   0.22361   0.00000  Uiso   1.00
H269   H     0.15824   0.61214   0.32443   0.00000  Uiso   1.00
H270   H     0.22242   0.88645   0.20238   0.00000  Uiso   1.00
C271   C     0.17213   0.61656   0.24936   0.00000  Uiso   1.00
C272   C     0.16468   0.88285   0.25118   0.00000  Uiso   1.00
C273   C     0.18177   0.59188   0.20775   0.00000  Uiso   1.00
C274   C     0.13351   0.90727   0.27971   0.00000  Uiso   1.00
C275   C     0.17942   0.54584   0.20859   0.00000  Uiso   1.00
C276   C     0.13610   0.95337   0.27892   0.00000  Uiso   1.00
H277   H     0.18464   0.52725   0.17604   0.00000  Uiso   1.00
H278   H     0.11079   0.97219   0.29893   0.00000  Uiso   1.00
C279   C     0.17135   0.52388   0.25093   0.00000  Uiso   1.00
C280   C     0.16955   0.97526   0.25149   0.00000  Uiso   1.00
C281   C     0.20604   0.76992   0.05900   0.00000  Uiso   1.00
C282   C     0.15158   0.71262   0.44348   0.00000  Uiso   1.00
H283   H     0.23851   0.78509   0.04520   0.00000  Uiso   1.00
H284   H     0.14069   0.68224   0.45954   0.00000  Uiso   1.00
C285   C     0.20404   0.77168   0.10919   0.00000  Uiso   1.00
C286   C     0.14994   0.71375   0.39284   0.00000  Uiso   1.00
H287   H     0.23228   0.79085   0.13198   0.00000  Uiso   1.00
H288   H     0.13604   0.68493   0.37156   0.00000  Uiso   1.00
N289   N     0.16667   0.75001   0.12934   0.00000  Uiso   1.00
N290   N     0.16667   0.74999   0.37065   0.00000  Uiso   1.00
C291   C     0.12825   0.72826   0.09957   0.00000  Uiso   1.00
C292   C     0.18526   0.78611   0.39868   0.00000  Uiso   1.00
C293   C     0.12604   0.72959   0.04848   0.00000  Uiso   1.00
C294   C     0.18250   0.78790   0.44919   0.00000  Uiso   1.00
C295   C     0.16622   0.74975   0.02728   0.00000  Uiso   1.00
C296   C     0.16659   0.75022   0.47275   0.00000  Uiso   1.00
C297   C     0.32591   0.79212   0.19559   0.00000  Uiso   1.00
C298   C     0.03027   0.82424   0.17608   0.00000  Uiso   1.00
H299   H     0.05695   0.83943   0.20566   0.00000  Uiso   1.00
H300   H     0.05198   0.80759   0.14945   0.00000  Uiso   1.00
H301   H     0.00870   0.85112   0.15680   0.00000  Uiso   1.00
H302   H     0.30719   0.77251   0.16433   0.00000  Uiso   1.00
H303   H     0.29767   0.81333   0.21102   0.00000  Uiso   1.00
C304   C     0.00501   0.70299   0.30032   0.00000  Uiso   1.00
C305   C     0.30224   0.66275   0.29828   0.00000  Uiso   1.00
H306   H     0.26746   0.67048   0.31522   0.00000  Uiso   1.00
H307   H     0.29145   0.65130   0.26027   0.00000  Uiso   1.00
H308   H     0.32159   0.63540   0.31874   0.00000  Uiso   1.00
H309   H     0.04168   0.68918   0.29219   0.00000  Uiso   1.00
H310   H     0.01053   0.71698   0.33778   0.00000  Uiso   1.00
N311   N     0.19612   0.61245   0.16527   0.00000  Uiso   1.00
O312   O     0.23545   0.63924   0.16894   0.00000  Uiso   1.00
O313   O     0.17750   0.59732   0.12264   0.00000  Uiso   1.00
N314   N     0.09879   0.88658   0.30896   0.00000  Uiso   1.00
O315   O     0.07445   0.85012   0.29480   0.00000  Uiso   1.00
O316   O     0.08701   0.90684   0.34761   0.00000  Uiso   1.00
N317   N     0.08834   0.70521   0.11959   0.00000  Uiso   1.00
O318   O     0.09569   0.66509   0.13419   0.00000  Uiso   1.00
O319   O     0.04182   0.71931   0.11158   0.00000  Uiso   1.00
N320   N     0.20926   0.82229   0.37761   0.00000  Uiso   1.00
O321   O     0.25510   0.81794   0.36580   0.00000  Uiso   1.00
O322   O     0.19053   0.86163   0.37991   0.00000  Uiso   1.00
N323   N     0.08178   0.71204   0.01877   0.00000  Uiso   1.00
O324   O     0.05585   0.73696   0.48753   0.00000  Uiso   1.00
O325   O     0.06648   0.67153   0.02364   0.00000  Uiso   1.00
N326   N     0.19479   0.82851   0.47577   0.00000  Uiso   1.00
O327   O     0.16132   0.84667   0.00019   0.00000  Uiso   1.00
O328   O     0.23940   0.84738   0.47579   0.00000  Uiso   1.00
O329   O     0.50000   0.68573   0.29071   0.00000  Uiso   1.00
O330   O     0.50000   0.81428   0.20928   0.00000  Uiso   1.00
O331   O     0.50000   0.68573   0.20928   0.00000  Uiso   1.00
O332   O     0.50000   0.81427   0.29072   0.00000  Uiso   1.00
C333   C     0.50193   0.66496   0.24972   0.00000  Uiso   1.00
C334   C     0.49867   0.83482   0.25033   0.00000  Uiso   1.00
O335   O     0.42495   0.75000   0.28132   0.00000  Uiso   1.00
O336   O     0.57505   0.75001   0.21868   0.00000  Uiso   1.00
O337   O     0.42495   0.75000   0.19988   0.00000  Uiso   1.00
O338   O     0.57505   0.75000   0.30011   0.00000  Uiso   1.00
C339   C     0.40172   0.75132   0.23813   0.00000  Uiso   1.00
C340   C     0.59842   0.74863   0.26172   0.00000  Uiso   1.00
Cu341  Cu    0.50000   0.75000   0.29821   0.00000  Uiso   1.00
Cu342  Cu    0.50000   0.75001   0.20178   0.00000  Uiso   1.00
C343   C     0.34775   0.75906   0.23356   0.00000  Uiso   1.00
C344   C     0.65233   0.73931   0.26521   0.00000  Uiso   1.00
C345   C     0.49840   0.54858   0.29273   0.00000  Uiso   1.00
C346   C     0.53408   0.95053   0.22428   0.00000  Uiso   1.00
H347   H     0.49367   0.53263   0.32638   0.00000  Uiso   1.00
H348   H     0.56132   0.96639   0.20385   0.00000  Uiso   1.00
C349   C     0.49801   0.59428   0.29174   0.00000  Uiso   1.00
C350   C     0.53108   0.90482   0.22361   0.00000  Uiso   1.00
H351   H     0.49157   0.61214   0.32443   0.00000  Uiso   1.00
H352   H     0.55575   0.88645   0.20238   0.00000  Uiso   1.00
C353   C     0.50546   0.61656   0.24936   0.00000  Uiso   1.00
C354   C     0.49801   0.88285   0.25118   0.00000  Uiso   1.00
C355   C     0.51510   0.59188   0.20775   0.00000  Uiso   1.00
C356   C     0.46684   0.90727   0.27971   0.00000  Uiso   1.00
C357   C     0.51275   0.54584   0.20859   0.00000  Uiso   1.00
C358   C     0.46943   0.95337   0.27892   0.00000  Uiso   1.00
H359   H     0.51797   0.52725   0.17604   0.00000  Uiso   1.00
H360   H     0.44412   0.97219   0.29893   0.00000  Uiso   1.00
C361   C     0.50468   0.52388   0.25093   0.00000  Uiso   1.00
C362   C     0.50289   0.97526   0.25149   0.00000  Uiso   1.00
C363   C     0.53937   0.76992   0.05900   0.00000  Uiso   1.00
C364   C     0.48491   0.71262   0.44348   0.00000  Uiso   1.00
H365   H     0.57184   0.78509   0.04520   0.00000  Uiso   1.00
H366   H     0.47402   0.68224   0.45954   0.00000  Uiso   1.00
C367   C     0.53737   0.77168   0.10919   0.00000  Uiso   1.00
C368   C     0.48327   0.71375   0.39284   0.00000  Uiso   1.00
H369   H     0.56561   0.79085   0.13198   0.00000  Uiso   1.00
H370   H     0.46937   0.68493   0.37156   0.00000  Uiso   1.00
N371   N     0.50000   0.75001   0.12934   0.00000  Uiso   1.00
N372   N     0.50000   0.74999   0.37065   0.00000  Uiso   1.00
C373   C     0.46158   0.72826   0.09957   0.00000  Uiso   1.00
C374   C     0.51860   0.78611   0.39868   0.00000  Uiso   1.00
C375   C     0.45938   0.72959   0.04848   0.00000  Uiso   1.00
C376   C     0.51583   0.78790   0.44919   0.00000  Uiso   1.00
C377   C     0.49956   0.74975   0.02728   0.00000  Uiso   1.00
C378   C     0.49992   0.75022   0.47275   0.00000  Uiso   1.00
C379   C     0.65925   0.79212   0.19559   0.00000  Uiso   1.00
C380   C     0.36361   0.82424   0.17608   0.00000  Uiso   1.00
H381   H     0.39028   0.83943   0.20566   0.00000  Uiso   1.00
H382   H     0.38531   0.80759   0.14945   0.00000  Uiso   1.00
H383   H     0.34204   0.85112   0.15680   0.00000  Uiso   1.00
H384   H     0.64052   0.77251   0.16433   0.00000  Uiso   1.00
H385   H     0.63100   0.81333   0.21102   0.00000  Uiso   1.00
C386   C     0.33834   0.70299   0.30032   0.00000  Uiso   1.00
C387   C     0.63558   0.66275   0.29828   0.00000  Uiso   1.00
H388   H     0.60079   0.67048   0.31522   0.00000  Uiso   1.00
H389   H     0.62478   0.65130   0.26027   0.00000  Uiso   1.00
H390   H     0.65492   0.63540   0.31874   0.00000  Uiso   1.00
H391   H     0.37501   0.68918   0.29219   0.00000  Uiso   1.00
H392   H     0.34386   0.71698   0.33778   0.00000  Uiso   1.00
N393   N     0.52945   0.61245   0.16527   0.00000  Uiso   1.00
O394   O     0.56878   0.63924   0.16894   0.00000  Uiso   1.00
O395   O     0.51083   0.59732   0.12264   0.00000  Uiso   1.00
N396   N     0.43212   0.88658   0.30896   0.00000  Uiso   1.00
O397   O     0.40778   0.85012   0.29480   0.00000  Uiso   1.00
O398   O     0.42035   0.90684   0.34761   0.00000  Uiso   1.00
N399   N     0.42168   0.70521   0.11959   0.00000  Uiso   1.00
O400   O     0.42902   0.66509   0.13419   0.00000  Uiso   1.00
O401   O     0.37516   0.71931   0.11158   0.00000  Uiso   1.00
N402   N     0.54259   0.82229   0.37761   0.00000  Uiso   1.00
O403   O     0.58843   0.81794   0.36580   0.00000  Uiso   1.00
O404   O     0.52386   0.86163   0.37991   0.00000  Uiso   1.00
N405   N     0.41511   0.71204   0.01877   0.00000  Uiso   1.00
O406   O     0.38918   0.73696   0.48753   0.00000  Uiso   1.00
O407   O     0.39982   0.67153   0.02364   0.00000  Uiso   1.00
N408   N     0.52813   0.82851   0.47577   0.00000  Uiso   1.00
O409   O     0.49465   0.84667   0.00019   0.00000  Uiso   1.00
O410   O     0.57274   0.84738   0.47579   0.00000  Uiso   1.00
O411   O     0.83334   0.68573   0.29071   0.00000  Uiso   1.00
O412   O     0.83333   0.81428   0.20928   0.00000  Uiso   1.00
O413   O     0.83334   0.68573   0.20928   0.00000  Uiso   1.00
O414   O     0.83333   0.81427   0.29072   0.00000  Uiso   1.00
C415   C     0.83526   0.66496   0.24972   0.00000  Uiso   1.00
C416   C     0.83200   0.83482   0.25033   0.00000  Uiso   1.00
O417   O     0.75828   0.75000   0.28132   0.00000  Uiso   1.00
O418   O     0.90839   0.75001   0.21868   0.00000  Uiso   1.00
O419   O     0.75828   0.75000   0.19988   0.00000  Uiso   1.00
O420   O     0.90839   0.75000   0.30011   0.00000  Uiso   1.00
C421   C     0.73505   0.75132   0.23813   0.00000  Uiso   1.00
C422   C     0.93175   0.74863   0.26172   0.00000  Uiso   1.00
Cu423  Cu    0.83333   0.75000   0.29821   0.00000  Uiso   1.00
Cu424  Cu    0.83333   0.75001   0.20178   0.00000  Uiso   1.00
C425   C     0.68108   0.75906   0.23356   0.00000  Uiso   1.00
C426   C     0.98566   0.73931   0.26521   0.00000  Uiso   1.00
C427   C     0.83173   0.54858   0.29273   0.00000  Uiso   1.00
C428   C     0.86742   0.95053   0.22428   0.00000  Uiso   1.00
H429   H     0.82700   0.53263   0.32638   0.00000  Uiso   1.00
H430   H     0.89465   0.96639   0.20385   0.00000  Uiso   1.00
C431   C     0.83134   0.59428   0.29174   0.00000  Uiso   1.00
C432   C     0.86442   0.90482   0.22361   0.00000  Uiso   1.00
H433   H     0.82490   0.61214   0.32443   0.00000  Uiso   1.00
H434   H     0.88908   0.88645   0.20238   0.00000  Uiso   1.00
C435   C     0.83880   0.61656   0.24936   0.00000  Uiso   1.00
C436   C     0.83134   0.88285   0.25118   0.00000  Uiso   1.00
C437   C     0.84844   0.59188   0.20775   0.00000  Uiso   1.00
C438   C     0.80017   0.90727   0.27971   0.00000  Uiso   1.00
C439   C     0.84609   0.54584   0.20859   0.00000  Uiso   1.00
C440   C     0.80277   0.95337   0.27892   0.00000  Uiso   1.00
H441   H     0.85130   0.52725   0.17604   0.00000  Uiso   1.00
H442   H     0.77746   0.97219   0.29893   0.00000  Uiso   1.00
C443   C     0.83802   0.52388   0.25093   0.00000  Uiso   1.00
C444   C     0.83622   0.97526   0.25149   0.00000  Uiso   1.00
C445   C     0.87270   0.76992   0.05900   0.00000  Uiso   1.00
C446   C     0.81825   0.71262   0.44348   0.00000  Uiso   1.00
H447   H     0.90517   0.78509   0.04520   0.00000  Uiso   1.00
H448   H     0.80736   0.68224   0.45954   0.00000  Uiso   1.00
C449   C     0.87071   0.77168   0.10919   0.00000  Uiso   1.00
C450   C     0.81660   0.71375   0.39284   0.00000  Uiso   1.00
H451   H     0.89894   0.79085   0.13198   0.00000  Uiso   1.00
H452   H     0.80270   0.68493   0.37156   0.00000  Uiso   1.00
N453   N     0.83333   0.75001   0.12934   0.00000  Uiso   1.00
N454   N     0.83333   0.74999   0.37065   0.00000  Uiso   1.00
C455   C     0.79492   0.72826   0.09957   0.00000  Uiso   1.00
C456   C     0.85193   0.78611   0.39868   0.00000  Uiso   1.00
C457   C     0.79271   0.72959   0.04848   0.00000  Uiso   1.00
C458   C     0.84916   0.78790   0.44919   0.00000  Uiso   1.00
C459   C     0.83289   0.74975   0.02728   0.00000  Uiso   1.00
C460   C     0.83326   0.75022   0.47275   0.00000  Uiso   1.00
C461   C     0.99258   0.79212   0.19559   0.00000  Uiso   1.00
C462   C     0.69694   0.82424   0.17608   0.00000  Uiso   1.00
H463   H     0.72361   0.83943   0.20566   0.00000  Uiso   1.00
H464   H     0.71864   0.80759   0.14945   0.00000  Uiso   1.00
H465   H     0.67537   0.85112   0.15680   0.00000  Uiso   1.00
H466   H     0.97385   0.77251   0.16433   0.00000  Uiso   1.00
H467   H     0.96433   0.81333   0.21102   0.00000  Uiso   1.00
C468   C     0.67168   0.70299   0.30032   0.00000  Uiso   1.00
C469   C     0.96891   0.66275   0.29828   0.00000  Uiso   1.00
H470   H     0.93412   0.67048   0.31522   0.00000  Uiso   1.00
H471   H     0.95811   0.65130   0.26027   0.00000  Uiso   1.00
H472   H     0.98826   0.63540   0.31874   0.00000  Uiso   1.00
H473   H     0.70834   0.68918   0.29219   0.00000  Uiso   1.00
H474   H     0.67719   0.71698   0.33778   0.00000  Uiso   1.00
N475   N     0.86278   0.61245   0.16527   0.00000  Uiso   1.00
O476   O     0.90212   0.63924   0.16894   0.00000  Uiso   1.00
O477   O     0.84416   0.59732   0.12264   0.00000  Uiso   1.00
N478   N     0.76545   0.88658   0.30896   0.00000  Uiso   1.00
O479   O     0.74111   0.85012   0.29480   0.00000  Uiso   1.00
O480   O     0.75368   0.90684   0.34761   0.00000  Uiso   1.00
N481   N     0.75501   0.70521   0.11959   0.00000  Uiso   1.00
O482   O     0.76235   0.66509   0.13419   0.00000  Uiso   1.00
O483   O     0.70849   0.71931   0.11158   0.00000  Uiso   1.00
N484   N     0.87592   0.82229   0.37761   0.00000  Uiso   1.00
O485   O     0.92177   0.81794   0.36580   0.00000  Uiso   1.00
O486   O     0.85719   0.86163   0.37991   0.00000  Uiso   1.00
N487   N     0.74844   0.71204   0.01877   0.00000  Uiso   1.00
O488   O     0.72251   0.73696   0.48753   0.00000  Uiso   1.00
O489   O     0.73315   0.67153   0.02364   0.00000  Uiso   1.00
N490   N     0.86146   0.82851   0.47577   0.00000  Uiso   1.00
O491   O     0.82799   0.84667   0.00019   0.00000  Uiso   1.00
O492   O     0.90607   0.84738   0.47579   0.00000  Uiso   1.00
O493   O     0.16667   0.18573   0.79071   0.00000  Uiso   1.00
O494   O     0.16666   0.31428   0.70928   0.00000  Uiso   1.00
O495   O     0.16667   0.18573   0.70928   0.00000  Uiso   1.00
O496   O     0.16666   0.31427   0.79072   0.00000  Uiso   1.00
C497   C     0.16859   0.16496   0.74972   0.00000  Uiso   1.00
C498   C     0.16533   0.33482   0.75033   0.00000  Uiso   1.00
O499   O     0.09161   0.25000   0.78132   0.00000  Uiso   1.00
O500   O     0.24172   0.25001   0.71868   0.00000  Uiso   1.00
O501   O     0.09161   0.25000   0.69988   0.00000  Uiso   1.00
O502   O     0.24172   0.25000   0.80011   0.00000  Uiso   1.00
C503   C     0.06838   0.25132   0.73813   0.00000  Uiso   1.00
C504   C     0.26509   0.24863   0.76172   0.00000  Uiso   1.00
Cu505  Cu    0.16667   0.25000   0.79821   0.00000  Uiso   1.00
Cu506  Cu    0.16667   0.25001   0.70178   0.00000  Uiso   1.00
C507   C     0.01442   0.25906   0.73356   0.00000  Uiso   1.00
C508   C     0.31899   0.23931   0.76521   0.00000  Uiso   1.00
C509   C     0.16507   0.04858   0.79273   0.00000  Uiso   1.00
C510   C     0.20075   0.45053   0.72428   0.00000  Uiso   1.00
H511   H     0.16033   0.03263   0.82638   0.00000  Uiso   1.00
H512   H     0.22799   0.46639   0.70385   0.00000  Uiso   1.00
C513   C     0.16468   0.09428   0.79174   0.00000  Uiso   1.00
C514   C     0.19775   0.40482   0.72361   0.00000  Uiso   1.00
H515   H     0.15824   0.11214   0.82443   0.00000  Uiso   1.00
H516   H     0.22242   0.38645   0.70238   0.00000  Uiso   1.00
C517   C     0.17213   0.11656   0.74936   0.00000  Uiso   1.00
C518   C     0.16468   0.38285   0.75118   0.00000  Uiso   1.00
C519   C     0.18177   0.09188   0.70775   0.00000  Uiso   1.00
C520   C     0.13351   0.40727   0.77971   0.00000  Uiso   1.00
C521   C     0.17942   0.04584   0.70859   0.00000  Uiso   1.00
C522   C     0.13610   0.45337   0.77892   0.00000  Uiso   1.00
H523   H     0.18464   0.02725   0.67604   0.00000  Uiso   1.00
H524   H     0.11079   0.47219   0.79893   0.00000  Uiso   1.00
C525   C     0.17135   0.02388   0.75093   0.00000  Uiso   1.00
C526   C     0.16955   0.47526   0.75149   0.00000  Uiso   1.00
C527   C     0.20604   0.26992   0.55900   0.00000  Uiso   1.00
C528   C     0.15158   0.21262   0.94348   0.00000  Uiso   1.00
H529   H     0.23851   0.28509   0.54520   0.00000  Uiso   1.00
H530   H     0.14069   0.18224   0.95954   0.00000  Uiso   1.00
C531   C     0.20404   0.27168   0.60919   0.00000  Uiso   1.00
C532   C     0.14994   0.21375   0.89284   0.00000  Uiso   1.00
H533   H     0.23228   0.29085   0.63198   0.00000  Uiso   1.00
H534   H     0.13604   0.18493   0.87156   0.00000  Uiso   1.00
N535   N     0.16667   0.25001   0.62934   0.00000  Uiso   1.00
N536   N     0.16667   0.24999   0.87065   0.00000  Uiso   1.00
C537   C     0.12825   0.22826   0.59957   0.00000  Uiso   1.00
C538   C     0.18526   0.28611   0.89868   0.00000  Uiso   1.00
C539   C     0.12604   0.22959   0.54848   0.00000  Uiso   1.00
C540   C     0.18250   0.28790   0.94919   0.00000  Uiso   1.00
C541   C     0.16622   0.24975   0.52728   0.00000  Uiso   1.00
C542   C     0.16659   0.25022   0.97275   0.00000  Uiso   1.00
C543   C     0.32591   0.29212   0.69559   0.00000  Uiso   1.00
C544   C     0.03027   0.32424   0.67608   0.00000  Uiso   1.00
H545   H     0.05695   0.33943   0.70566   0.00000  Uiso   1.00
H546   H     0.05198   0.30759   0.64945   0.00000  Uiso   1.00
H547   H     0.00870   0.35112   0.65680   0.00000  Uiso   1.00
H548   H     0.30719   0.27251   0.66433   0.00000  Uiso   1.00
H549   H     0.29767   0.31333   0.71102   0.00000  Uiso   1.00
C550   C     0.00501   0.20299   0.80032   0.00000  Uiso   1.00
C551   C     0.30224   0.16275   0.79828   0.00000  Uiso   1.00
H552   H     0.26746   0.17048   0.81522   0.00000  Uiso   1.00
H553   H     0.29145   0.15130   0.76027   0.00000  Uiso   1.00
H554   H     0.32159   0.13540   0.81874   0.00000  Uiso   1.00
H555   H     0.04168   0.18918   0.79219   0.00000  Uiso   1.00
H556   H     0.01053   0.21698   0.83778   0.00000  Uiso   1.00
N557   N     0.19612   0.11245   0.66527   0.00000  Uiso   1.00
O558   O     0.23545   0.13924   0.66894   0.00000  Uiso   1.00
O559   O     0.17750   0.09732   0.62264   0.00000  Uiso   1.00
N560   N     0.09879   0.38658   0.80896   0.00000  Uiso   1.00
O561   O     0.07445   0.35012   0.79480   0.00000  Uiso   1.00
O562   O     0.08701   0.40684   0.84761   0.00000  Uiso   1.00
N563   N     0.08834   0.20521   0.61959   0.00000  Uiso   1.00
O564   O     0.09569   0.16509   0.63419   0.00000  Uiso   1.00
O565   O     0.04182   0.21931   0.61158   0.00000  Uiso   1.00
N566   N     0.20926   0.32229   0.87761   0.00000  Uiso   1.00
O567   O     0.25510   0.31794   0.86580   0.00000  Uiso   1.00
O568   O     0.19053   0.36163   0.87991   0.00000  Uiso   1.00
N569   N     0.08178   0.21204   0.51877   0.00000  Uiso   1.00
O570   O     0.05585   0.23696   0.98753   0.00000  Uiso   1.00
O571   O     0.06648   0.17153   0.52364   0.00000  Uiso   1.00
N572   N     0.19479   0.32851   0.97577   0.00000  Uiso   1.00
O573   O     0.16132   0.34667   0.50019   0.00000  Uiso   1.00
O574   O     0.23940   0.34738   0.97579   0.00000  Uiso   1.00
O575   O     0.50000   0.18573   0.79071   0.00000  Uiso   1.00
O576   O     0.50000   0.31428   0.70928   0.00000  Uiso   1.00
O577   O     0.50000   0.18573   0.70928   0.00000  Uiso   1.00
O578   O     0.50000   0.31427   0.79072   0.00000  Uiso   1.00
C579   C     0.50193   0.16496   0.74972   0.00000  Uiso   1.00
C580   C     0.49867   0.33482   0.75033   0.00000  Uiso   1.00
O581   O     0.42495   0.25000   0.78132   0.00000  Uiso   1.00
O582   O     0.57505   0.25001   0.71868   0.00000  Uiso   1.00
O583   O     0.42495   0.25000   0.69988   0.00000  Uiso   1.00
O584   O     0.57505   0.25000   0.80011   0.00000  Uiso   1.00
C585   C     0.40172   0.25132   0.73813   0.00000  Uiso   1.00
C586   C     0.59842   0.24863   0.76172   0.00000  Uiso   1.00
Cu587  Cu    0.50000   0.25000   0.79821   0.00000  Uiso   1.00
Cu588  Cu    0.50000   0.25001   0.70178   0.00000  Uiso   1.00
C589   C     0.34775   0.25906   0.73356   0.00000  Uiso   1.00
C590   C     0.65233   0.23931   0.76521   0.00000  Uiso   1.00
C591   C     0.49840   0.04858   0.79273   0.00000  Uiso   1.00
C592   C     0.53408   0.45053   0.72428   0.00000  Uiso   1.00
H593   H     0.49367   0.03263   0.82638   0.00000  Uiso   1.00
H594   H     0.56132   0.46639   0.70385   0.00000  Uiso   1.00
C595   C     0.49801   0.09428   0.79174   0.00000  Uiso   1.00
C596   C     0.53108   0.40482   0.72361   0.00000  Uiso   1.00
H597   H     0.49157   0.11214   0.82443   0.00000  Uiso   1.00
H598   H     0.55575   0.38645   0.70238   0.00000  Uiso   1.00
C599   C     0.50546   0.11656   0.74936   0.00000  Uiso   1.00
C600   C     0.49801   0.38285   0.75118   0.00000  Uiso   1.00
C601   C     0.51510   0.09188   0.70775   0.00000  Uiso   1.00
C602   C     0.46684   0.40727   0.77971   0.00000  Uiso   1.00
C603   C     0.51275   0.04584   0.70859   0.00000  Uiso   1.00
C604   C     0.46943   0.45337   0.77892   0.00000  Uiso   1.00
H605   H     0.51797   0.02725   0.67604   0.00000  Uiso   1.00
H606   H     0.44412   0.47219   0.79893   0.00000  Uiso   1.00
C607   C     0.50468   0.02388   0.75093   0.00000  Uiso   1.00
C608   C     0.50289   0.47526   0.75149   0.00000  Uiso   1.00
C609   C     0.53937   0.26992   0.55900   0.00000  Uiso   1.00
C610   C     0.48491   0.21262   0.94348   0.00000  Uiso   1.00
H611   H     0.57184   0.28509   0.54520   0.00000  Uiso   1.00
H612   H     0.47402   0.18224   0.95954   0.00000  Uiso   1.00
C613   C     0.53737   0.27168   0.60919   0.00000  Uiso   1.00
C614   C     0.48327   0.21375   0.89284   0.00000  Uiso   1.00
H615   H     0.56561   0.29085   0.63198   0.00000  Uiso   1.00
H616   H     0.46937   0.18493   0.87156   0.00000  Uiso   1.00
N617   N     0.50000   0.25001   0.62934   0.00000  Uiso   1.00
N618   N     0.50000   0.24999   0.87065   0.00000  Uiso   1.00
C619   C     0.46158   0.22826   0.59957   0.00000  Uiso   1.00
C620   C     0.51860   0.28611   0.89868   0.00000  Uiso   1.00
C621   C     0.45938   0.22959   0.54848   0.00000  Uiso   1.00
C622   C     0.51583   0.28790   0.94919   0.00000  Uiso   1.00
C623   C     0.49956   0.24975   0.52728   0.00000  Uiso   1.00
C624   C     0.49992   0.25022   0.97275   0.00000  Uiso   1.00
C625   C     0.65925   0.29212   0.69559   0.00000  Uiso   1.00
C626   C     0.36361   0.32424   0.67608   0.00000  Uiso   1.00
H627   H     0.39028   0.33943   0.70566   0.00000  Uiso   1.00
H628   H     0.38531   0.30759   0.64945   0.00000  Uiso   1.00
H629   H     0.34204   0.35112   0.65680   0.00000  Uiso   1.00
H630   H     0.64052   0.27251   0.66433   0.00000  Uiso   1.00
H631   H     0.63100   0.31333   0.71102   0.00000  Uiso   1.00
C632   C     0.33834   0.20299   0.80032   0.00000  Uiso   1.00
C633   C     0.63558   0.16275   0.79828   0.00000  Uiso   1.00
H634   H     0.60079   0.17048   0.81522   0.00000  Uiso   1.00
H635   H     0.62478   0.15130   0.76027   0.00000  Uiso   1.00
H636   H     0.65492   0.13540   0.81874   0.00000  Uiso   1.00
H637   H     0.37501   0.18918   0.79219   0.00000  Uiso   1.00
H638   H     0.34386   0.21698   0.83778   0.00000  Uiso   1.00
N639   N     0.52945   0.11245   0.66527   0.00000  Uiso   1.00
O640   O     0.56878   0.13924   0.66894   0.00000  Uiso   1.00
O641   O     0.51083   0.09732   0.62264   0.00000  Uiso   1.00
N642   N     0.43212   0.38658   0.80896   0.00000  Uiso   1.00
O643   O     0.40778   0.35012   0.79480   0.00000  Uiso   1.00
O644   O     0.42035   0.40684   0.84761   0.00000  Uiso   1.00
N645   N     0.42168   0.20521   0.61959   0.00000  Uiso   1.00
O646   O     0.42902   0.16509   0.63419   0.00000  Uiso   1.00
O647   O     0.37516   0.21931   0.61158   0.00000  Uiso   1.00
N648   N     0.54259   0.32229   0.87761   0.00000  Uiso   1.00
O649   O     0.58843   0.31794   0.86580   0.00000  Uiso   1.00
O650   O     0.52386   0.36163   0.87991   0.00000  Uiso   1.00
N651   N     0.41511   0.21204   0.51877   0.00000  Uiso   1.00
O652   O     0.38918   0.23696   0.98753   0.00000  Uiso   1.00
O653   O     0.39982   0.17153   0.52364   0.00000  Uiso   1.00
N654   N     0.52813   0.32851   0.97577   0.00000  Uiso   1.00
O655   O     0.49465   0.34667   0.50019   0.00000  Uiso   1.00
O656   O     0.57274   0.34738   0.97579   0.00000  Uiso   1.00
O657   O     0.83334   0.18573   0.79071   0.00000  Uiso   1.00
O658   O     0.83333   0.31428   0.70928   0.00000  Uiso   1.00
O659   O     0.83334   0.18573   0.70928   0.00000  Uiso   1.00
O660   O     0.83333   0.31427   0.79072   0.00000  Uiso   1.00
C661   C     0.83526   0.16496   0.74972   0.00000  Uiso   1.00
C662   C     0.83200   0.33482   0.75033   0.00000  Uiso   1.00
O663   O     0.75828   0.25000   0.78132   0.00000  Uiso   1.00
O664   O     0.90839   0.25001   0.71868   0.00000  Uiso   1.00
O665   O     0.75828   0.25000   0.69988   0.00000  Uiso   1.00
O666   O     0.90839   0.25000   0.80011   0.00000  Uiso   1.00
C667   C     0.73505   0.25132   0.73813   0.00000  Uiso   1.00
C668   C     0.93175   0.24863   0.76172   0.00000  Uiso   1.00
Cu669  Cu    0.83333   0.25000   0.79821   0.00000  Uiso   1.00
Cu670  Cu    0.83333   0.25001   0.70178   0.00000  Uiso   1.00
C671   C     0.68108   0.25906   0.73356   0.00000  Uiso   1.00
C672   C     0.98566   0.23931   0.76521   0.00000  Uiso   1.00
C673   C     0.83173   0.04858   0.79273   0.00000  Uiso   1.00
C674   C     0.86742   0.45053   0.72428   0.00000  Uiso   1.00
H675   H     0.82700   0.03263   0.82638   0.00000  Uiso   1.00
H676   H     0.89465   0.46639   0.70385   0.00000  Uiso   1.00
C677   C     0.83134   0.09428   0.79174   0.00000  Uiso   1.00
C678   C     0.86442   0.40482   0.72361   0.00000  Uiso   1.00
H679   H     0.82490   0.11214   0.82443   0.00000  Uiso   1.00
H680   H     0.88908   0.38645   0.70238   0.00000  Uiso   1.00
C681   C     0.83880   0.11656   0.74936   0.00000  Uiso   1.00
C682   C     0.83134   0.38285   0.75118   0.00000  Uiso   1.00
C683   C     0.84844   0.09188   0.70775   0.00000  Uiso   1.00
C684   C     0.80017   0.40727   0.77971   0.00000  Uiso   1.00
C685   C     0.84609   0.04584   0.70859   0.00000  Uiso   1.00
C686   C     0.80277   0.45337   0.77892   0.00000  Uiso   1.00
H687   H     0.85130   0.02725   0.67604   0.00000  Uiso   1.00
H688   H     0.77746   0.47219   0.79893   0.00000  Uiso   1.00
C689   C     0.83802   0.02388   0.75093   0.00000  Uiso   1.00
C690   C     0.83622   0.47526   0.75149   0.00000  Uiso   1.00
C691   C     0.87270   0.26992   0.55900   0.00000  Uiso   1.00
C692   C     0.81825   0.21262   0.94348   0.00000  Uiso   1.00
H693   H     0.90517   0.28509   0.54520   0.00000  Uiso   1.00
H694   H     0.80736   0.18224   0.95954   0.00000  Uiso   1.00
C695   C     0.87071   0.27168   0.60919   0.00000  Uiso   1.00
C696   C     0.81660   0.21375   0.89284   0.00000  Uiso   1.00
H697   H     0.89894   0.29085   0.63198   0.00000  Uiso   1.00
H698   H     0.80270   0.18493   0.87156   0.00000  Uiso   1.00
N699   N     0.83333   0.25001   0.62934   0.00000  Uiso   1.00
N700   N     0.83333   0.24999   0.87065   0.00000  Uiso   1.00
C701   C     0.79492   0.22826   0.59957   0.00000  Uiso   1.00
C702   C     0.85193   0.28611   0.89868   0.00000  Uiso   1.00
C703   C     0.79271   0.22959   0.54848   0.00000  Uiso   1.00
C704   C     0.84916   0.28790   0.94919   0.00000  Uiso   1.00
C705   C     0.83289   0.24975   0.52728   0.00000  Uiso   1.00
C706   C     0.83326   0.25022   0.97275   0.00000  Uiso   1.00
C707   C     0.99258   0.29212   0.69559   0.00000  Uiso   1.00
C708   C     0.69694   0.32424   0.67608   0.00000  Uiso   1.00
H709   H     0.72361   0.33943   0.70566   0.00000  Uiso   1.00
H710   H     0.71864   0.30759   0.64945   0.00000  Uiso   1.00
H711   H     0.67537   0.35112   0.65680   0.00000  Uiso   1.00
H712   H     0.97385   0.27251   0.66433   0.00000  Uiso   1.00
H713   H     0.96433   0.31333   0.71102   0.00000  Uiso   1.00
C714   C     0.67168   0.20299   0.80032   0.00000  Uiso   1.00
C715   C     0.96891   0.16275   0.79828   0.00000  Uiso   1.00
H716   H     0.93412   0.17048   0.81522   0.00000  Uiso   1.00
H717   H     0.95811   0.15130   0.76027   0.00000  Uiso   1.00
H718   H     0.98826   0.13540   0.81874   0.00000  Uiso   1.00
H719   H     0.70834   0.18918   0.79219   0.00000  Uiso   1.00
H720   H     0.67719   0.21698   0.83778   0.00000  Uiso   1.00
N721   N     0.86278   0.11245   0.66527   0.00000  Uiso   1.00
O722   O     0.90212   0.13924   0.66894   0.00000  Uiso   1.00
O723   O     0.84416   0.09732   0.62264   0.00000  Uiso   1.00
N724   N     0.76545   0.38658   0.80896   0.00000  Uiso   1.00
O725   O     0.74111   0.35012   0.79480   0.00000  Uiso   1.00
O726   O     0.75368   0.40684   0.84761   0.00000  Uiso   1.00
N727   N     0.75501   0.20521   0.61959   0.00000  Uiso   1.00
O728   O     0.76235   0.16509   0.63419   0.00000  Uiso   1.00
O729   O     0.70849   0.21931   0.61158   0.00000  Uiso   1.00
N730   N     0.87592   0.32229   0.87761   0.00000  Uiso   1.00
O731   O     0.92177   0.31794   0.86580   0.00000  Uiso   1.00
O732   O     0.85719   0.36163   0.87991   0.00000  Uiso   1.00
N733   N     0.74844   0.21204   0.51877   0.00000  Uiso   1.00
O734   O     0.72251   0.23696   0.98753   0.00000  Uiso   1.00
O735   O     0.73315   0.17153   0.52364   0.00000  Uiso   1.00
N736   N     0.86146   0.32851   0.97577   0.00000  Uiso   1.00
O737   O     0.82799   0.34667   0.50019   0.00000  Uiso   1.00
O738   O     0.90607   0.34738   0.97579   0.00000  Uiso   1.00
O739   O     0.16667   0.68573   0.79071   0.00000  Uiso   1.00
O740   O     0.16666   0.81428   0.70928   0.00000  Uiso   1.00
O741   O     0.16667   0.68573   0.70928   0.00000  Uiso   1.00
O742   O     0.16666   0.81427   0.79072   0.00000  Uiso   1.00
C743   C     0.16859   0.66496   0.74972   0.00000  Uiso   1.00
C744   C     0.16533   0.83482   0.75033   0.00000  Uiso   1.00
O745   O     0.09161   0.75000   0.78132   0.00000  Uiso   1.00
O746   O     0.24172   0.75001   0.71868   0.00000  Uiso   1.00
O747   O     0.09161   0.75000   0.69988   0.00000  Uiso   1.00
O748   O     0.24172   0.75000   0.80011   0.00000  Uiso   1.00
C749   C     0.06838   0.75132   0.73813   0.00000  Uiso   1.00
C750   C     0.26509   0.74863   0.76172   0.00000  Uiso   1.00
Cu751  Cu    0.16667   0.75000   0.79821   0.00000  Uiso   1.00
Cu752  Cu    0.16667   0.75001   0.70178   0.00000  Uiso   1.00
C753   C     0.01442   0.75906   0.73356   0.00000  Uiso   1.00
C754   C     0.31899   0.73931   0.76521   0.00000  Uiso   1.00
C755   C     0.16507   0.54858   0.79273   0.00000  Uiso   1.00
C756   C     0.20075   0.95053   0.72428   0.00000  Uiso   1.00
H757   H     0.16033   0.53263   0.82638   0.00000  Uiso   1.00
H758   H     0.22799   0.96639   0.70385   0.00000  Uiso   1.00
C759   C     0.16468   0.59428   0.79174   0.00000  Uiso   1.00
C760   C     0.19775   0.90482   0.72361   0.00000  Uiso   1.00
H761   H     0.15824   0.61214   0.82443   0.00000  Uiso   1.00
H762   H     0.22242   0.88645   0.70238   0.00000  Uiso   1.00
C763   C     0.17213   0.61656   0.74936   0.00000  Uiso   1.00
C764   C     0.16468   0.88285   0.75118   0.00000  Uiso   1.00
C765   C     0.18177   0.59188   0.70775   0.00000  Uiso   1.00
C766   C     0.13351   0.90727   0.77971   0.00000  Uiso   1.00
C767   C     0.17942   0.54584   0.70859   0.00000  Uiso   1.00
C768   C     0.13610   0.95337   0.77892   0.00000  Uiso   1.00
H769   H     0.18464   0.52725   0.67604   0.00000  Uiso   1.00
H770   H     0.11079   0.97219   0.79893   0.00000  Uiso   1.00
C771   C     0.17135   0.52388   0.75093   0.00000  Uiso   1.00
C772   C     0.16955   0.97526   0.75149   0.00000  Uiso   1.00
C773   C     0.20604   0.76992   0.55900   0.00000  Uiso   1.00
C774   C     0.15158   0.71262   0.94348   0.00000  Uiso   1.00
H775   H     0.23851   0.78509   0.54520   0.00000  Uiso   1.00
H776   H     0.14069   0.68224   0.95954   0.00000  Uiso   1.00
C777   C     0.20404   0.77168   0.60919   0.00000  Uiso   1.00
C778   C     0.14994   0.71375   0.89284   0.00000  Uiso   1.00
H779   H     0.23228   0.79085   0.63198   0.00000  Uiso   1.00
H780   H     0.13604   0.68493   0.87156   0.00000  Uiso   1.00
N781   N     0.16667   0.75001   0.62934   0.00000  Uiso   1.00
N782   N     0.16667   0.74999   0.87065   0.00000  Uiso   1.00
C783   C     0.12825   0.72826   0.59957   0.00000  Uiso   1.00
C784   C     0.18526   0.78611   0.89868   0.00000  Uiso   1.00
C785   C     0.12604   0.72959   0.54848   0.00000  Uiso   1.00
C786   C     0.18250   0.78790   0.94919   0.00000  Uiso   1.00
C787   C     0.16622   0.74975   0.52728   0.00000  Uiso   1.00
C788   C     0.16659   0.75022   0.97275   0.00000  Uiso   1.00
C789   C     0.32591   0.79212   0.69559   0.00000  Uiso   1.00
C790   C     0.03027   0.82424   0.67608   0.00000  Uiso   1.00
H791   H     0.05695   0.83943   0.70566   0.00000  Uiso   1.00
H792   H     0.05198   0.80759   0.64945   0.00000  Uiso   1.00
H793   H     0.00870   0.85112   0.65680   0.00000  Uiso   1.00
H794   H     0.30719   0.77251   0.66433   0.00000  Uiso   1.00
H795   H     0.29767   0.81333   0.71102   0.00000  Uiso   1.00
C796   C     0.00501   0.70299   0.80032   0.00000  Uiso   1.00
C797   C     0.30224   0.66275   0.79828   0.00000  Uiso   1.00
H798   H     0.26746   0.67048   0.81522   0.00000  Uiso   1.00
H799   H     0.29145   0.65130   0.76027   0.00000  Uiso   1.00
H800   H     0.32159   0.63540   0.81874   0.00000  Uiso   1.00
H801   H     0.04168   0.68918   0.79219   0.00000  Uiso   1.00
H802   H     0.01053   0.71698   0.83778   0.00000  Uiso   1.00
N803   N     0.19612   0.61245   0.66527   0.00000  Uiso   1.00
O804   O     0.23545   0.63924   0.66894   0.00000  Uiso   1.00
O805   O     0.17750   0.59732   0.62264   0.00000  Uiso   1.00
N806   N     0.09879   0.88658   0.80896   0.00000  Uiso   1.00
O807   O     0.07445   0.85012   0.79480   0.00000  Uiso   1.00
O808   O     0.08701   0.90684   0.84761   0.00000  Uiso   1.00
N809   N     0.08834   0.70521   0.61959   0.00000  Uiso   1.00
O810   O     0.09569   0.66509   0.63419   0.00000  Uiso   1.00
O811   O     0.04182   0.71931   0.61158   0.00000  Uiso   1.00
N812   N     0.20926   0.82229   0.87761   0.00000  Uiso   1.00
O813   O     0.25510   0.81794   0.86580   0.00000  Uiso   1.00
O814   O     0.19053   0.86163   0.87991   0.00000  Uiso   1.00
N815   N     0.08178   0.71204   0.51877   0.00000  Uiso   1.00
O816   O     0.05585   0.73696   0.98753   0.00000  Uiso   1.00
O817   O     0.06648   0.67153   0.52364   0.00000  Uiso   1.00
N818   N     0.19479   0.82851   0.97577   0.00000  Uiso   1.00
O819   O     0.16132   0.84667   0.50019   0.00000  Uiso   1.00
O820   O     0.23940   0.84738   0.97579   0.00000  Uiso   1.00
O821   O     0.50000   0.68573   0.79071   0.00000  Uiso   1.00
O822   O     0.50000   0.81428   0.70928   0.00000  Uiso   1.00
O823   O     0.50000   0.68573   0.70928   0.00000  Uiso   1.00
O824   O     0.50000   0.81427   0.79072   0.00000  Uiso   1.00
C825   C     0.50193   0.66496   0.74972   0.00000  Uiso   1.00
C826   C     0.49867   0.83482   0.75033   0.00000  Uiso   1.00
O827   O     0.42495   0.75000   0.78132   0.00000  Uiso   1.00
O828   O     0.57505   0.75001   0.71868   0.00000  Uiso   1.00
O829   O     0.42495   0.75000   0.69988   0.00000  Uiso   1.00
O830   O     0.57505   0.75000   0.80011   0.00000  Uiso   1.00
C831   C     0.40172   0.75132   0.73813   0.00000  Uiso   1.00
C832   C     0.59842   0.74863   0.76172   0.00000  Uiso   1.00
Cu833  Cu    0.50000   0.75000   0.79821   0.00000  Uiso   1.00
Cu834  Cu    0.50000   0.75001   0.70178   0.00000  Uiso   1.00
C835   C     0.34775   0.75906   0.73356   0.00000  Uiso   1.00
C836   C     0.65233   0.73931   0.76521   0.00000  Uiso   1.00
C837   C     0.49840   0.54858   0.79273   0.00000  Uiso   1.00
C838   C     0.53408   0.95053   0.72428   0.00000  Uiso   1.00
H839   H     0.49367   0.53263   0.82638   0.00000  Uiso   1.00
H840   H     0.56132   0.96639   0.70385   0.00000  Uiso   1.00
C841   C     0.49801   0.59428   0.79174   0.00000  Uiso   1.00
C842   C     0.53108   0.90482   0.72361   0.00000  Uiso   1.00
H843   H     0.49157   0.61214   0.82443   0.00000  Uiso   1.00
H844   H     0.55575   0.88645   0.70238   0.00000  Uiso   1.00
C845   C     0.50546   0.61656   0.74936   0.00000  Uiso   1.00
C846   C     0.49801   0.88285   0.75118   0.00000  Uiso   1.00
C847   C     0.51510   0.59188   0.70775   0.00000  Uiso   1.00
C848   C     0.46684   0.90727   0.77971   0.00000  Uiso   1.00
C849   C     0.51275   0.54584   0.70859   0.00000  Uiso   1.00
C850   C     0.46943   0.95337   0.77892   0.00000  Uiso   1.00
H851   H     0.51797   0.52725   0.67604   0.00000  Uiso   1.00
H852   H     0.44412   0.97219   0.79893   0.00000  Uiso   1.00
C853   C     0.50468   0.52388   0.75093   0.00000  Uiso   1.00
C854   C     0.50289   0.97526   0.75149   0.00000  Uiso   1.00
C855   C     0.53937   0.76992   0.55900   0.00000  Uiso   1.00
C856   C     0.48491   0.71262   0.94348   0.00000  Uiso   1.00
H857   H     0.57184   0.78509   0.54520   0.00000  Uiso   1.00
H858   H     0.47402   0.68224   0.95954   0.00000  Uiso   1.00
C859   C     0.53737   0.77168   0.60919   0.00000  Uiso   1.00
C860   C     0.48327   0.71375   0.89284   0.00000  Uiso   1.00
H861   H     0.56561   0.79085   0.63198   0.00000  Uiso   1.00
H862   H     0.46937   0.68493   0.87156   0.00000  Uiso   1.00
N863   N     0.50000   0.75001   0.62934   0.00000  Uiso   1.00
N864   N     0.50000   0.74999   0.87065   0.00000  Uiso   1.00
C865   C     0.46158   0.72826   0.59957   0.00000  Uiso   1.00
C866   C     0.51860   0.78611   0.89868   0.00000  Uiso   1.00
C867   C     0.45938   0.72959   0.54848   0.00000  Uiso   1.00
C868   C     0.51583   0.78790   0.94919   0.00000  Uiso   1.00
C869   C     0.49956   0.74975   0.52728   0.00000  Uiso   1.00
C870   C     0.49992   0.75022   0.97275   0.00000  Uiso   1.00
C871   C     0.65925   0.79212   0.69559   0.00000  Uiso   1.00
C872   C     0.36361   0.82424   0.67608   0.00000  Uiso   1.00
H873   H     0.39028   0.83943   0.70566   0.00000  Uiso   1.00
H874   H     0.38531   0.80759   0.64945   0.00000  Uiso   1.00
H875   H     0.34204   0.85112   0.65680   0.00000  Uiso   1.00
H876   H     0.64052   0.77251   0.66433   0.00000  Uiso   1.00
H877   H     0.63100   0.81333   0.71102   0.00000  Uiso   1.00
C878   C     0.33834   0.70299   0.80032   0.00000  Uiso   1.00
C879   C     0.63558   0.66275   0.79828   0.00000  Uiso   1.00
H880   H     0.60079   0.67048   0.81522   0.00000  Uiso   1.00
H881   H     0.62478   0.65130   0.76027   0.00000  Uiso   1.00
H882   H     0.65492   0.63540   0.81874   0.00000  Uiso   1.00
H883   H     0.37501   0.68918   0.79219   0.00000  Uiso   1.00
H884   H     0.34386   0.71698   0.83778   0.00000  Uiso   1.00
N885   N     0.52945   0.61245   0.66527   0.00000  Uiso   1.00
O886   O     0.56878   0.63924   0.66894   0.00000  Uiso   1.00
O887   O     0.51083   0.59732   0.62264   0.00000  Uiso   1.00
N888   N     0.43212   0.88658   0.80896   0.00000  Uiso   1.00
O889   O     0.40778   0.85012   0.79480   0.00000  Uiso   1.00
O890   O     0.42035   0.90684   0.84761   0.00000  Uiso   1.00
N891   N     0.42168   0.70521   0.61959   0.00000  Uiso   1.00
O892   O     0.42902   0.66509   0.63419   0.00000  Uiso   1.00
O893   O     0.37516   0.71931   0.61158   0.00000  Uiso   1.00
N894   N     0.54259   0.82229   0.87761   0.00000  Uiso   1.00
O895   O     0.58843   0.81794   0.86580   0.00000  Uiso   1.00
O896   O     0.52386   0.86163   0.87991   0.00000  Uiso   1.00
N897   N     0.41511   0.71204   0.51877   0.00000  Uiso   1.00
O898   O     0.38918   0.73696   0.98753   0.00000  Uiso   1.00
O899   O     0.39982   0.67153   0.52364   0.00000  Uiso   1.00
N900   N     0.52813   0.82851   0.97577   0.00000  Uiso   1.00
O901   O     0.49465   0.84667   0.50019   0.00000  Uiso   1.00
O902   O     0.57274   0.84738   0.97579   0.00000  Uiso   1.00
O903   O     0.83334   0.68573   0.79071   0.00000  Uiso   1.00
O904   O     0.83333   0.81428   0.70928   0.00000  Uiso   1.00
O905   O     0.83334   0.68573   0.70928   0.00000  Uiso   1.00
O906   O     0.83333   0.81427   0.79072   0.00000  Uiso   1.00
C907   C     0.83526   0.66496   0.74972   0.00000  Uiso   1.00
C908   C     0.83200   0.83482   0.75033   0.00000  Uiso   1.00
O909   O     0.75828   0.75000   0.78132   0.00000  Uiso   1.00
O910   O     0.90839   0.75001   0.71868   0.00000  Uiso   1.00
O911   O     0.75828   0.75000   0.69988   0.00000  Uiso   1.00
O912   O     0.90839   0.75000   0.80011   0.00000  Uiso   1.00
C913   C     0.73505   0.75132   0.73813   0.00000  Uiso   1.00
C914   C     0.93175   0.74863   0.76172   0.00000  Uiso   1.00
Cu915  Cu    0.83333   0.75000   0.79821   0.00000  Uiso   1.00
Cu916  Cu    0.83333   0.75001   0.70178   0.00000  Uiso   1.00
C917   C     0.68108   0.75906   0.73356   0.00000  Uiso   1.00
C918   C     0.98566   0.73931   0.76521   0.00000  Uiso   1.00
C919   C     0.83173   0.54858   0.79273   0.00000  Uiso   1.00
C920   C     0.86742   0.95053   0.72428   0.00000  Uiso   1.00
H921   H     0.82700   0.53263   0.82638   0.00000  Uiso   1.00
H922   H     0.89465   0.96639   0.70385   0.00000  Uiso   1.00
C923   C     0.83134   0.59428   0.79174   0.00000  Uiso   1.00
C924   C     0.86442   0.90482   0.72361   0.00000  Uiso   1.00
H925   H     0.82490   0.61214   0.82443   0.00000  Uiso   1.00
H926   H     0.88908   0.88645   0.70238   0.00000  Uiso   1.00
C927   C     0.83880   0.61656   0.74936   0.00000  Uiso   1.00
C928   C     0.83134   0.88285   0.75118   0.00000  Uiso   1.00
C929   C     0.84844   0.59188   0.70775   0.00000  Uiso   1.00
C930   C     0.80017   0.90727   0.77971   0.00000  Uiso   1.00
C931   C     0.84609   0.54584   0.70859   0.00000  Uiso   1.00
C932   C     0.80277   0.95337   0.77892   0.00000  Uiso   1.00
H933   H     0.85130   0.52725   0.67604   0.00000  Uiso   1.00
H934   H     0.77746   0.97219   0.79893   0.00000  Uiso   1.00
C935   C     0.83802   0.52388   0.75093   0.00000  Uiso   1.00
C936   C     0.83622   0.97526   0.75149   0.00000  Uiso   1.00
C937   C     0.87270   0.76992   0.55900   0.00000  Uiso   1.00
C938   C     0.81825   0.71262   0.94348   0.00000  Uiso   1.00
H939   H     0.90517   0.78509   0.54520   0.00000  Uiso   1.00
H940   H     0.80736   0.68224   0.95954   0.00000  Uiso   1.00
C941   C     0.87071   0.77168   0.60919   0.00000  Uiso   1.00
C942   C     0.81660   0.71375   0.89284   0.00000  Uiso   1.00
H943   H     0.89894   0.79085   0.63198   0.00000  Uiso   1.00
H944   H     0.80270   0.68493   0.87156   0.00000  Uiso   1.00
N945   N     0.83333   0.75001   0.62934   0.00000  Uiso   1.00
N946   N     0.83333   0.74999   0.87065   0.00000  Uiso   1.00
C947   C     0.79492   0.72826   0.59957   0.00000  Uiso   1.00
C948   C     0.85193   0.78611   0.89868   0.00000  Uiso   1.00
C949   C     0.79271   0.72959   0.54848   0.00000  Uiso   1.00
C950   C     0.84916   0.78790   0.94919   0.00000  Uiso   1.00
C951   C     0.83289   0.74975   0.52728   0.00000  Uiso   1.00
C952   C     0.83326   0.75022   0.97275   0.00000  Uiso   1.00
C953   C     0.99258   0.79212   0.69559   0.00000  Uiso   1.00
C954   C     0.69694   0.82424   0.67608   0.00000  Uiso   1.00
H955   H     0.72361   0.83943   0.70566   0.00000  Uiso   1.00
H956   H     0.71864   0.80759   0.64945   0.00000  Uiso   1.00
H957   H     0.67537   0.85112   0.65680   0.00000  Uiso   1.00
H958   H     0.97385   0.77251   0.66433   0.00000  Uiso   1.00
H959   H     0.96433   0.81333   0.71102   0.00000  Uiso   1.00
C960   C     0.67168   0.70299   0.80032   0.00000  Uiso   1.00
C961   C     0.96891   0.66275   0.79828   0.00000  Uiso   1.00
H962   H     0.93412   0.67048   0.81522   0.00000  Uiso   1.00
H963   H     0.95811   0.65130   0.76027   0.00000  Uiso   1.00
H964   H     0.98826   0.63540   0.81874   0.00000  Uiso   1.00
H965   H     0.70834   0.68918   0.79219   0.00000  Uiso   1.00
H966   H     0.67719   0.71698   0.83778   0.00000  Uiso   1.00
N967   N     0.86278   0.61245   0.66527   0.00000  Uiso   1.00
O968   O     0.90212   0.63924   0.66894   0.00000  Uiso   1.00
O969   O     0.84416   0.59732   0.62264   0.00000  Uiso   1.00
N970   N     0.76545   0.88658   0.80896   0.00000  Uiso   1.00
O971   O     0.74111   0.85012   0.79480   0.00000  Uiso   1.00
O972   O     0.75368   0.90684   0.84761   0.00000  Uiso   1.00
N973   N     0.75501   0.70521   0.61959   0.00000  Uiso   1.00
O974   O     0.76235   0.66509   0.63419   0.00000  Uiso   1.00
O975   O     0.70849   0.71931   0.61158   0.00000  Uiso   1.00
N976   N     0.87592   0.82229   0.87761   0.00000  Uiso   1.00
O977   O     0.92177   0.81794   0.86580   0.00000  Uiso   1.00
O978   O     0.85719   0.86163   0.87991   0.00000  Uiso   1.00
N979   N     0.74844   0.71204   0.51877   0.00000  Uiso   1.00
O980   O     0.72251   0.73696   0.98753   0.00000  Uiso   1.00
O981   O     0.73315   0.67153   0.52364   0.00000  Uiso   1.00
N982   N     0.86146   0.82851   0.97577   0.00000  Uiso   1.00
O983   O     0.82799   0.84667   0.50019   0.00000  Uiso   1.00
O984   O     0.90607   0.84738   0.97579   0.00000  Uiso   1.00
loop_
_geom_bond_atom_site_label_1
_geom_bond_atom_site_label_2
_geom_bond_distance
_geom_bond_site_symmetry_2
_ccdc_geom_bond_type
O1     C5      1.300   .     A
O1     Cu13    1.955   .     S
O2     C6      1.296   .     A
O2     Cu14    1.955   .     S
O3     Cu14    1.963   .     S
O3     C5      1.297   .     A
O4     Cu13    1.963   .     S
O4     C6      1.294   .     A
C5     C25     1.471   .     S
C6     C26     1.456   .     S
O7     C11     1.285   .     A
O7     Cu13    1.981   .     S
O8     C12     1.282   .     A
O8     Cu14    1.981   .     S
O9     Cu14    1.976   .     S
O9     C11     1.293   .     A
O10    C12     1.298   .     A
O10    Cu13    1.976   .     S
C11    C15     1.438   .     S
C12    C16     1.447   .     S
Cu13   Cu14    2.687   .     S
Cu13   N44     2.018   .     S
Cu14   N43     2.018   .     S
C15    C180    1.371   1_455 S
C15    C215    1.538   1_455 S
C16    C97     1.371   .     S
C16    C140    1.539   .     S
C17    C33     1.400   .     A
C17    C21     1.386   .     A
C17    H19     1.083   .     S
C18    C22     1.386   .     A
C18    C34     1.401   .     A
C18    H20     1.082   .     S
C21    H23     1.083   .     S
C21    C25     1.404   .     A
C22    H24     1.084   .     S
C22    C26     1.400   .     A
C25    C27     1.419   .     A
C26    C28     1.418   .     A
C27    C29     1.397   .     A
C27    N65     1.436   .     S
C28    N68     1.443   .     S
C28    C30     1.399   .     A
C29    C33     1.402   .     A
C29    H31     1.083   .     S
C30    C34     1.404   .     A
C30    H32     1.083   .     S
C33    C280    1.474   1_545 S
C34    C279    1.474   .     S
C35    H37     1.081   .     S
C35    C49     1.412   .     A
C35    C39     1.406   .     A
C36    C40     1.408   .     A
C36    H38     1.082   .     S
C36    C50     1.412   .     A
C39    N43     1.360   .     A
C39    H41     1.074   .     S
C40    H42     1.080   .     S
C40    N44     1.364   .     A
N43    C45     1.381   .     A
N44    C46     1.381   .     A
C45    N71     1.430   .     S
C45    C47     1.419   .     A
C46    C48     1.418   .     A
C46    N74     1.429   .     S
C47    C49     1.412   .     A
C47    N77     1.437   .     S
C48    N80     1.436   .     S
C48    C50     1.412   .     A
C49    C542    1.521   1_554 S
C50    C541    1.521   .     S
C51    H56     1.106   .     S
C51    H57     1.112   .     S
C51    C97     1.538   .     S
C51    C134    1.535   .     S
C52    H54     1.109   .     S
C52    H55     1.111   .     S
C52    H53     1.106   .     S
C52    C215    1.535   1_455 S
C58    H64     1.111   .     S
C58    H63     1.107   .     S
C58    C180    1.539   1_455 S
C58    C223    1.532   1_455 S
C59    H60     1.108   .     S
C59    H61     1.111   .     S
C59    H62     1.111   .     S
C59    C140    1.532   .     S
N65    O67     1.301   .     A
N65    O66     1.301   .     A
N68    O69     1.300   .     A
N68    O70     1.302   .     A
N71    O73     1.302   .     A
N71    O72     1.300   .     A
N74    O76     1.301   .     A
N74    O75     1.300   .     A
N77    O79     1.301   .     A
N77    O570    1.301   1_554 S
O78    N569    1.301   .     S
N80    O82     1.301   .     A
N80    O573    1.301   .     S
O81    N572    1.301   1_554 S
O83    C87     1.300   .     A
O83    Cu95    1.955   .     S
O84    C88     1.296   .     A
O84    Cu96    1.955   .     S
O85    Cu96    1.963   .     S
O85    C87     1.297   .     A
O86    Cu95    1.963   .     S
O86    C88     1.294   .     A
C87    C107    1.471   .     S
C88    C108    1.456   .     S
O89    C93     1.285   .     A
O89    Cu95    1.981   .     S
O90    C94     1.282   .     A
O90    Cu96    1.981   .     S
O91    Cu96    1.976   .     S
O91    C93     1.293   .     A
O92    C94     1.298   .     A
O92    Cu95    1.976   .     S
C93    C97     1.438   .     S
C94    C98     1.447   .     S
Cu95   Cu96    2.687   .     S
Cu95   N126    2.018   .     S
Cu96   N125    2.018   .     S
C98    C179    1.371   .     S
C98    C222    1.539   .     S
C99    C115    1.400   .     A
C99    C103    1.386   .     A
C99    H101    1.083   .     S
C100   C104    1.386   .     A
C100   C116    1.401   .     A
C100   H102    1.082   .     S
C103   H105    1.083   .     S
C103   C107    1.404   .     A
C104   H106    1.084   .     S
C104   C108    1.400   .     A
C107   C109    1.419   .     A
C108   C110    1.418   .     A
C109   C111    1.397   .     A
C109   N147    1.436   .     S
C110   N150    1.443   .     S
C110   C112    1.399   .     A
C111   C115    1.402   .     A
C111   H113    1.083   .     S
C112   C116    1.404   .     A
C112   H114    1.083   .     S
C115   C362    1.474   1_545 S
C116   C361    1.474   .     S
C117   H119    1.081   .     S
C117   C131    1.412   .     A
C117   C121    1.406   .     A
C118   C122    1.408   .     A
C118   H120    1.082   .     S
C118   C132    1.412   .     A
C121   N125    1.360   .     A
C121   H123    1.074   .     S
C122   H124    1.080   .     S
C122   N126    1.364   .     A
N125   C127    1.381   .     A
N126   C128    1.381   .     A
C127   N153    1.430   .     S
C127   C129    1.419   .     A
C128   C130    1.418   .     A
C128   N156    1.429   .     S
C129   C131    1.412   .     A
C129   N159    1.437   .     S
C130   N162    1.436   .     S
C130   C132    1.412   .     A
C131   C624    1.521   1_554 S
C132   C623    1.521   .     S
C133   H138    1.106   .     S
C133   H139    1.112   .     S
C133   C179    1.538   .     S
C133   C216    1.535   .     S
C134   H136    1.109   .     S
C134   H137    1.111   .     S
C134   H135    1.106   .     S
C140   H146    1.111   .     S
C140   H145    1.107   .     S
C141   H142    1.108   .     S
C141   H143    1.111   .     S
C141   H144    1.111   .     S
C141   C222    1.532   .     S
N147   O149    1.301   .     A
N147   O148    1.301   .     A
N150   O151    1.300   .     A
N150   O152    1.302   .     A
N153   O155    1.302   .     A
N153   O154    1.300   .     A
N156   O158    1.301   .     A
N156   O157    1.300   .     A
N159   O161    1.301   .     A
N159   O652    1.301   1_554 S
O160   N651    1.301   .     S
N162   O164    1.301   .     A
N162   O655    1.301   .     S
O163   N654    1.301   1_554 S
O165   C169    1.300   .     A
O165   Cu177   1.955   .     S
O166   C170    1.296   .     A
O166   Cu178   1.955   .     S
O167   Cu178   1.963   .     S
O167   C169    1.297   .     A
O168   Cu177   1.963   .     S
O168   C170    1.294   .     A
C169   C189    1.471   .     S
C170   C190    1.456   .     S
O171   C175    1.285   .     A
O171   Cu177   1.981   .     S
O172   C176    1.282   .     A
O172   Cu178   1.981   .     S
O173   Cu178   1.976   .     S
O173   C175    1.293   .     A
O174   C176    1.298   .     A
O174   Cu177   1.976   .     S
C175   C179    1.438   .     S
C176   C180    1.447   .     S
Cu177  Cu178   2.687   .     S
Cu177  N208    2.018   .     S
Cu178  N207    2.018   .     S
C180   C15     1.371   1_655 S
C180   C58     1.539   1_655 S
C181   C197    1.400   .     A
C181   C185    1.386   .     A
C181   H183    1.083   .     S
C182   C186    1.386   .     A
C182   C198    1.401   .     A
C182   H184    1.082   .     S
C185   H187    1.083   .     S
C185   C189    1.404   .     A
C186   H188    1.084   .     S
C186   C190    1.400   .     A
C189   C191    1.419   .     A
C190   C192    1.418   .     A
C191   C193    1.397   .     A
C191   N229    1.436   .     S
C192   N232    1.443   .     S
C192   C194    1.399   .     A
C193   C197    1.402   .     A
C193   H195    1.083   .     S
C194   C198    1.404   .     A
C194   H196    1.083   .     S
C197   C444    1.474   1_545 S
C198   C443    1.474   .     S
C199   H201    1.081   .     S
C199   C213    1.412   .     A
C199   C203    1.406   .     A
C200   C204    1.408   .     A
C200   H202    1.082   .     S
C200   C214    1.412   .     A
C203   N207    1.360   .     A
C203   H205    1.074   .     S
C204   H206    1.080   .     S
C204   N208    1.364   .     A
N207   C209    1.381   .     A
N208   C210    1.381   .     A
C209   N235    1.430   .     S
C209   C211    1.419   .     A
C210   C212    1.418   .     A
C210   N238    1.429   .     S
C211   C213    1.412   .     A
C211   N241    1.437   .     S
C212   N244    1.436   .     S
C212   C214    1.412   .     A
C213   C706    1.521   1_554 S
C214   C705    1.521   .     S
C215   H220    1.106   .     S
C215   H221    1.112   .     S
C215   C15     1.538   1_655 S
C215   C52     1.535   1_655 S
C216   H218    1.109   .     S
C216   H219    1.111   .     S
C216   H217    1.106   .     S
C222   H228    1.111   .     S
C222   H227    1.107   .     S
C223   H224    1.108   .     S
C223   H225    1.111   .     S
C223   H226    1.111   .     S
C223   C58     1.532   1_655 S
N229   O231    1.301   .     A
N229   O230    1.301   .     A
N232   O233    1.300   .     A
N232   O234    1.302   .     A
N235   O237    1.302   .     A
N235   O236    1.300   .     A
N238   O240    1.301   .     A
N238   O239    1.300   .     A
N241   O243    1.301   .     A
N241   O734    1.301   1_554 S
O242   N733    1.301   .     S
N244   O246    1.301   .     A
N244   O737    1.301   .     S
O245   N736    1.301   1_554 S
O247   C251    1.300   .     A
O247   Cu259   1.955   .     S
O248   C252    1.296   .     A
O248   Cu260   1.955   .     S
O249   Cu260   1.963   .     S
O249   C251    1.297   .     A
O250   Cu259   1.963   .     S
O250   C252    1.294   .     A
C251   C271    1.471   .     S
C252   C272    1.456   .     S
O253   C257    1.285   .     A
O253   Cu259   1.981   .     S
O254   C258    1.282   .     A
O254   Cu260   1.981   .     S
O255   Cu260   1.976   .     S
O255   C257    1.293   .     A
O256   C258    1.298   .     A
O256   Cu259   1.976   .     S
C257   C261    1.438   .     S
C258   C262    1.447   .     S
Cu259  Cu260   2.687   .     S
Cu259  N290    2.018   .     S
Cu260  N289    2.018   .     S
C261   C426    1.371   1_455 S
C261   C461    1.538   1_455 S
C262   C343    1.371   .     S
C262   C386    1.539   .     S
C263   C279    1.400   .     A
C263   C267    1.386   .     A
C263   H265    1.083   .     S
C264   C268    1.386   .     A
C264   C280    1.401   .     A
C264   H266    1.082   .     S
C267   H269    1.083   .     S
C267   C271    1.404   .     A
C268   H270    1.084   .     S
C268   C272    1.400   .     A
C271   C273    1.419   .     A
C272   C274    1.418   .     A
C273   C275    1.397   .     A
C273   N311    1.436   .     S
C274   N314    1.443   .     S
C274   C276    1.399   .     A
C275   C279    1.402   .     A
C275   H277    1.083   .     S
C276   C280    1.404   .     A
C276   H278    1.083   .     S
C280   C33     1.474   1_565 S
C281   H283    1.081   .     S
C281   C295    1.412   .     A
C281   C285    1.406   .     A
C282   C286    1.408   .     A
C282   H284    1.082   .     S
C282   C296    1.412   .     A
C285   N289    1.360   .     A
C285   H287    1.074   .     S
C286   H288    1.080   .     S
C286   N290    1.364   .     A
N289   C291    1.381   .     A
N290   C292    1.381   .     A
C291   N317    1.430   .     S
C291   C293    1.419   .     A
C292   C294    1.418   .     A
C292   N320    1.429   .     S
C293   C295    1.412   .     A
C293   N323    1.437   .     S
C294   N326    1.436   .     S
C294   C296    1.412   .     A
C295   C788    1.521   1_554 S
C296   C787    1.521   .     S
C297   H302    1.106   .     S
C297   H303    1.112   .     S
C297   C343    1.538   .     S
C297   C380    1.535   .     S
C298   H300    1.109   .     S
C298   H301    1.111   .     S
C298   H299    1.106   .     S
C298   C461    1.535   1_455 S
C304   H310    1.111   .     S
C304   H309    1.107   .     S
C304   C426    1.539   1_455 S
C304   C469    1.532   1_455 S
C305   H306    1.108   .     S
C305   H307    1.111   .     S
C305   H308    1.111   .     S
C305   C386    1.532   .     S
N311   O313    1.301   .     A
N311   O312    1.301   .     A
N314   O315    1.300   .     A
N314   O316    1.302   .     A
N317   O319    1.302   .     A
N317   O318    1.300   .     A
N320   O322    1.301   .     A
N320   O321    1.300   .     A
N323   O325    1.301   .     A
N323   O816    1.301   1_554 S
O324   N815    1.301   .     S
N326   O328    1.301   .     A
N326   O819    1.301   .     S
O327   N818    1.301   1_554 S
O329   C333    1.300   .     A
O329   Cu341   1.955   .     S
O330   C334    1.296   .     A
O330   Cu342   1.955   .     S
O331   Cu342   1.963   .     S
O331   C333    1.297   .     A
O332   Cu341   1.963   .     S
O332   C334    1.294   .     A
C333   C353    1.471   .     S
C334   C354    1.456   .     S
O335   C339    1.285   .     A
O335   Cu341   1.981   .     S
O336   C340    1.282   .     A
O336   Cu342   1.981   .     S
O337   Cu342   1.976   .     S
O337   C339    1.293   .     A
O338   C340    1.298   .     A
O338   Cu341   1.976   .     S
C339   C343    1.438   .     S
C340   C344    1.447   .     S
Cu341  Cu342   2.687   .     S
Cu341  N372    2.018   .     S
Cu342  N371    2.018   .     S
C344   C425    1.371   .     S
C344   C468    1.539   .     S
C345   C361    1.400   .     A
C345   C349    1.386   .     A
C345   H347    1.083   .     S
C346   C350    1.386   .     A
C346   C362    1.401   .     A
C346   H348    1.082   .     S
C349   H351    1.083   .     S
C349   C353    1.404   .     A
C350   H352    1.084   .     S
C350   C354    1.400   .     A
C353   C355    1.419   .     A
C354   C356    1.418   .     A
C355   C357    1.397   .     A
C355   N393    1.436   .     S
C356   N396    1.443   .     S
C356   C358    1.399   .     A
C357   C361    1.402   .     A
C357   H359    1.083   .     S
C358   C362    1.404   .     A
C358   H360    1.083   .     S
C362   C115    1.474   1_565 S
C363   H365    1.081   .     S
C363   C377    1.412   .     A
C363   C367    1.406   .     A
C364   C368    1.408   .     A
C364   H366    1.082   .     S
C364   C378    1.412   .     A
C367   N371    1.360   .     A
C367   H369    1.074   .     S
C368   H370    1.080   .     S
C368   N372    1.364   .     A
N371   C373    1.381   .     A
N372   C374    1.381   .     A
C373   N399    1.430   .     S
C373   C375    1.419   .     A
C374   C376    1.418   .     A
C374   N402    1.429   .     S
C375   C377    1.412   .     A
C375   N405    1.437   .     S
C376   N408    1.436   .     S
C376   C378    1.412   .     A
C377   C870    1.521   1_554 S
C378   C869    1.521   .     S
C379   H384    1.106   .     S
C379   H385    1.112   .     S
C379   C425    1.538   .     S
C379   C462    1.535   .     S
C380   H382    1.109   .     S
C380   H383    1.111   .     S
C380   H381    1.106   .     S
C386   H392    1.111   .     S
C386   H391    1.107   .     S
C387   H388    1.108   .     S
C387   H389    1.111   .     S
C387   H390    1.111   .     S
C387   C468    1.532   .     S
N393   O395    1.301   .     A
N393   O394    1.301   .     A
N396   O397    1.300   .     A
N396   O398    1.302   .     A
N399   O401    1.302   .     A
N399   O400    1.300   .     A
N402   O404    1.301   .     A
N402   O403    1.300   .     A
N405   O407    1.301   .     A
N405   O898    1.301   1_554 S
O406   N897    1.301   .     S
N408   O410    1.301   .     A
N408   O901    1.301   .     S
O409   N900    1.301   1_554 S
O411   C415    1.300   .     A
O411   Cu423   1.955   .     S
O412   C416    1.296   .     A
O412   Cu424   1.955   .     S
O413   Cu424   1.963   .     S
O413   C415    1.297   .     A
O414   Cu423   1.963   .     S
O414   C416    1.294   .     A
C415   C435    1.471   .     S
C416   C436    1.456   .     S
O417   C421    1.285   .     A
O417   Cu423   1.981   .     S
O418   C422    1.282   .     A
O418   Cu424   1.981   .     S
O419   Cu424   1.976   .     S
O419   C421    1.293   .     A
O420   C422    1.298   .     A
O420   Cu423   1.976   .     S
C421   C425    1.438   .     S
C422   C426    1.447   .     S
Cu423  Cu424   2.687   .     S
Cu423  N454    2.018   .     S
Cu424  N453    2.018   .     S
C426   C261    1.371   1_655 S
C426   C304    1.539   1_655 S
C427   C443    1.400   .     A
C427   C431    1.386   .     A
C427   H429    1.083   .     S
C428   C432    1.386   .     A
C428   C444    1.401   .     A
C428   H430    1.082   .     S
C431   H433    1.083   .     S
C431   C435    1.404   .     A
C432   H434    1.084   .     S
C432   C436    1.400   .     A
C435   C437    1.419   .     A
C436   C438    1.418   .     A
C437   C439    1.397   .     A
C437   N475    1.436   .     S
C438   N478    1.443   .     S
C438   C440    1.399   .     A
C439   C443    1.402   .     A
C439   H441    1.083   .     S
C440   C444    1.404   .     A
C440   H442    1.083   .     S
C444   C197    1.474   1_565 S
C445   H447    1.081   .     S
C445   C459    1.412   .     A
C445   C449    1.406   .     A
C446   C450    1.408   .     A
C446   H448    1.082   .     S
C446   C460    1.412   .     A
C449   N453    1.360   .     A
C449   H451    1.074   .     S
C450   H452    1.080   .     S
C450   N454    1.364   .     A
N453   C455    1.381   .     A
N454   C456    1.381   .     A
C455   N481    1.430   .     S
C455   C457    1.419   .     A
C456   C458    1.418   .     A
C456   N484    1.429   .     S
C457   C459    1.412   .     A
C457   N487    1.437   .     S
C458   N490    1.436   .     S
C458   C460    1.412   .     A
C459   C952    1.521   1_554 S
C460   C951    1.521   .     S
C461   H466    1.106   .     S
C461   H467    1.112   .     S
C461   C261    1.538   1_655 S
C461   C298    1.535   1_655 S
C462   H464    1.109   .     S
C462   H465    1.111   .     S
C462   H463    1.106   .     S
C468   H474    1.111   .     S
C468   H473    1.107   .     S
C469   H470    1.108   .     S
C469   H471    1.111   .     S
C469   H472    1.111   .     S
C469   C304    1.532   1_655 S
N475   O477    1.301   .     A
N475   O476    1.301   .     A
N478   O479    1.300   .     A
N478   O480    1.302   .     A
N481   O483    1.302   .     A
N481   O482    1.300   .     A
N484   O486    1.301   .     A
N484   O485    1.300   .     A
N487   O489    1.301   .     A
N487   O980    1.301   1_554 S
O488   N979    1.301   .     S
N490   O492    1.301   .     A
N490   O983    1.301   .     S
O491   N982    1.301   1_554 S
O493   C497    1.300   .     A
O493   Cu505   1.955   .     S
O494   C498    1.296   .     A
O494   Cu506   1.955   .     S
O495   Cu506   1.963   .     S
O495   C497    1.297   .     A
O496   Cu505   1.963   .     S
O496   C498    1.294   .     A
C497   C517    1.471   .     S
C498   C518    1.456   .     S
O499   C503    1.285   .     A
O499   Cu505   1.981   .     S
O500   C504    1.282   .     A
O500   Cu506   1.981   .     S
O501   Cu506   1.976   .     S
O501   C503    1.293   .     A
O502   C504    1.298   .     A
O502   Cu505   1.976   .     S
C503   C507    1.438   .     S
C504   C508    1.447   .     S
Cu505  Cu506   2.687   .     S
Cu505  N536    2.018   .     S
Cu506  N535    2.018   .     S
C507   C672    1.371   1_455 S
C507   C707    1.538   1_455 S
C508   C589    1.371   .     S
C508   C632    1.539   .     S
C509   C525    1.400   .     A
C509   C513    1.386   .     A
C509   H511    1.083   .     S
C510   C514    1.386   .     A
C510   C526    1.401   .     A
C510   H512    1.082   .     S
C513   H515    1.083   .     S
C513   C517    1.404   .     A
C514   H516    1.084   .     S
C514   C518    1.400   .     A
C517   C519    1.419   .     A
C518   C520    1.418   .     A
C519   C521    1.397   .     A
C519   N557    1.436   .     S
C520   N560    1.443   .     S
C520   C522    1.399   .     A
C521   C525    1.402   .     A
C521   H523    1.083   .     S
C522   C526    1.404   .     A
C522   H524    1.083   .     S
C525   C772    1.474   1_545 S
C526   C771    1.474   .     S
C527   H529    1.081   .     S
C527   C541    1.412   .     A
C527   C531    1.406   .     A
C528   C532    1.408   .     A
C528   H530    1.082   .     S
C528   C542    1.412   .     A
C531   N535    1.360   .     A
C531   H533    1.074   .     S
C532   H534    1.080   .     S
C532   N536    1.364   .     A
N535   C537    1.381   .     A
N536   C538    1.381   .     A
C537   N563    1.430   .     S
C537   C539    1.419   .     A
C538   C540    1.418   .     A
C538   N566    1.429   .     S
C539   C541    1.412   .     A
C539   N569    1.437   .     S
C540   N572    1.436   .     S
C540   C542    1.412   .     A
C542   C49     1.521   1_556 S
C543   H548    1.106   .     S
C543   H549    1.112   .     S
C543   C589    1.538   .     S
C543   C626    1.535   .     S
C544   H546    1.109   .     S
C544   H547    1.111   .     S
C544   H545    1.106   .     S
C544   C707    1.535   1_455 S
C550   H556    1.111   .     S
C550   H555    1.107   .     S
C550   C672    1.539   1_455 S
C550   C715    1.532   1_455 S
C551   H552    1.108   .     S
C551   H553    1.111   .     S
C551   H554    1.111   .     S
C551   C632    1.532   .     S
N557   O559    1.301   .     A
N557   O558    1.301   .     A
N560   O561    1.300   .     A
N560   O562    1.302   .     A
N563   O565    1.302   .     A
N563   O564    1.300   .     A
N566   O568    1.301   .     A
N566   O567    1.300   .     A
N569   O571    1.301   .     A
O570   N77     1.301   1_556 S
N572   O574    1.301   .     A
N572   O81     1.301   1_556 S
O575   C579    1.300   .     A
O575   Cu587   1.955   .     S
O576   C580    1.296   .     A
O576   Cu588   1.955   .     S
O577   Cu588   1.963   .     S
O577   C579    1.297   .     A
O578   Cu587   1.963   .     S
O578   C580    1.294   .     A
C579   C599    1.471   .     S
C580   C600    1.456   .     S
O581   C585    1.285   .     A
O581   Cu587   1.981   .     S
O582   C586    1.282   .     A
O582   Cu588   1.981   .     S
O583   Cu588   1.976   .     S
O583   C585    1.293   .     A
O584   C586    1.298   .     A
O584   Cu587   1.976   .     S
C585   C589    1.438   .     S
C586   C590    1.447   .     S
Cu587  Cu588   2.687   .     S
Cu587  N618    2.018   .     S
Cu588  N617    2.018   .     S
C590   C671    1.371   .     S
C590   C714    1.539   .     S
C591   C607    1.400   .     A
C591   C595    1.386   .     A
C591   H593    1.083   .     S
C592   C596    1.386   .     A
C592   C608    1.401   .     A
C592   H594    1.082   .     S
C595   H597    1.083   .     S
C595   C599    1.404   .     A
C596   H598    1.084   .     S
C596   C600    1.400   .     A
C599   C601    1.419   .     A
C600   C602    1.418   .     A
C601   C603    1.397   .     A
C601   N639    1.436   .     S
C602   N642    1.443   .     S
C602   C604    1.399   .     A
C603   C607    1.402   .     A
C603   H605    1.083   .     S
C604   C608    1.404   .     A
C604   H606    1.083   .     S
C607   C854    1.474   1_545 S
C608   C853    1.474   .     S
C609   H611    1.081   .     S
C609   C623    1.412   .     A
C609   C613    1.406   .     A
C610   C614    1.408   .     A
C610   H612    1.082   .     S
C610   C624    1.412   .     A
C613   N617    1.360   .     A
C613   H615    1.074   .     S
C614   H616    1.080   .     S
C614   N618    1.364   .     A
N617   C619    1.381   .     A
N618   C620    1.381   .     A
C619   N645    1.430   .     S
C619   C621    1.419   .     A
C620   C622    1.418   .     A
C620   N648    1.429   .     S
C621   C623    1.412   .     A
C621   N651    1.437   .     S
C622   N654    1.436   .     S
C622   C624    1.412   .     A
C624   C131    1.521   1_556 S
C625   H630    1.106   .     S
C625   H631    1.112   .     S
C625   C671    1.538   .     S
C625   C708    1.535   .     S
C626   H628    1.109   .     S
C626   H629    1.111   .     S
C626   H627    1.106   .     S
C632   H638    1.111   .     S
C632   H637    1.107   .     S
C633   H634    1.108   .     S
C633   H635    1.111   .     S
C633   H636    1.111   .     S
C633   C714    1.532   .     S
N639   O641    1.301   .     A
N639   O640    1.301   .     A
N642   O643    1.300   .     A
N642   O644    1.302   .     A
N645   O647    1.302   .     A
N645   O646    1.300   .     A
N648   O650    1.301   .     A
N648   O649    1.300   .     A
N651   O653    1.301   .     A
O652   N159    1.301   1_556 S
N654   O656    1.301   .     A
N654   O163    1.301   1_556 S
O657   C661    1.300   .     A
O657   Cu669   1.955   .     S
O658   C662    1.296   .     A
O658   Cu670   1.955   .     S
O659   Cu670   1.963   .     S
O659   C661    1.297   .     A
O660   Cu669   1.963   .     S
O660   C662    1.294   .     A
C661   C681    1.471   .     S
C662   C682    1.456   .     S
O663   C667    1.285   .     A
O663   Cu669   1.981   .     S
O664   C668    1.282   .     A
O664   Cu670   1.981   .     S
O665   Cu670   1.976   .     S
O665   C667    1.293   .     A
O666   C668    1.298   .     A
O666   Cu669   1.976   .     S
C667   C671    1.438   .     S
C668   C672    1.447   .     S
Cu669  Cu670   2.687   .     S
Cu669  N700    2.018   .     S
Cu670  N699    2.018   .     S
C672   C507    1.371   1_655 S
C672   C550    1.539   1_655 S
C673   C689    1.400   .     A
C673   C677    1.386   .     A
C673   H675    1.083   .     S
C674   C678    1.386   .     A
C674   C690    1.401   .     A
C674   H676    1.082   .     S
C677   H679    1.083   .     S
C677   C681    1.404   .     A
C678   H680    1.084   .     S
C678   C682    1.400   .     A
C681   C683    1.419   .     A
C682   C684    1.418   .     A
C683   C685    1.397   .     A
C683   N721    1.436   .     S
C684   N724    1.443   .     S
C684   C686    1.399   .     A
C685   C689    1.402   .     A
C685   H687    1.083   .     S
C686   C690    1.404   .     A
C686   H688    1.083   .     S
C689   C936    1.474   1_545 S
C690   C935    1.474   .     S
C691   H693    1.081   .     S
C691   C705    1.412   .     A
C691   C695    1.406   .     A
C692   C696    1.408   .     A
C692   H694    1.082   .     S
C692   C706    1.412   .     A
C695   N699    1.360   .     A
C695   H697    1.074   .     S
C696   H698    1.080   .     S
C696   N700    1.364   .     A
N699   C701    1.381   .     A
N700   C702    1.381   .     A
C701   N727    1.430   .     S
C701   C703    1.419   .     A
C702   C704    1.418   .     A
C702   N730    1.429   .     S
C703   C705    1.412   .     A
C703   N733    1.437   .     S
C704   N736    1.436   .     S
C704   C706    1.412   .     A
C706   C213    1.521   1_556 S
C707   H712    1.106   .     S
C707   H713    1.112   .     S
C707   C507    1.538   1_655 S
C707   C544    1.535   1_655 S
C708   H710    1.109   .     S
C708   H711    1.111   .     S
C708   H709    1.106   .     S
C714   H720    1.111   .     S
C714   H719    1.107   .     S
C715   H716    1.108   .     S
C715   H717    1.111   .     S
C715   H718    1.111   .     S
C715   C550    1.532   1_655 S
N721   O723    1.301   .     A
N721   O722    1.301   .     A
N724   O725    1.300   .     A
N724   O726    1.302   .     A
N727   O729    1.302   .     A
N727   O728    1.300   .     A
N730   O732    1.301   .     A
N730   O731    1.300   .     A
N733   O735    1.301   .     A
O734   N241    1.301   1_556 S
N736   O738    1.301   .     A
N736   O245    1.301   1_556 S
O739   C743    1.300   .     A
O739   Cu751   1.955   .     S
O740   C744    1.296   .     A
O740   Cu752   1.955   .     S
O741   Cu752   1.963   .     S
O741   C743    1.297   .     A
O742   Cu751   1.963   .     S
O742   C744    1.294   .     A
C743   C763    1.471   .     S
C744   C764    1.456   .     S
O745   C749    1.285   .     A
O745   Cu751   1.981   .     S
O746   C750    1.282   .     A
O746   Cu752   1.981   .     S
O747   Cu752   1.976   .     S
O747   C749    1.293   .     A
O748   C750    1.298   .     A
O748   Cu751   1.976   .     S
C749   C753    1.438   .     S
C750   C754    1.447   .     S
Cu751  Cu752   2.687   .     S
Cu751  N782    2.018   .     S
Cu752  N781    2.018   .     S
C753   C918    1.371   1_455 S
C753   C953    1.538   1_455 S
C754   C835    1.371   .     S
C754   C878    1.539   .     S
C755   C771    1.400   .     A
C755   C759    1.386   .     A
C755   H757    1.083   .     S
C756   C760    1.386   .     A
C756   C772    1.401   .     A
C756   H758    1.082   .     S
C759   H761    1.083   .     S
C759   C763    1.404   .     A
C760   H762    1.084   .     S
C760   C764    1.400   .     A
C763   C765    1.419   .     A
C764   C766    1.418   .     A
C765   C767    1.397   .     A
C765   N803    1.436   .     S
C766   N806    1.443   .     S
C766   C768    1.399   .     A
C767   C771    1.402   .     A
C767   H769    1.083   .     S
C768   C772    1.404   .     A
C768   H770    1.083   .     S
C772   C525    1.474   1_565 S
C773   H775    1.081   .     S
C773   C787    1.412   .     A
C773   C777    1.406   .     A
C774   C778    1.408   .     A
C774   H776    1.082   .     S
C774   C788    1.412   .     A
C777   N781    1.360   .     A
C777   H779    1.074   .     S
C778   H780    1.080   .     S
C778   N782    1.364   .     A
N781   C783    1.381   .     A
N782   C784    1.381   .     A
C783   N809    1.430   .     S
C783   C785    1.419   .     A
C784   C786    1.418   .     A
C784   N812    1.429   .     S
C785   C787    1.412   .     A
C785   N815    1.437   .     S
C786   N818    1.436   .     S
C786   C788    1.412   .     A
C788   C295    1.521   1_556 S
C789   H794    1.106   .     S
C789   H795    1.112   .     S
C789   C835    1.538   .     S
C789   C872    1.535   .     S
C790   H792    1.109   .     S
C790   H793    1.111   .     S
C790   H791    1.106   .     S
C790   C953    1.535   1_455 S
C796   H802    1.111   .     S
C796   H801    1.107   .     S
C796   C918    1.539   1_455 S
C796   C961    1.532   1_455 S
C797   H798    1.108   .     S
C797   H799    1.111   .     S
C797   H800    1.111   .     S
C797   C878    1.532   .     S
N803   O805    1.301   .     A
N803   O804    1.301   .     A
N806   O807    1.300   .     A
N806   O808    1.302   .     A
N809   O811    1.302   .     A
N809   O810    1.300   .     A
N812   O814    1.301   .     A
N812   O813    1.300   .     A
N815   O817    1.301   .     A
O816   N323    1.301   1_556 S
N818   O820    1.301   .     A
N818   O327    1.301   1_556 S
O821   C825    1.300   .     A
O821   Cu833   1.955   .     S
O822   C826    1.296   .     A
O822   Cu834   1.955   .     S
O823   Cu834   1.963   .     S
O823   C825    1.297   .     A
O824   Cu833   1.963   .     S
O824   C826    1.294   .     A
C825   C845    1.471   .     S
C826   C846    1.456   .     S
O827   C831    1.285   .     A
O827   Cu833   1.981   .     S
O828   C832    1.282   .     A
O828   Cu834   1.981   .     S
O829   Cu834   1.976   .     S
O829   C831    1.293   .     A
O830   C832    1.298   .     A
O830   Cu833   1.976   .     S
C831   C835    1.438   .     S
C832   C836    1.447   .     S
Cu833  Cu834   2.687   .     S
Cu833  N864    2.018   .     S
Cu834  N863    2.018   .     S
C836   C917    1.371   .     S
C836   C960    1.539   .     S
C837   C853    1.400   .     A
C837   C841    1.386   .     A
C837   H839    1.083   .     S
C838   C842    1.386   .     A
C838   C854    1.401   .     A
C838   H840    1.082   .     S
C841   H843    1.083   .     S
C841   C845    1.404   .     A
C842   H844    1.084   .     S
C842   C846    1.400   .     A
C845   C847    1.419   .     A
C846   C848    1.418   .     A
C847   C849    1.397   .     A
C847   N885    1.436   .     S
C848   N888    1.443   .     S
C848   C850    1.399   .     A
C849   C853    1.402   .     A
C849   H851    1.083   .     S
C850   C854    1.404   .     A
C850   H852    1.083   .     S
C854   C607    1.474   1_565 S
C855   H857    1.081   .     S
C855   C869    1.412   .     A
C855   C859    1.406   .     A
C856   C860    1.408   .     A
C856   H858    1.082   .     S
C856   C870    1.412   .     A
C859   N863    1.360   .     A
C859   H861    1.074   .     S
C860   H862    1.080   .     S
C860   N864    1.364   .     A
N863   C865    1.381   .     A
N864   C866    1.381   .     A
C865   N891    1.430   .     S
C865   C867    1.419   .     A
C866   C868    1.418   .     A
C866   N894    1.429   .     S
C867   C869    1.412   .     A
C867   N897    1.437   .     S
C868   N900    1.436   .     S
C868   C870    1.412   .     A
C870   C377    1.521   1_556 S
C871   H876    1.106   .     S
C871   H877    1.112   .     S
C871   C917    1.538   .     S
C871   C954    1.535   .     S
C872   H874    1.109   .     S
C872   H875    1.111   .     S
C872   H873    1.106   .     S
C878   H884    1.111   .     S
C878   H883    1.107   .     S
C879   H880    1.108   .     S
C879   H881    1.111   .     S
C879   H882    1.111   .     S
C879   C960    1.532   .     S
N885   O887    1.301   .     A
N885   O886    1.301   .     A
N888   O889    1.300   .     A
N888   O890    1.302   .     A
N891   O893    1.302   .     A
N891   O892    1.300   .     A
N894   O896    1.301   .     A
N894   O895    1.300   .     A
N897   O899    1.301   .     A
O898   N405    1.301   1_556 S
N900   O902    1.301   .     A
N900   O409    1.301   1_556 S
O903   C907    1.300   .     A
O903   Cu915   1.955   .     S
O904   C908    1.296   .     A
O904   Cu916   1.955   .     S
O905   Cu916   1.963   .     S
O905   C907    1.297   .     A
O906   Cu915   1.963   .     S
O906   C908    1.294   .     A
C907   C927    1.471   .     S
C908   C928    1.456   .     S
O909   C913    1.285   .     A
O909   Cu915   1.981   .     S
O910   C914    1.282   .     A
O910   Cu916   1.981   .     S
O911   Cu916   1.976   .     S
O911   C913    1.293   .     A
O912   C914    1.298   .     A
O912   Cu915   1.976   .     S
C913   C917    1.438   .     S
C914   C918    1.447   .     S
Cu915  Cu916   2.687   .     S
Cu915  N946    2.018   .     S
Cu916  N945    2.018   .     S
C918   C753    1.371   1_655 S
C918   C796    1.539   1_655 S
C919   C935    1.400   .     A
C919   C923    1.386   .     A
C919   H921    1.083   .     S
C920   C924    1.386   .     A
C920   C936    1.401   .     A
C920   H922    1.082   .     S
C923   H925    1.083   .     S
C923   C927    1.404   .     A
C924   H926    1.084   .     S
C924   C928    1.400   .     A
C927   C929    1.419   .     A
C928   C930    1.418   .     A
C929   C931    1.397   .     A
C929   N967    1.436   .     S
C930   N970    1.443   .     S
C930   C932    1.399   .     A
C931   C935    1.402   .     A
C931   H933    1.083   .     S
C932   C936    1.404   .     A
C932   H934    1.083   .     S
C936   C689    1.474   1_565 S
C937   H939    1.081   .     S
C937   C951    1.412   .     A
C937   C941    1.406   .     A
C938   C942    1.408   .     A
C938   H940    1.082   .     S
C938   C952    1.412   .     A
C941   N945    1.360   .     A
C941   H943    1.074   .     S
C942   H944    1.080   .     S
C942   N946    1.364   .     A
N945   C947    1.381   .     A
N946   C948    1.381   .     A
C947   N973    1.430   .     S
C947   C949    1.419   .     A
C948   C950    1.418   .     A
C948   N976    1.429   .     S
C949   C951    1.412   .     A
C949   N979    1.437   .     S
C950   N982    1.436   .     S
C950   C952    1.412   .     A
C952   C459    1.521   1_556 S
C953   H958    1.106   .     S
C953   H959    1.112   .     S
C953   C753    1.538   1_655 S
C953   C790    1.535   1_655 S
C954   H956    1.109   .     S
C954   H957    1.111   .     S
C954   H955    1.106   .     S
C960   H966    1.111   .     S
C960   H965    1.107   .     S
C961   H962    1.108   .     S
C961   H963    1.111   .     S
C961   H964    1.111   .     S
C961   C796    1.532   1_655 S
N967   O969    1.301   .     A
N967   O968    1.301   .     A
N970   O971    1.300   .     A
N970   O972    1.302   .     A
N973   O975    1.302   .     A
N973   O974    1.300   .     A
N976   O978    1.301   .     A
N976   O977    1.300   .     A
N979   O981    1.301   .     A
O980   N487    1.301   1_556 S
N982   O984    1.301   .     A
N982   O491    1.301   1_556 S
