data_str_m2_o2_o5_pcu_sym.103
_audit_creation_date              2020-01-03
_audit_creation_method            'Materials Studio'
_symmetry_space_group_name_H-M    'P1'
_symmetry_Int_Tables_number       1
_symmetry_cell_setting            triclinic
loop_
_symmetry_equiv_pos_as_xyz
  x,y,z
_cell_length_a                    30.1469
_cell_length_b                    27.8817
_cell_length_c                    27.2119
_cell_angle_alpha                 90.2505
_cell_angle_beta                  92.0126
_cell_angle_gamma                 90.0043
loop_
_atom_site_label
_atom_site_type_symbol
_atom_site_fract_x
_atom_site_fract_y
_atom_site_fract_z
_atom_site_U_iso_or_equiv
_atom_site_adp_type
_atom_site_occupancy
C1     C     0.16492   0.24996   0.17082   0.00000  Uiso   1.00
C2     C     0.27060   0.44590   0.20630   0.00000  Uiso   1.00
C3     C     0.24990   0.24994   0.07356   0.00000  Uiso   1.00
C4     C     0.25010   0.25006   0.25977   0.00000  Uiso   1.00
C5     C     0.25269   0.02739   0.16382   0.00000  Uiso   1.00
C6     C     0.24731   0.47261   0.16951   0.00000  Uiso   1.00
C7     C     0.24997   0.24991   0.02185   0.00000  Uiso   1.00
C8     C     0.25003   0.25009   0.31148   0.00000  Uiso   1.00
C9     C     0.04664   0.29216   0.19015   0.00000  Uiso   1.00
C10    C     0.45336   0.20784   0.14318   0.00000  Uiso   1.00
C11    C     0.45348   0.29304   0.14554   0.00000  Uiso   1.00
C12    C     0.33508   0.25004   0.16251   0.00000  Uiso   1.00
C13    C     0.04652   0.20696   0.18779   0.00000  Uiso   1.00
C14    C     0.09310   0.29308   0.18861   0.00000  Uiso   1.00
C15    C     0.40690   0.20692   0.14472   0.00000  Uiso   1.00
C16    C     0.40707   0.29397   0.14731   0.00000  Uiso   1.00
C17    C     0.09293   0.20603   0.18602   0.00000  Uiso   1.00
C18    C     0.11649   0.24974   0.17991   0.00000  Uiso   1.00
C19    C     0.38351   0.25026   0.15342   0.00000  Uiso   1.00
C20    C     0.02369   0.24982   0.17661   0.00000  Uiso   1.00
C21    C     0.47631   0.25018   0.15672   0.00000  Uiso   1.00
C22    C     0.28042   0.10464   0.19555   0.00000  Uiso   1.00
C23    C     0.21958   0.39535   0.13778   0.00000  Uiso   1.00
C24    C     0.22515   0.10435   0.13188   0.00000  Uiso   1.00
C25    C     0.27485   0.39565   0.20146   0.00000  Uiso   1.00
C26    C     0.28495   0.05439   0.19108   0.00000  Uiso   1.00
C27    C     0.21505   0.44561   0.14225   0.00000  Uiso   1.00
C28    C     0.22941   0.05410   0.12703   0.00000  Uiso   1.00
Cl29   Cl    0.31597   0.13472   0.23825   0.00000  Uiso   1.00
Cl30   Cl    0.37975   0.15191   0.13072   0.00000  Uiso   1.00
Cl31   Cl    0.38036   0.34989   0.13733   0.00000  Uiso   1.00
Cl32   Cl    0.11964   0.15011   0.19601   0.00000  Uiso   1.00
Cl33   Cl    0.33867   0.03041   0.20309   0.00000  Uiso   1.00
Cl34   Cl    0.16133   0.46959   0.13023   0.00000  Uiso   1.00
Cl35   Cl    0.22089   0.02984   0.06711   0.00000  Uiso   1.00
Cl36   Cl    0.27912   0.47016   0.26622   0.00000  Uiso   1.00
Cl37   Cl    0.18403   0.36528   0.09508   0.00000  Uiso   1.00
Cl38   Cl    0.18788   0.13399   0.09097   0.00000  Uiso   1.00
Cl39   Cl    0.31212   0.36601   0.24237   0.00000  Uiso   1.00
Cl40   Cl    0.01941   0.33839   0.22240   0.00000  Uiso   1.00
Cl41   Cl    0.48059   0.16161   0.11093   0.00000  Uiso   1.00
Cl42   Cl    0.48079   0.34050   0.11564   0.00000  Uiso   1.00
Cl43   Cl    0.01921   0.15950   0.21769   0.00000  Uiso   1.00
Cl44   Cl    0.12025   0.34809   0.20261   0.00000  Uiso   1.00
Cu45   Cu    0.25000   0.29821   0.16667   0.00000  Uiso   1.00
Cu46   Cu    0.25000   0.20178   0.16667   0.00000  Uiso   1.00
N47    N     0.25000   0.12934   0.16667   0.00000  Uiso   1.00
N48    N     0.25000   0.37065   0.16667   0.00000  Uiso   1.00
O49    O     0.18573   0.29071   0.16667   0.00000  Uiso   1.00
O50    O     0.31427   0.20928   0.16666   0.00000  Uiso   1.00
O51    O     0.31427   0.29071   0.16666   0.00000  Uiso   1.00
O52    O     0.18573   0.20928   0.16667   0.00000  Uiso   1.00
O53    O     0.25000   0.29071   0.09613   0.00000  Uiso   1.00
O54    O     0.25000   0.20929   0.23720   0.00000  Uiso   1.00
O55    O     0.25000   0.29071   0.23720   0.00000  Uiso   1.00
O56    O     0.25000   0.20929   0.09613   0.00000  Uiso   1.00
C57    C     0.66492   0.24996   0.17082   0.00000  Uiso   1.00
C58    C     0.77060   0.44590   0.20630   0.00000  Uiso   1.00
C59    C     0.74990   0.24994   0.07356   0.00000  Uiso   1.00
C60    C     0.75010   0.25006   0.25977   0.00000  Uiso   1.00
C61    C     0.75269   0.02739   0.16382   0.00000  Uiso   1.00
C62    C     0.74731   0.47261   0.16951   0.00000  Uiso   1.00
C63    C     0.74997   0.24991   0.02185   0.00000  Uiso   1.00
C64    C     0.75003   0.25009   0.31148   0.00000  Uiso   1.00
C65    C     0.54664   0.29216   0.19015   0.00000  Uiso   1.00
C66    C     0.95336   0.20784   0.14318   0.00000  Uiso   1.00
C67    C     0.95348   0.29304   0.14554   0.00000  Uiso   1.00
C68    C     0.83508   0.25004   0.16251   0.00000  Uiso   1.00
C69    C     0.54652   0.20696   0.18779   0.00000  Uiso   1.00
C70    C     0.59310   0.29308   0.18861   0.00000  Uiso   1.00
C71    C     0.90690   0.20692   0.14472   0.00000  Uiso   1.00
C72    C     0.90707   0.29397   0.14731   0.00000  Uiso   1.00
C73    C     0.59293   0.20603   0.18602   0.00000  Uiso   1.00
C74    C     0.61649   0.24974   0.17991   0.00000  Uiso   1.00
C75    C     0.88351   0.25026   0.15342   0.00000  Uiso   1.00
C76    C     0.52369   0.24982   0.17661   0.00000  Uiso   1.00
C77    C     0.97631   0.25018   0.15672   0.00000  Uiso   1.00
C78    C     0.78042   0.10464   0.19555   0.00000  Uiso   1.00
C79    C     0.71958   0.39535   0.13778   0.00000  Uiso   1.00
C80    C     0.72515   0.10435   0.13188   0.00000  Uiso   1.00
C81    C     0.77485   0.39565   0.20146   0.00000  Uiso   1.00
C82    C     0.78495   0.05439   0.19108   0.00000  Uiso   1.00
C83    C     0.71505   0.44561   0.14225   0.00000  Uiso   1.00
C84    C     0.72941   0.05410   0.12703   0.00000  Uiso   1.00
Cl85   Cl    0.81597   0.13472   0.23825   0.00000  Uiso   1.00
Cl86   Cl    0.87975   0.15191   0.13072   0.00000  Uiso   1.00
Cl87   Cl    0.88036   0.34989   0.13733   0.00000  Uiso   1.00
Cl88   Cl    0.61964   0.15011   0.19601   0.00000  Uiso   1.00
Cl89   Cl    0.83867   0.03041   0.20309   0.00000  Uiso   1.00
Cl90   Cl    0.66133   0.46959   0.13023   0.00000  Uiso   1.00
Cl91   Cl    0.72089   0.02984   0.06711   0.00000  Uiso   1.00
Cl92   Cl    0.77912   0.47016   0.26622   0.00000  Uiso   1.00
Cl93   Cl    0.68403   0.36528   0.09508   0.00000  Uiso   1.00
Cl94   Cl    0.68788   0.13399   0.09097   0.00000  Uiso   1.00
Cl95   Cl    0.81212   0.36601   0.24237   0.00000  Uiso   1.00
Cl96   Cl    0.51941   0.33839   0.22240   0.00000  Uiso   1.00
Cl97   Cl    0.98059   0.16161   0.11093   0.00000  Uiso   1.00
Cl98   Cl    0.98079   0.34050   0.11564   0.00000  Uiso   1.00
Cl99   Cl    0.51921   0.15950   0.21769   0.00000  Uiso   1.00
Cl100  Cl    0.62025   0.34809   0.20261   0.00000  Uiso   1.00
Cu101  Cu    0.75000   0.29821   0.16667   0.00000  Uiso   1.00
Cu102  Cu    0.75000   0.20178   0.16667   0.00000  Uiso   1.00
N103   N     0.75000   0.12934   0.16667   0.00000  Uiso   1.00
N104   N     0.75000   0.37065   0.16667   0.00000  Uiso   1.00
O105   O     0.68573   0.29071   0.16667   0.00000  Uiso   1.00
O106   O     0.81427   0.20928   0.16666   0.00000  Uiso   1.00
O107   O     0.81427   0.29071   0.16666   0.00000  Uiso   1.00
O108   O     0.68573   0.20928   0.16667   0.00000  Uiso   1.00
O109   O     0.75000   0.29071   0.09613   0.00000  Uiso   1.00
O110   O     0.75000   0.20929   0.23720   0.00000  Uiso   1.00
O111   O     0.75000   0.29071   0.23720   0.00000  Uiso   1.00
O112   O     0.75000   0.20929   0.09613   0.00000  Uiso   1.00
C113   C     0.16492   0.74996   0.17082   0.00000  Uiso   1.00
C114   C     0.27060   0.94590   0.20630   0.00000  Uiso   1.00
C115   C     0.24990   0.74994   0.07356   0.00000  Uiso   1.00
C116   C     0.25010   0.75006   0.25977   0.00000  Uiso   1.00
C117   C     0.25269   0.52739   0.16382   0.00000  Uiso   1.00
C118   C     0.24731   0.97261   0.16951   0.00000  Uiso   1.00
C119   C     0.24997   0.74991   0.02185   0.00000  Uiso   1.00
C120   C     0.25003   0.75009   0.31148   0.00000  Uiso   1.00
C121   C     0.04664   0.79216   0.19015   0.00000  Uiso   1.00
C122   C     0.45336   0.70784   0.14318   0.00000  Uiso   1.00
C123   C     0.45348   0.79304   0.14554   0.00000  Uiso   1.00
C124   C     0.33508   0.75004   0.16251   0.00000  Uiso   1.00
C125   C     0.04652   0.70696   0.18779   0.00000  Uiso   1.00
C126   C     0.09310   0.79308   0.18861   0.00000  Uiso   1.00
C127   C     0.40690   0.70692   0.14472   0.00000  Uiso   1.00
C128   C     0.40707   0.79397   0.14731   0.00000  Uiso   1.00
C129   C     0.09293   0.70603   0.18602   0.00000  Uiso   1.00
C130   C     0.11649   0.74974   0.17991   0.00000  Uiso   1.00
C131   C     0.38351   0.75026   0.15342   0.00000  Uiso   1.00
C132   C     0.02369   0.74982   0.17661   0.00000  Uiso   1.00
C133   C     0.47631   0.75018   0.15672   0.00000  Uiso   1.00
C134   C     0.28042   0.60464   0.19555   0.00000  Uiso   1.00
C135   C     0.21958   0.89535   0.13778   0.00000  Uiso   1.00
C136   C     0.22515   0.60435   0.13188   0.00000  Uiso   1.00
C137   C     0.27485   0.89565   0.20146   0.00000  Uiso   1.00
C138   C     0.28495   0.55439   0.19108   0.00000  Uiso   1.00
C139   C     0.21505   0.94561   0.14225   0.00000  Uiso   1.00
C140   C     0.22941   0.55410   0.12703   0.00000  Uiso   1.00
Cl141  Cl    0.31597   0.63472   0.23825   0.00000  Uiso   1.00
Cl142  Cl    0.37975   0.65191   0.13072   0.00000  Uiso   1.00
Cl143  Cl    0.38036   0.84989   0.13733   0.00000  Uiso   1.00
Cl144  Cl    0.11964   0.65011   0.19601   0.00000  Uiso   1.00
Cl145  Cl    0.33867   0.53041   0.20309   0.00000  Uiso   1.00
Cl146  Cl    0.16133   0.96959   0.13023   0.00000  Uiso   1.00
Cl147  Cl    0.22089   0.52984   0.06711   0.00000  Uiso   1.00
Cl148  Cl    0.27912   0.97016   0.26622   0.00000  Uiso   1.00
Cl149  Cl    0.18403   0.86528   0.09508   0.00000  Uiso   1.00
Cl150  Cl    0.18788   0.63399   0.09097   0.00000  Uiso   1.00
Cl151  Cl    0.31212   0.86601   0.24237   0.00000  Uiso   1.00
Cl152  Cl    0.01941   0.83839   0.22240   0.00000  Uiso   1.00
Cl153  Cl    0.48059   0.66161   0.11093   0.00000  Uiso   1.00
Cl154  Cl    0.48079   0.84050   0.11564   0.00000  Uiso   1.00
Cl155  Cl    0.01921   0.65950   0.21769   0.00000  Uiso   1.00
Cl156  Cl    0.12025   0.84809   0.20261   0.00000  Uiso   1.00
Cu157  Cu    0.25000   0.79821   0.16667   0.00000  Uiso   1.00
Cu158  Cu    0.25000   0.70178   0.16667   0.00000  Uiso   1.00
N159   N     0.25000   0.62934   0.16667   0.00000  Uiso   1.00
N160   N     0.25000   0.87065   0.16667   0.00000  Uiso   1.00
O161   O     0.18573   0.79071   0.16667   0.00000  Uiso   1.00
O162   O     0.31427   0.70928   0.16666   0.00000  Uiso   1.00
O163   O     0.31427   0.79071   0.16666   0.00000  Uiso   1.00
O164   O     0.18573   0.70928   0.16667   0.00000  Uiso   1.00
O165   O     0.25000   0.79071   0.09613   0.00000  Uiso   1.00
O166   O     0.25000   0.70929   0.23720   0.00000  Uiso   1.00
O167   O     0.25000   0.79071   0.23720   0.00000  Uiso   1.00
O168   O     0.25000   0.70929   0.09613   0.00000  Uiso   1.00
C169   C     0.66492   0.74996   0.17082   0.00000  Uiso   1.00
C170   C     0.77060   0.94590   0.20630   0.00000  Uiso   1.00
C171   C     0.74990   0.74994   0.07356   0.00000  Uiso   1.00
C172   C     0.75010   0.75006   0.25977   0.00000  Uiso   1.00
C173   C     0.75269   0.52739   0.16382   0.00000  Uiso   1.00
C174   C     0.74731   0.97261   0.16951   0.00000  Uiso   1.00
C175   C     0.74997   0.74991   0.02185   0.00000  Uiso   1.00
C176   C     0.75003   0.75009   0.31148   0.00000  Uiso   1.00
C177   C     0.54664   0.79216   0.19015   0.00000  Uiso   1.00
C178   C     0.95336   0.70784   0.14318   0.00000  Uiso   1.00
C179   C     0.95348   0.79304   0.14554   0.00000  Uiso   1.00
C180   C     0.83508   0.75004   0.16251   0.00000  Uiso   1.00
C181   C     0.54652   0.70696   0.18779   0.00000  Uiso   1.00
C182   C     0.59310   0.79308   0.18861   0.00000  Uiso   1.00
C183   C     0.90690   0.70692   0.14472   0.00000  Uiso   1.00
C184   C     0.90707   0.79397   0.14731   0.00000  Uiso   1.00
C185   C     0.59293   0.70603   0.18602   0.00000  Uiso   1.00
C186   C     0.61649   0.74974   0.17991   0.00000  Uiso   1.00
C187   C     0.88351   0.75026   0.15342   0.00000  Uiso   1.00
C188   C     0.52369   0.74982   0.17661   0.00000  Uiso   1.00
C189   C     0.97631   0.75018   0.15672   0.00000  Uiso   1.00
C190   C     0.78042   0.60464   0.19555   0.00000  Uiso   1.00
C191   C     0.71958   0.89535   0.13778   0.00000  Uiso   1.00
C192   C     0.72515   0.60435   0.13188   0.00000  Uiso   1.00
C193   C     0.77485   0.89565   0.20146   0.00000  Uiso   1.00
C194   C     0.78495   0.55439   0.19108   0.00000  Uiso   1.00
C195   C     0.71505   0.94561   0.14225   0.00000  Uiso   1.00
C196   C     0.72941   0.55410   0.12703   0.00000  Uiso   1.00
Cl197  Cl    0.81597   0.63472   0.23825   0.00000  Uiso   1.00
Cl198  Cl    0.87975   0.65191   0.13072   0.00000  Uiso   1.00
Cl199  Cl    0.88036   0.84989   0.13733   0.00000  Uiso   1.00
Cl200  Cl    0.61964   0.65011   0.19601   0.00000  Uiso   1.00
Cl201  Cl    0.83867   0.53041   0.20309   0.00000  Uiso   1.00
Cl202  Cl    0.66133   0.96959   0.13023   0.00000  Uiso   1.00
Cl203  Cl    0.72089   0.52984   0.06711   0.00000  Uiso   1.00
Cl204  Cl    0.77912   0.97016   0.26622   0.00000  Uiso   1.00
Cl205  Cl    0.68403   0.86528   0.09508   0.00000  Uiso   1.00
Cl206  Cl    0.68788   0.63399   0.09097   0.00000  Uiso   1.00
Cl207  Cl    0.81212   0.86601   0.24237   0.00000  Uiso   1.00
Cl208  Cl    0.51941   0.83839   0.22240   0.00000  Uiso   1.00
Cl209  Cl    0.98059   0.66161   0.11093   0.00000  Uiso   1.00
Cl210  Cl    0.98079   0.84050   0.11564   0.00000  Uiso   1.00
Cl211  Cl    0.51921   0.65950   0.21769   0.00000  Uiso   1.00
Cl212  Cl    0.62025   0.84809   0.20261   0.00000  Uiso   1.00
Cu213  Cu    0.75000   0.79821   0.16667   0.00000  Uiso   1.00
Cu214  Cu    0.75000   0.70178   0.16667   0.00000  Uiso   1.00
N215   N     0.75000   0.62934   0.16667   0.00000  Uiso   1.00
N216   N     0.75000   0.87065   0.16667   0.00000  Uiso   1.00
O217   O     0.68573   0.79071   0.16667   0.00000  Uiso   1.00
O218   O     0.81427   0.70928   0.16666   0.00000  Uiso   1.00
O219   O     0.81427   0.79071   0.16666   0.00000  Uiso   1.00
O220   O     0.68573   0.70928   0.16667   0.00000  Uiso   1.00
O221   O     0.75000   0.79071   0.09613   0.00000  Uiso   1.00
O222   O     0.75000   0.70929   0.23720   0.00000  Uiso   1.00
O223   O     0.75000   0.79071   0.23720   0.00000  Uiso   1.00
O224   O     0.75000   0.70929   0.09613   0.00000  Uiso   1.00
C225   C     0.16492   0.24996   0.50415   0.00000  Uiso   1.00
C226   C     0.27060   0.44590   0.53964   0.00000  Uiso   1.00
C227   C     0.24990   0.24994   0.40690   0.00000  Uiso   1.00
C228   C     0.25010   0.25006   0.59310   0.00000  Uiso   1.00
C229   C     0.25269   0.02739   0.49715   0.00000  Uiso   1.00
C230   C     0.24731   0.47261   0.50285   0.00000  Uiso   1.00
C231   C     0.24997   0.24991   0.35519   0.00000  Uiso   1.00
C232   C     0.25003   0.25009   0.64481   0.00000  Uiso   1.00
C233   C     0.04664   0.29216   0.52348   0.00000  Uiso   1.00
C234   C     0.45336   0.20784   0.47652   0.00000  Uiso   1.00
C235   C     0.45348   0.29304   0.47887   0.00000  Uiso   1.00
C236   C     0.33508   0.25004   0.49585   0.00000  Uiso   1.00
C237   C     0.04652   0.20696   0.52113   0.00000  Uiso   1.00
C238   C     0.09310   0.29308   0.52195   0.00000  Uiso   1.00
C239   C     0.40690   0.20692   0.47805   0.00000  Uiso   1.00
C240   C     0.40707   0.29397   0.48065   0.00000  Uiso   1.00
C241   C     0.09293   0.20603   0.51935   0.00000  Uiso   1.00
C242   C     0.11649   0.24974   0.51325   0.00000  Uiso   1.00
C243   C     0.38351   0.25026   0.48675   0.00000  Uiso   1.00
C244   C     0.02369   0.24982   0.50994   0.00000  Uiso   1.00
C245   C     0.47631   0.25018   0.49006   0.00000  Uiso   1.00
C246   C     0.28042   0.10464   0.52888   0.00000  Uiso   1.00
C247   C     0.21958   0.39535   0.47112   0.00000  Uiso   1.00
C248   C     0.22515   0.10435   0.46521   0.00000  Uiso   1.00
C249   C     0.27485   0.39565   0.53479   0.00000  Uiso   1.00
C250   C     0.28495   0.05439   0.52441   0.00000  Uiso   1.00
C251   C     0.21505   0.44561   0.47558   0.00000  Uiso   1.00
C252   C     0.22941   0.05410   0.46036   0.00000  Uiso   1.00
Cl253  Cl    0.31597   0.13472   0.57158   0.00000  Uiso   1.00
Cl254  Cl    0.37975   0.15191   0.46406   0.00000  Uiso   1.00
Cl255  Cl    0.38036   0.34989   0.47066   0.00000  Uiso   1.00
Cl256  Cl    0.11964   0.15011   0.52934   0.00000  Uiso   1.00
Cl257  Cl    0.33867   0.03041   0.53643   0.00000  Uiso   1.00
Cl258  Cl    0.16133   0.46959   0.46356   0.00000  Uiso   1.00
Cl259  Cl    0.22089   0.02984   0.40045   0.00000  Uiso   1.00
Cl260  Cl    0.27912   0.47016   0.59955   0.00000  Uiso   1.00
Cl261  Cl    0.18403   0.36528   0.42842   0.00000  Uiso   1.00
Cl262  Cl    0.18788   0.13399   0.42430   0.00000  Uiso   1.00
Cl263  Cl    0.31212   0.36601   0.57570   0.00000  Uiso   1.00
Cl264  Cl    0.01941   0.33839   0.55573   0.00000  Uiso   1.00
Cl265  Cl    0.48059   0.16161   0.44427   0.00000  Uiso   1.00
Cl266  Cl    0.48079   0.34050   0.44898   0.00000  Uiso   1.00
Cl267  Cl    0.01921   0.15950   0.55102   0.00000  Uiso   1.00
Cl268  Cl    0.12025   0.34809   0.53594   0.00000  Uiso   1.00
Cu269  Cu    0.25000   0.29821   0.50000   0.00000  Uiso   1.00
Cu270  Cu    0.25000   0.20178   0.50000   0.00000  Uiso   1.00
N271   N     0.25000   0.12934   0.50000   0.00000  Uiso   1.00
N272   N     0.25000   0.37065   0.50000   0.00000  Uiso   1.00
O273   O     0.18573   0.29071   0.50000   0.00000  Uiso   1.00
O274   O     0.31427   0.20928   0.50000   0.00000  Uiso   1.00
O275   O     0.31427   0.29071   0.50000   0.00000  Uiso   1.00
O276   O     0.18573   0.20928   0.50000   0.00000  Uiso   1.00
O277   O     0.25000   0.29071   0.42946   0.00000  Uiso   1.00
O278   O     0.25000   0.20929   0.57054   0.00000  Uiso   1.00
O279   O     0.25000   0.29071   0.57054   0.00000  Uiso   1.00
O280   O     0.25000   0.20929   0.42946   0.00000  Uiso   1.00
C281   C     0.66492   0.24996   0.50415   0.00000  Uiso   1.00
C282   C     0.77060   0.44590   0.53964   0.00000  Uiso   1.00
C283   C     0.74990   0.24994   0.40690   0.00000  Uiso   1.00
C284   C     0.75010   0.25006   0.59310   0.00000  Uiso   1.00
C285   C     0.75269   0.02739   0.49715   0.00000  Uiso   1.00
C286   C     0.74731   0.47261   0.50285   0.00000  Uiso   1.00
C287   C     0.74997   0.24991   0.35519   0.00000  Uiso   1.00
C288   C     0.75003   0.25009   0.64481   0.00000  Uiso   1.00
C289   C     0.54664   0.29216   0.52348   0.00000  Uiso   1.00
C290   C     0.95336   0.20784   0.47652   0.00000  Uiso   1.00
C291   C     0.95348   0.29304   0.47887   0.00000  Uiso   1.00
C292   C     0.83508   0.25004   0.49585   0.00000  Uiso   1.00
C293   C     0.54652   0.20696   0.52113   0.00000  Uiso   1.00
C294   C     0.59310   0.29308   0.52195   0.00000  Uiso   1.00
C295   C     0.90690   0.20692   0.47805   0.00000  Uiso   1.00
C296   C     0.90707   0.29397   0.48065   0.00000  Uiso   1.00
C297   C     0.59293   0.20603   0.51935   0.00000  Uiso   1.00
C298   C     0.61649   0.24974   0.51325   0.00000  Uiso   1.00
C299   C     0.88351   0.25026   0.48675   0.00000  Uiso   1.00
C300   C     0.52369   0.24982   0.50994   0.00000  Uiso   1.00
C301   C     0.97631   0.25018   0.49006   0.00000  Uiso   1.00
C302   C     0.78042   0.10464   0.52888   0.00000  Uiso   1.00
C303   C     0.71958   0.39535   0.47112   0.00000  Uiso   1.00
C304   C     0.72515   0.10435   0.46521   0.00000  Uiso   1.00
C305   C     0.77485   0.39565   0.53479   0.00000  Uiso   1.00
C306   C     0.78495   0.05439   0.52441   0.00000  Uiso   1.00
C307   C     0.71505   0.44561   0.47558   0.00000  Uiso   1.00
C308   C     0.72941   0.05410   0.46036   0.00000  Uiso   1.00
Cl309  Cl    0.81597   0.13472   0.57158   0.00000  Uiso   1.00
Cl310  Cl    0.87975   0.15191   0.46406   0.00000  Uiso   1.00
Cl311  Cl    0.88036   0.34989   0.47066   0.00000  Uiso   1.00
Cl312  Cl    0.61964   0.15011   0.52934   0.00000  Uiso   1.00
Cl313  Cl    0.83867   0.03041   0.53643   0.00000  Uiso   1.00
Cl314  Cl    0.66133   0.46959   0.46356   0.00000  Uiso   1.00
Cl315  Cl    0.72089   0.02984   0.40045   0.00000  Uiso   1.00
Cl316  Cl    0.77912   0.47016   0.59955   0.00000  Uiso   1.00
Cl317  Cl    0.68403   0.36528   0.42842   0.00000  Uiso   1.00
Cl318  Cl    0.68788   0.13399   0.42430   0.00000  Uiso   1.00
Cl319  Cl    0.81212   0.36601   0.57570   0.00000  Uiso   1.00
Cl320  Cl    0.51941   0.33839   0.55573   0.00000  Uiso   1.00
Cl321  Cl    0.98059   0.16161   0.44427   0.00000  Uiso   1.00
Cl322  Cl    0.98079   0.34050   0.44898   0.00000  Uiso   1.00
Cl323  Cl    0.51921   0.15950   0.55102   0.00000  Uiso   1.00
Cl324  Cl    0.62025   0.34809   0.53594   0.00000  Uiso   1.00
Cu325  Cu    0.75000   0.29821   0.50000   0.00000  Uiso   1.00
Cu326  Cu    0.75000   0.20178   0.50000   0.00000  Uiso   1.00
N327   N     0.75000   0.12934   0.50000   0.00000  Uiso   1.00
N328   N     0.75000   0.37065   0.50000   0.00000  Uiso   1.00
O329   O     0.68573   0.29071   0.50000   0.00000  Uiso   1.00
O330   O     0.81427   0.20928   0.50000   0.00000  Uiso   1.00
O331   O     0.81427   0.29071   0.50000   0.00000  Uiso   1.00
O332   O     0.68573   0.20928   0.50000   0.00000  Uiso   1.00
O333   O     0.75000   0.29071   0.42946   0.00000  Uiso   1.00
O334   O     0.75000   0.20929   0.57054   0.00000  Uiso   1.00
O335   O     0.75000   0.29071   0.57054   0.00000  Uiso   1.00
O336   O     0.75000   0.20929   0.42946   0.00000  Uiso   1.00
C337   C     0.16492   0.74996   0.50415   0.00000  Uiso   1.00
C338   C     0.27060   0.94590   0.53964   0.00000  Uiso   1.00
C339   C     0.24990   0.74994   0.40690   0.00000  Uiso   1.00
C340   C     0.25010   0.75006   0.59310   0.00000  Uiso   1.00
C341   C     0.25269   0.52739   0.49715   0.00000  Uiso   1.00
C342   C     0.24731   0.97261   0.50285   0.00000  Uiso   1.00
C343   C     0.24997   0.74991   0.35519   0.00000  Uiso   1.00
C344   C     0.25003   0.75009   0.64481   0.00000  Uiso   1.00
C345   C     0.04664   0.79216   0.52348   0.00000  Uiso   1.00
C346   C     0.45336   0.70784   0.47652   0.00000  Uiso   1.00
C347   C     0.45348   0.79304   0.47887   0.00000  Uiso   1.00
C348   C     0.33508   0.75004   0.49585   0.00000  Uiso   1.00
C349   C     0.04652   0.70696   0.52113   0.00000  Uiso   1.00
C350   C     0.09310   0.79308   0.52195   0.00000  Uiso   1.00
C351   C     0.40690   0.70692   0.47805   0.00000  Uiso   1.00
C352   C     0.40707   0.79397   0.48065   0.00000  Uiso   1.00
C353   C     0.09293   0.70603   0.51935   0.00000  Uiso   1.00
C354   C     0.11649   0.74974   0.51325   0.00000  Uiso   1.00
C355   C     0.38351   0.75026   0.48675   0.00000  Uiso   1.00
C356   C     0.02369   0.74982   0.50994   0.00000  Uiso   1.00
C357   C     0.47631   0.75018   0.49006   0.00000  Uiso   1.00
C358   C     0.28042   0.60464   0.52888   0.00000  Uiso   1.00
C359   C     0.21958   0.89535   0.47112   0.00000  Uiso   1.00
C360   C     0.22515   0.60435   0.46521   0.00000  Uiso   1.00
C361   C     0.27485   0.89565   0.53479   0.00000  Uiso   1.00
C362   C     0.28495   0.55439   0.52441   0.00000  Uiso   1.00
C363   C     0.21505   0.94561   0.47558   0.00000  Uiso   1.00
C364   C     0.22941   0.55410   0.46036   0.00000  Uiso   1.00
Cl365  Cl    0.31597   0.63472   0.57158   0.00000  Uiso   1.00
Cl366  Cl    0.37975   0.65191   0.46406   0.00000  Uiso   1.00
Cl367  Cl    0.38036   0.84989   0.47066   0.00000  Uiso   1.00
Cl368  Cl    0.11964   0.65011   0.52934   0.00000  Uiso   1.00
Cl369  Cl    0.33867   0.53041   0.53643   0.00000  Uiso   1.00
Cl370  Cl    0.16133   0.96959   0.46356   0.00000  Uiso   1.00
Cl371  Cl    0.22089   0.52984   0.40045   0.00000  Uiso   1.00
Cl372  Cl    0.27912   0.97016   0.59955   0.00000  Uiso   1.00
Cl373  Cl    0.18403   0.86528   0.42842   0.00000  Uiso   1.00
Cl374  Cl    0.18788   0.63399   0.42430   0.00000  Uiso   1.00
Cl375  Cl    0.31212   0.86601   0.57570   0.00000  Uiso   1.00
Cl376  Cl    0.01941   0.83839   0.55573   0.00000  Uiso   1.00
Cl377  Cl    0.48059   0.66161   0.44427   0.00000  Uiso   1.00
Cl378  Cl    0.48079   0.84050   0.44898   0.00000  Uiso   1.00
Cl379  Cl    0.01921   0.65950   0.55102   0.00000  Uiso   1.00
Cl380  Cl    0.12025   0.84809   0.53594   0.00000  Uiso   1.00
Cu381  Cu    0.25000   0.79821   0.50000   0.00000  Uiso   1.00
Cu382  Cu    0.25000   0.70178   0.50000   0.00000  Uiso   1.00
N383   N     0.25000   0.62934   0.50000   0.00000  Uiso   1.00
N384   N     0.25000   0.87065   0.50000   0.00000  Uiso   1.00
O385   O     0.18573   0.79071   0.50000   0.00000  Uiso   1.00
O386   O     0.31427   0.70928   0.50000   0.00000  Uiso   1.00
O387   O     0.31427   0.79071   0.50000   0.00000  Uiso   1.00
O388   O     0.18573   0.70928   0.50000   0.00000  Uiso   1.00
O389   O     0.25000   0.79071   0.42946   0.00000  Uiso   1.00
O390   O     0.25000   0.70929   0.57054   0.00000  Uiso   1.00
O391   O     0.25000   0.79071   0.57054   0.00000  Uiso   1.00
O392   O     0.25000   0.70929   0.42946   0.00000  Uiso   1.00
C393   C     0.66492   0.74996   0.50415   0.00000  Uiso   1.00
C394   C     0.77060   0.94590   0.53964   0.00000  Uiso   1.00
C395   C     0.74990   0.74994   0.40690   0.00000  Uiso   1.00
C396   C     0.75010   0.75006   0.59310   0.00000  Uiso   1.00
C397   C     0.75269   0.52739   0.49715   0.00000  Uiso   1.00
C398   C     0.74731   0.97261   0.50285   0.00000  Uiso   1.00
C399   C     0.74997   0.74991   0.35519   0.00000  Uiso   1.00
C400   C     0.75003   0.75009   0.64481   0.00000  Uiso   1.00
C401   C     0.54664   0.79216   0.52348   0.00000  Uiso   1.00
C402   C     0.95336   0.70784   0.47652   0.00000  Uiso   1.00
C403   C     0.95348   0.79304   0.47887   0.00000  Uiso   1.00
C404   C     0.83508   0.75004   0.49585   0.00000  Uiso   1.00
C405   C     0.54652   0.70696   0.52113   0.00000  Uiso   1.00
C406   C     0.59310   0.79308   0.52195   0.00000  Uiso   1.00
C407   C     0.90690   0.70692   0.47805   0.00000  Uiso   1.00
C408   C     0.90707   0.79397   0.48065   0.00000  Uiso   1.00
C409   C     0.59293   0.70603   0.51935   0.00000  Uiso   1.00
C410   C     0.61649   0.74974   0.51325   0.00000  Uiso   1.00
C411   C     0.88351   0.75026   0.48675   0.00000  Uiso   1.00
C412   C     0.52369   0.74982   0.50994   0.00000  Uiso   1.00
C413   C     0.97631   0.75018   0.49006   0.00000  Uiso   1.00
C414   C     0.78042   0.60464   0.52888   0.00000  Uiso   1.00
C415   C     0.71958   0.89535   0.47112   0.00000  Uiso   1.00
C416   C     0.72515   0.60435   0.46521   0.00000  Uiso   1.00
C417   C     0.77485   0.89565   0.53479   0.00000  Uiso   1.00
C418   C     0.78495   0.55439   0.52441   0.00000  Uiso   1.00
C419   C     0.71505   0.94561   0.47558   0.00000  Uiso   1.00
C420   C     0.72941   0.55410   0.46036   0.00000  Uiso   1.00
Cl421  Cl    0.81597   0.63472   0.57158   0.00000  Uiso   1.00
Cl422  Cl    0.87975   0.65191   0.46406   0.00000  Uiso   1.00
Cl423  Cl    0.88036   0.84989   0.47066   0.00000  Uiso   1.00
Cl424  Cl    0.61964   0.65011   0.52934   0.00000  Uiso   1.00
Cl425  Cl    0.83867   0.53041   0.53643   0.00000  Uiso   1.00
Cl426  Cl    0.66133   0.96959   0.46356   0.00000  Uiso   1.00
Cl427  Cl    0.72089   0.52984   0.40045   0.00000  Uiso   1.00
Cl428  Cl    0.77912   0.97016   0.59955   0.00000  Uiso   1.00
Cl429  Cl    0.68403   0.86528   0.42842   0.00000  Uiso   1.00
Cl430  Cl    0.68788   0.63399   0.42430   0.00000  Uiso   1.00
Cl431  Cl    0.81212   0.86601   0.57570   0.00000  Uiso   1.00
Cl432  Cl    0.51941   0.83839   0.55573   0.00000  Uiso   1.00
Cl433  Cl    0.98059   0.66161   0.44427   0.00000  Uiso   1.00
Cl434  Cl    0.98079   0.84050   0.44898   0.00000  Uiso   1.00
Cl435  Cl    0.51921   0.65950   0.55102   0.00000  Uiso   1.00
Cl436  Cl    0.62025   0.84809   0.53594   0.00000  Uiso   1.00
Cu437  Cu    0.75000   0.79821   0.50000   0.00000  Uiso   1.00
Cu438  Cu    0.75000   0.70178   0.50000   0.00000  Uiso   1.00
N439   N     0.75000   0.62934   0.50000   0.00000  Uiso   1.00
N440   N     0.75000   0.87065   0.50000   0.00000  Uiso   1.00
O441   O     0.68573   0.79071   0.50000   0.00000  Uiso   1.00
O442   O     0.81427   0.70928   0.50000   0.00000  Uiso   1.00
O443   O     0.81427   0.79071   0.50000   0.00000  Uiso   1.00
O444   O     0.68573   0.70928   0.50000   0.00000  Uiso   1.00
O445   O     0.75000   0.79071   0.42946   0.00000  Uiso   1.00
O446   O     0.75000   0.70929   0.57054   0.00000  Uiso   1.00
O447   O     0.75000   0.79071   0.57054   0.00000  Uiso   1.00
O448   O     0.75000   0.70929   0.42946   0.00000  Uiso   1.00
C449   C     0.16492   0.24996   0.83749   0.00000  Uiso   1.00
C450   C     0.27060   0.44590   0.87297   0.00000  Uiso   1.00
C451   C     0.24990   0.24994   0.74023   0.00000  Uiso   1.00
C452   C     0.25010   0.25006   0.92644   0.00000  Uiso   1.00
C453   C     0.25269   0.02739   0.83049   0.00000  Uiso   1.00
C454   C     0.24731   0.47261   0.83618   0.00000  Uiso   1.00
C455   C     0.24997   0.24991   0.68852   0.00000  Uiso   1.00
C456   C     0.25003   0.25009   0.97815   0.00000  Uiso   1.00
C457   C     0.04664   0.29216   0.85681   0.00000  Uiso   1.00
C458   C     0.45336   0.20784   0.80985   0.00000  Uiso   1.00
C459   C     0.45348   0.29304   0.81221   0.00000  Uiso   1.00
C460   C     0.33508   0.25004   0.82918   0.00000  Uiso   1.00
C461   C     0.04652   0.20696   0.85446   0.00000  Uiso   1.00
C462   C     0.09310   0.29308   0.85528   0.00000  Uiso   1.00
C463   C     0.40690   0.20692   0.81139   0.00000  Uiso   1.00
C464   C     0.40707   0.29397   0.81398   0.00000  Uiso   1.00
C465   C     0.09293   0.20603   0.85268   0.00000  Uiso   1.00
C466   C     0.11649   0.24974   0.84658   0.00000  Uiso   1.00
C467   C     0.38351   0.25026   0.82009   0.00000  Uiso   1.00
C468   C     0.02369   0.24982   0.84327   0.00000  Uiso   1.00
C469   C     0.47631   0.25018   0.82339   0.00000  Uiso   1.00
C470   C     0.28042   0.10464   0.86222   0.00000  Uiso   1.00
C471   C     0.21958   0.39535   0.80445   0.00000  Uiso   1.00
C472   C     0.22515   0.10435   0.79855   0.00000  Uiso   1.00
C473   C     0.27485   0.39565   0.86812   0.00000  Uiso   1.00
C474   C     0.28495   0.05439   0.85775   0.00000  Uiso   1.00
C475   C     0.21505   0.44561   0.80892   0.00000  Uiso   1.00
C476   C     0.22941   0.05410   0.79369   0.00000  Uiso   1.00
Cl477  Cl    0.31597   0.13472   0.90492   0.00000  Uiso   1.00
Cl478  Cl    0.37975   0.15191   0.79739   0.00000  Uiso   1.00
Cl479  Cl    0.38036   0.34989   0.80399   0.00000  Uiso   1.00
Cl480  Cl    0.11964   0.15011   0.86268   0.00000  Uiso   1.00
Cl481  Cl    0.33867   0.03041   0.86976   0.00000  Uiso   1.00
Cl482  Cl    0.16133   0.46959   0.79690   0.00000  Uiso   1.00
Cl483  Cl    0.22089   0.02984   0.73378   0.00000  Uiso   1.00
Cl484  Cl    0.27912   0.47016   0.93288   0.00000  Uiso   1.00
Cl485  Cl    0.18403   0.36528   0.76175   0.00000  Uiso   1.00
Cl486  Cl    0.18788   0.13399   0.75763   0.00000  Uiso   1.00
Cl487  Cl    0.31212   0.36601   0.90903   0.00000  Uiso   1.00
Cl488  Cl    0.01941   0.33839   0.88906   0.00000  Uiso   1.00
Cl489  Cl    0.48059   0.16161   0.77760   0.00000  Uiso   1.00
Cl490  Cl    0.48079   0.34050   0.78231   0.00000  Uiso   1.00
Cl491  Cl    0.01921   0.15950   0.88435   0.00000  Uiso   1.00
Cl492  Cl    0.12025   0.34809   0.86927   0.00000  Uiso   1.00
Cu493  Cu    0.25000   0.29821   0.83333   0.00000  Uiso   1.00
Cu494  Cu    0.25000   0.20178   0.83333   0.00000  Uiso   1.00
N495   N     0.25000   0.12934   0.83333   0.00000  Uiso   1.00
N496   N     0.25000   0.37065   0.83333   0.00000  Uiso   1.00
O497   O     0.18573   0.29071   0.83334   0.00000  Uiso   1.00
O498   O     0.31427   0.20928   0.83333   0.00000  Uiso   1.00
O499   O     0.31427   0.29071   0.83333   0.00000  Uiso   1.00
O500   O     0.18573   0.20928   0.83334   0.00000  Uiso   1.00
O501   O     0.25000   0.29071   0.76280   0.00000  Uiso   1.00
O502   O     0.25000   0.20929   0.90387   0.00000  Uiso   1.00
O503   O     0.25000   0.29071   0.90387   0.00000  Uiso   1.00
O504   O     0.25000   0.20929   0.76280   0.00000  Uiso   1.00
C505   C     0.66492   0.24996   0.83749   0.00000  Uiso   1.00
C506   C     0.77060   0.44590   0.87297   0.00000  Uiso   1.00
C507   C     0.74990   0.24994   0.74023   0.00000  Uiso   1.00
C508   C     0.75010   0.25006   0.92644   0.00000  Uiso   1.00
C509   C     0.75269   0.02739   0.83049   0.00000  Uiso   1.00
C510   C     0.74731   0.47261   0.83618   0.00000  Uiso   1.00
C511   C     0.74997   0.24991   0.68852   0.00000  Uiso   1.00
C512   C     0.75003   0.25009   0.97815   0.00000  Uiso   1.00
C513   C     0.54664   0.29216   0.85681   0.00000  Uiso   1.00
C514   C     0.95336   0.20784   0.80985   0.00000  Uiso   1.00
C515   C     0.95348   0.29304   0.81221   0.00000  Uiso   1.00
C516   C     0.83508   0.25004   0.82918   0.00000  Uiso   1.00
C517   C     0.54652   0.20696   0.85446   0.00000  Uiso   1.00
C518   C     0.59310   0.29308   0.85528   0.00000  Uiso   1.00
C519   C     0.90690   0.20692   0.81139   0.00000  Uiso   1.00
C520   C     0.90707   0.29397   0.81398   0.00000  Uiso   1.00
C521   C     0.59293   0.20603   0.85268   0.00000  Uiso   1.00
C522   C     0.61649   0.24974   0.84658   0.00000  Uiso   1.00
C523   C     0.88351   0.25026   0.82009   0.00000  Uiso   1.00
C524   C     0.52369   0.24982   0.84327   0.00000  Uiso   1.00
C525   C     0.97631   0.25018   0.82339   0.00000  Uiso   1.00
C526   C     0.78042   0.10464   0.86222   0.00000  Uiso   1.00
C527   C     0.71958   0.39535   0.80445   0.00000  Uiso   1.00
C528   C     0.72515   0.10435   0.79855   0.00000  Uiso   1.00
C529   C     0.77485   0.39565   0.86812   0.00000  Uiso   1.00
C530   C     0.78495   0.05439   0.85775   0.00000  Uiso   1.00
C531   C     0.71505   0.44561   0.80892   0.00000  Uiso   1.00
C532   C     0.72941   0.05410   0.79369   0.00000  Uiso   1.00
Cl533  Cl    0.81597   0.13472   0.90492   0.00000  Uiso   1.00
Cl534  Cl    0.87975   0.15191   0.79739   0.00000  Uiso   1.00
Cl535  Cl    0.88036   0.34989   0.80399   0.00000  Uiso   1.00
Cl536  Cl    0.61964   0.15011   0.86268   0.00000  Uiso   1.00
Cl537  Cl    0.83867   0.03041   0.86976   0.00000  Uiso   1.00
Cl538  Cl    0.66133   0.46959   0.79690   0.00000  Uiso   1.00
Cl539  Cl    0.72089   0.02984   0.73378   0.00000  Uiso   1.00
Cl540  Cl    0.77912   0.47016   0.93288   0.00000  Uiso   1.00
Cl541  Cl    0.68403   0.36528   0.76175   0.00000  Uiso   1.00
Cl542  Cl    0.68788   0.13399   0.75763   0.00000  Uiso   1.00
Cl543  Cl    0.81212   0.36601   0.90903   0.00000  Uiso   1.00
Cl544  Cl    0.51941   0.33839   0.88906   0.00000  Uiso   1.00
Cl545  Cl    0.98059   0.16161   0.77760   0.00000  Uiso   1.00
Cl546  Cl    0.98079   0.34050   0.78231   0.00000  Uiso   1.00
Cl547  Cl    0.51921   0.15950   0.88435   0.00000  Uiso   1.00
Cl548  Cl    0.62025   0.34809   0.86927   0.00000  Uiso   1.00
Cu549  Cu    0.75000   0.29821   0.83333   0.00000  Uiso   1.00
Cu550  Cu    0.75000   0.20178   0.83333   0.00000  Uiso   1.00
N551   N     0.75000   0.12934   0.83333   0.00000  Uiso   1.00
N552   N     0.75000   0.37065   0.83333   0.00000  Uiso   1.00
O553   O     0.68573   0.29071   0.83334   0.00000  Uiso   1.00
O554   O     0.81427   0.20928   0.83333   0.00000  Uiso   1.00
O555   O     0.81427   0.29071   0.83333   0.00000  Uiso   1.00
O556   O     0.68573   0.20928   0.83334   0.00000  Uiso   1.00
O557   O     0.75000   0.29071   0.76280   0.00000  Uiso   1.00
O558   O     0.75000   0.20929   0.90387   0.00000  Uiso   1.00
O559   O     0.75000   0.29071   0.90387   0.00000  Uiso   1.00
O560   O     0.75000   0.20929   0.76280   0.00000  Uiso   1.00
C561   C     0.16492   0.74996   0.83749   0.00000  Uiso   1.00
C562   C     0.27060   0.94590   0.87297   0.00000  Uiso   1.00
C563   C     0.24990   0.74994   0.74023   0.00000  Uiso   1.00
C564   C     0.25010   0.75006   0.92644   0.00000  Uiso   1.00
C565   C     0.25269   0.52739   0.83049   0.00000  Uiso   1.00
C566   C     0.24731   0.97261   0.83618   0.00000  Uiso   1.00
C567   C     0.24997   0.74991   0.68852   0.00000  Uiso   1.00
C568   C     0.25003   0.75009   0.97815   0.00000  Uiso   1.00
C569   C     0.04664   0.79216   0.85681   0.00000  Uiso   1.00
C570   C     0.45336   0.70784   0.80985   0.00000  Uiso   1.00
C571   C     0.45348   0.79304   0.81221   0.00000  Uiso   1.00
C572   C     0.33508   0.75004   0.82918   0.00000  Uiso   1.00
C573   C     0.04652   0.70696   0.85446   0.00000  Uiso   1.00
C574   C     0.09310   0.79308   0.85528   0.00000  Uiso   1.00
C575   C     0.40690   0.70692   0.81139   0.00000  Uiso   1.00
C576   C     0.40707   0.79397   0.81398   0.00000  Uiso   1.00
C577   C     0.09293   0.70603   0.85268   0.00000  Uiso   1.00
C578   C     0.11649   0.74974   0.84658   0.00000  Uiso   1.00
C579   C     0.38351   0.75026   0.82009   0.00000  Uiso   1.00
C580   C     0.02369   0.74982   0.84327   0.00000  Uiso   1.00
C581   C     0.47631   0.75018   0.82339   0.00000  Uiso   1.00
C582   C     0.28042   0.60464   0.86222   0.00000  Uiso   1.00
C583   C     0.21958   0.89535   0.80445   0.00000  Uiso   1.00
C584   C     0.22515   0.60435   0.79855   0.00000  Uiso   1.00
C585   C     0.27485   0.89565   0.86812   0.00000  Uiso   1.00
C586   C     0.28495   0.55439   0.85775   0.00000  Uiso   1.00
C587   C     0.21505   0.94561   0.80892   0.00000  Uiso   1.00
C588   C     0.22941   0.55410   0.79369   0.00000  Uiso   1.00
Cl589  Cl    0.31597   0.63472   0.90492   0.00000  Uiso   1.00
Cl590  Cl    0.37975   0.65191   0.79739   0.00000  Uiso   1.00
Cl591  Cl    0.38036   0.84989   0.80399   0.00000  Uiso   1.00
Cl592  Cl    0.11964   0.65011   0.86268   0.00000  Uiso   1.00
Cl593  Cl    0.33867   0.53041   0.86976   0.00000  Uiso   1.00
Cl594  Cl    0.16133   0.96959   0.79690   0.00000  Uiso   1.00
Cl595  Cl    0.22089   0.52984   0.73378   0.00000  Uiso   1.00
Cl596  Cl    0.27912   0.97016   0.93288   0.00000  Uiso   1.00
Cl597  Cl    0.18403   0.86528   0.76175   0.00000  Uiso   1.00
Cl598  Cl    0.18788   0.63399   0.75763   0.00000  Uiso   1.00
Cl599  Cl    0.31212   0.86601   0.90903   0.00000  Uiso   1.00
Cl600  Cl    0.01941   0.83839   0.88906   0.00000  Uiso   1.00
Cl601  Cl    0.48059   0.66161   0.77760   0.00000  Uiso   1.00
Cl602  Cl    0.48079   0.84050   0.78231   0.00000  Uiso   1.00
Cl603  Cl    0.01921   0.65950   0.88435   0.00000  Uiso   1.00
Cl604  Cl    0.12025   0.84809   0.86927   0.00000  Uiso   1.00
Cu605  Cu    0.25000   0.79821   0.83333   0.00000  Uiso   1.00
Cu606  Cu    0.25000   0.70178   0.83333   0.00000  Uiso   1.00
N607   N     0.25000   0.62934   0.83333   0.00000  Uiso   1.00
N608   N     0.25000   0.87065   0.83333   0.00000  Uiso   1.00
O609   O     0.18573   0.79071   0.83334   0.00000  Uiso   1.00
O610   O     0.31427   0.70928   0.83333   0.00000  Uiso   1.00
O611   O     0.31427   0.79071   0.83333   0.00000  Uiso   1.00
O612   O     0.18573   0.70928   0.83334   0.00000  Uiso   1.00
O613   O     0.25000   0.79071   0.76280   0.00000  Uiso   1.00
O614   O     0.25000   0.70929   0.90387   0.00000  Uiso   1.00
O615   O     0.25000   0.79071   0.90387   0.00000  Uiso   1.00
O616   O     0.25000   0.70929   0.76280   0.00000  Uiso   1.00
C617   C     0.66492   0.74996   0.83749   0.00000  Uiso   1.00
C618   C     0.77060   0.94590   0.87297   0.00000  Uiso   1.00
C619   C     0.74990   0.74994   0.74023   0.00000  Uiso   1.00
C620   C     0.75010   0.75006   0.92644   0.00000  Uiso   1.00
C621   C     0.75269   0.52739   0.83049   0.00000  Uiso   1.00
C622   C     0.74731   0.97261   0.83618   0.00000  Uiso   1.00
C623   C     0.74997   0.74991   0.68852   0.00000  Uiso   1.00
C624   C     0.75003   0.75009   0.97815   0.00000  Uiso   1.00
C625   C     0.54664   0.79216   0.85681   0.00000  Uiso   1.00
C626   C     0.95336   0.70784   0.80985   0.00000  Uiso   1.00
C627   C     0.95348   0.79304   0.81221   0.00000  Uiso   1.00
C628   C     0.83508   0.75004   0.82918   0.00000  Uiso   1.00
C629   C     0.54652   0.70696   0.85446   0.00000  Uiso   1.00
C630   C     0.59310   0.79308   0.85528   0.00000  Uiso   1.00
C631   C     0.90690   0.70692   0.81139   0.00000  Uiso   1.00
C632   C     0.90707   0.79397   0.81398   0.00000  Uiso   1.00
C633   C     0.59293   0.70603   0.85268   0.00000  Uiso   1.00
C634   C     0.61649   0.74974   0.84658   0.00000  Uiso   1.00
C635   C     0.88351   0.75026   0.82009   0.00000  Uiso   1.00
C636   C     0.52369   0.74982   0.84327   0.00000  Uiso   1.00
C637   C     0.97631   0.75018   0.82339   0.00000  Uiso   1.00
C638   C     0.78042   0.60464   0.86222   0.00000  Uiso   1.00
C639   C     0.71958   0.89535   0.80445   0.00000  Uiso   1.00
C640   C     0.72515   0.60435   0.79855   0.00000  Uiso   1.00
C641   C     0.77485   0.89565   0.86812   0.00000  Uiso   1.00
C642   C     0.78495   0.55439   0.85775   0.00000  Uiso   1.00
C643   C     0.71505   0.94561   0.80892   0.00000  Uiso   1.00
C644   C     0.72941   0.55410   0.79369   0.00000  Uiso   1.00
Cl645  Cl    0.81597   0.63472   0.90492   0.00000  Uiso   1.00
Cl646  Cl    0.87975   0.65191   0.79739   0.00000  Uiso   1.00
Cl647  Cl    0.88036   0.84989   0.80399   0.00000  Uiso   1.00
Cl648  Cl    0.61964   0.65011   0.86268   0.00000  Uiso   1.00
Cl649  Cl    0.83867   0.53041   0.86976   0.00000  Uiso   1.00
Cl650  Cl    0.66133   0.96959   0.79690   0.00000  Uiso   1.00
Cl651  Cl    0.72089   0.52984   0.73378   0.00000  Uiso   1.00
Cl652  Cl    0.77912   0.97016   0.93288   0.00000  Uiso   1.00
Cl653  Cl    0.68403   0.86528   0.76175   0.00000  Uiso   1.00
Cl654  Cl    0.68788   0.63399   0.75763   0.00000  Uiso   1.00
Cl655  Cl    0.81212   0.86601   0.90903   0.00000  Uiso   1.00
Cl656  Cl    0.51941   0.83839   0.88906   0.00000  Uiso   1.00
Cl657  Cl    0.98059   0.66161   0.77760   0.00000  Uiso   1.00
Cl658  Cl    0.98079   0.84050   0.78231   0.00000  Uiso   1.00
Cl659  Cl    0.51921   0.65950   0.88435   0.00000  Uiso   1.00
Cl660  Cl    0.62025   0.84809   0.86927   0.00000  Uiso   1.00
Cu661  Cu    0.75000   0.79821   0.83333   0.00000  Uiso   1.00
Cu662  Cu    0.75000   0.70178   0.83333   0.00000  Uiso   1.00
N663   N     0.75000   0.62934   0.83333   0.00000  Uiso   1.00
N664   N     0.75000   0.87065   0.83333   0.00000  Uiso   1.00
O665   O     0.68573   0.79071   0.83334   0.00000  Uiso   1.00
O666   O     0.81427   0.70928   0.83333   0.00000  Uiso   1.00
O667   O     0.81427   0.79071   0.83333   0.00000  Uiso   1.00
O668   O     0.68573   0.70928   0.83334   0.00000  Uiso   1.00
O669   O     0.75000   0.79071   0.76280   0.00000  Uiso   1.00
O670   O     0.75000   0.70929   0.90387   0.00000  Uiso   1.00
O671   O     0.75000   0.79071   0.90387   0.00000  Uiso   1.00
O672   O     0.75000   0.70929   0.76280   0.00000  Uiso   1.00
loop_
_geom_bond_atom_site_label_1
_geom_bond_atom_site_label_2
_geom_bond_distance
_geom_bond_site_symmetry_2
_ccdc_geom_bond_type
C1     C18     1.490   .     S
C1     O52     1.303   .     A
C1     O49     1.305   .     A
C2     C6      1.417   .     A
C2     C25     1.413   .     A
C2     Cl36    1.773   .     S
C3     O56     1.291   .     A
C3     O53     1.290   .     A
C3     C7      1.407   .     S
C4     C8      1.407   .     S
C4     O55     1.291   .     A
C4     O54     1.290   .     A
C5     C28     1.417   .     A
C5     C26     1.417   .     A
C5     C118    1.545   1_545 S
C6     C27     1.417   .     A
C6     C117    1.545   .     S
C7     C456    1.189   1_554 S
C8     C231    1.189   .     S
C9     C14     1.403   .     A
C9     C20     1.410   .     A
C9     Cl40    1.774   .     S
C10    C21     1.410   .     A
C10    C15     1.403   .     A
C10    Cl41    1.774   .     S
C11    Cl42    1.774   .     S
C11    C16     1.402   .     A
C11    C21     1.408   .     A
C12    O50     1.305   .     A
C12    C19     1.490   .     S
C12    O51     1.303   .     A
C13    C17     1.402   .     A
C13    Cl43    1.774   .     S
C13    C20     1.408   .     A
C14    C18     1.422   .     A
C14    Cl44    1.772   .     S
C15    C19     1.422   .     A
C15    Cl30    1.772   .     S
C16    Cl31    1.772   .     S
C16    C19     1.424   .     A
C17    C18     1.424   .     A
C17    Cl32    1.772   .     S
C20    C77     1.510   1_455 S
C21    C76     1.510   .     S
C22    Cl29    1.762   .     S
C22    N47     1.374   .     A
C22    C26     1.413   .     A
C23    C27     1.413   .     A
C23    N48     1.374   .     A
C23    Cl37    1.762   .     S
C24    Cl38    1.762   .     S
C24    N47     1.374   .     A
C24    C28     1.413   .     A
C25    Cl39    1.762   .     S
C25    N48     1.374   .     A
C26    Cl33    1.772   .     S
C27    Cl34    1.772   .     S
C28    Cl35    1.773   .     S
Cu45   O49     1.949   .     S
Cu45   O53     1.930   .     S
Cu45   Cu46    2.689   .     S
Cu45   O51     1.949   .     S
Cu45   O55     1.932   .     S
Cu45   N48     2.020   .     S
Cu46   O54     1.930   .     S
Cu46   O52     1.949   .     S
Cu46   O56     1.932   .     S
Cu46   O50     1.949   .     S
Cu46   N47     2.020   .     S
C57    C74     1.490   .     S
C57    O108    1.303   .     A
C57    O105    1.305   .     A
C58    C62     1.417   .     A
C58    C81     1.413   .     A
C58    Cl92    1.773   .     S
C59    O112    1.291   .     A
C59    O109    1.290   .     A
C59    C63     1.407   .     S
C60    C64     1.407   .     S
C60    O111    1.291   .     A
C60    O110    1.290   .     A
C61    C84     1.417   .     A
C61    C82     1.417   .     A
C61    C174    1.545   1_545 S
C62    C83     1.417   .     A
C62    C173    1.545   .     S
C63    C512    1.189   1_554 S
C64    C287    1.189   .     S
C65    C70     1.403   .     A
C65    C76     1.410   .     A
C65    Cl96    1.774   .     S
C66    C77     1.410   .     A
C66    C71     1.403   .     A
C66    Cl97    1.774   .     S
C67    Cl98    1.774   .     S
C67    C72     1.402   .     A
C67    C77     1.408   .     A
C68    O106    1.305   .     A
C68    C75     1.490   .     S
C68    O107    1.303   .     A
C69    C73     1.402   .     A
C69    Cl99    1.774   .     S
C69    C76     1.408   .     A
C70    C74     1.422   .     A
C70    Cl100   1.772   .     S
C71    C75     1.422   .     A
C71    Cl86    1.772   .     S
C72    Cl87    1.772   .     S
C72    C75     1.424   .     A
C73    C74     1.424   .     A
C73    Cl88    1.772   .     S
C77    C20     1.510   1_655 S
C78    Cl85    1.762   .     S
C78    N103    1.374   .     A
C78    C82     1.413   .     A
C79    C83     1.413   .     A
C79    N104    1.374   .     A
C79    Cl93    1.762   .     S
C80    Cl94    1.762   .     S
C80    N103    1.374   .     A
C80    C84     1.413   .     A
C81    Cl95    1.762   .     S
C81    N104    1.374   .     A
C82    Cl89    1.772   .     S
C83    Cl90    1.772   .     S
C84    Cl91    1.773   .     S
Cu101  O105    1.949   .     S
Cu101  O109    1.930   .     S
Cu101  Cu102   2.689   .     S
Cu101  O107    1.949   .     S
Cu101  O111    1.932   .     S
Cu101  N104    2.020   .     S
Cu102  O110    1.930   .     S
Cu102  O108    1.949   .     S
Cu102  O112    1.932   .     S
Cu102  O106    1.949   .     S
Cu102  N103    2.020   .     S
C113   C130    1.490   .     S
C113   O164    1.303   .     A
C113   O161    1.305   .     A
C114   C118    1.417   .     A
C114   C137    1.413   .     A
C114   Cl148   1.773   .     S
C115   O168    1.291   .     A
C115   O165    1.290   .     A
C115   C119    1.407   .     S
C116   C120    1.407   .     S
C116   O167    1.291   .     A
C116   O166    1.290   .     A
C117   C140    1.417   .     A
C117   C138    1.417   .     A
C118   C139    1.417   .     A
C118   C5      1.545   1_565 S
C119   C568    1.189   1_554 S
C120   C343    1.189   .     S
C121   C126    1.403   .     A
C121   C132    1.410   .     A
C121   Cl152   1.774   .     S
C122   C133    1.410   .     A
C122   C127    1.403   .     A
C122   Cl153   1.774   .     S
C123   Cl154   1.774   .     S
C123   C128    1.402   .     A
C123   C133    1.408   .     A
C124   O162    1.305   .     A
C124   C131    1.490   .     S
C124   O163    1.303   .     A
C125   C129    1.402   .     A
C125   Cl155   1.774   .     S
C125   C132    1.408   .     A
C126   C130    1.422   .     A
C126   Cl156   1.772   .     S
C127   C131    1.422   .     A
C127   Cl142   1.772   .     S
C128   Cl143   1.772   .     S
C128   C131    1.424   .     A
C129   C130    1.424   .     A
C129   Cl144   1.772   .     S
C132   C189    1.510   1_455 S
C133   C188    1.510   .     S
C134   Cl141   1.762   .     S
C134   N159    1.374   .     A
C134   C138    1.413   .     A
C135   C139    1.413   .     A
C135   N160    1.374   .     A
C135   Cl149   1.762   .     S
C136   Cl150   1.762   .     S
C136   N159    1.374   .     A
C136   C140    1.413   .     A
C137   Cl151   1.762   .     S
C137   N160    1.374   .     A
C138   Cl145   1.772   .     S
C139   Cl146   1.772   .     S
C140   Cl147   1.773   .     S
Cu157  O161    1.949   .     S
Cu157  O165    1.930   .     S
Cu157  Cu158   2.689   .     S
Cu157  O163    1.949   .     S
Cu157  O167    1.932   .     S
Cu157  N160    2.020   .     S
Cu158  O166    1.930   .     S
Cu158  O164    1.949   .     S
Cu158  O168    1.932   .     S
Cu158  O162    1.949   .     S
Cu158  N159    2.020   .     S
C169   C186    1.490   .     S
C169   O220    1.303   .     A
C169   O217    1.305   .     A
C170   C174    1.417   .     A
C170   C193    1.413   .     A
C170   Cl204   1.773   .     S
C171   O224    1.291   .     A
C171   O221    1.290   .     A
C171   C175    1.407   .     S
C172   C176    1.407   .     S
C172   O223    1.291   .     A
C172   O222    1.290   .     A
C173   C196    1.417   .     A
C173   C194    1.417   .     A
C174   C195    1.417   .     A
C174   C61     1.545   1_565 S
C175   C624    1.189   1_554 S
C176   C399    1.189   .     S
C177   C182    1.403   .     A
C177   C188    1.410   .     A
C177   Cl208   1.774   .     S
C178   C189    1.410   .     A
C178   C183    1.403   .     A
C178   Cl209   1.774   .     S
C179   Cl210   1.774   .     S
C179   C184    1.402   .     A
C179   C189    1.408   .     A
C180   O218    1.305   .     A
C180   C187    1.490   .     S
C180   O219    1.303   .     A
C181   C185    1.402   .     A
C181   Cl211   1.774   .     S
C181   C188    1.408   .     A
C182   C186    1.422   .     A
C182   Cl212   1.772   .     S
C183   C187    1.422   .     A
C183   Cl198   1.772   .     S
C184   Cl199   1.772   .     S
C184   C187    1.424   .     A
C185   C186    1.424   .     A
C185   Cl200   1.772   .     S
C189   C132    1.510   1_655 S
C190   Cl197   1.762   .     S
C190   N215    1.374   .     A
C190   C194    1.413   .     A
C191   C195    1.413   .     A
C191   N216    1.374   .     A
C191   Cl205   1.762   .     S
C192   Cl206   1.762   .     S
C192   N215    1.374   .     A
C192   C196    1.413   .     A
C193   Cl207   1.762   .     S
C193   N216    1.374   .     A
C194   Cl201   1.772   .     S
C195   Cl202   1.772   .     S
C196   Cl203   1.773   .     S
Cu213  O217    1.949   .     S
Cu213  O221    1.930   .     S
Cu213  Cu214   2.689   .     S
Cu213  O219    1.949   .     S
Cu213  O223    1.932   .     S
Cu213  N216    2.020   .     S
Cu214  O222    1.930   .     S
Cu214  O220    1.949   .     S
Cu214  O224    1.932   .     S
Cu214  O218    1.949   .     S
Cu214  N215    2.020   .     S
C225   C242    1.490   .     S
C225   O276    1.303   .     A
C225   O273    1.305   .     A
C226   C230    1.417   .     A
C226   C249    1.413   .     A
C226   Cl260   1.773   .     S
C227   O280    1.291   .     A
C227   O277    1.290   .     A
C227   C231    1.407   .     S
C228   C232    1.407   .     S
C228   O279    1.291   .     A
C228   O278    1.290   .     A
C229   C252    1.417   .     A
C229   C250    1.417   .     A
C229   C342    1.545   1_545 S
C230   C251    1.417   .     A
C230   C341    1.545   .     S
C232   C455    1.189   .     S
C233   C238    1.403   .     A
C233   C244    1.410   .     A
C233   Cl264   1.774   .     S
C234   C245    1.410   .     A
C234   C239    1.403   .     A
C234   Cl265   1.774   .     S
C235   Cl266   1.774   .     S
C235   C240    1.402   .     A
C235   C245    1.408   .     A
C236   O274    1.305   .     A
C236   C243    1.490   .     S
C236   O275    1.303   .     A
C237   C241    1.402   .     A
C237   Cl267   1.774   .     S
C237   C244    1.408   .     A
C238   C242    1.422   .     A
C238   Cl268   1.772   .     S
C239   C243    1.422   .     A
C239   Cl254   1.772   .     S
C240   Cl255   1.772   .     S
C240   C243    1.424   .     A
C241   C242    1.424   .     A
C241   Cl256   1.772   .     S
C244   C301    1.510   1_455 S
C245   C300    1.510   .     S
C246   Cl253   1.762   .     S
C246   N271    1.374   .     A
C246   C250    1.413   .     A
C247   C251    1.413   .     A
C247   N272    1.374   .     A
C247   Cl261   1.762   .     S
C248   Cl262   1.762   .     S
C248   N271    1.374   .     A
C248   C252    1.413   .     A
C249   Cl263   1.762   .     S
C249   N272    1.374   .     A
C250   Cl257   1.772   .     S
C251   Cl258   1.772   .     S
C252   Cl259   1.773   .     S
Cu269  O273    1.949   .     S
Cu269  O277    1.930   .     S
Cu269  Cu270   2.689   .     S
Cu269  O275    1.949   .     S
Cu269  O279    1.932   .     S
Cu269  N272    2.020   .     S
Cu270  O278    1.930   .     S
Cu270  O276    1.949   .     S
Cu270  O280    1.932   .     S
Cu270  O274    1.949   .     S
Cu270  N271    2.020   .     S
C281   C298    1.490   .     S
C281   O332    1.303   .     A
C281   O329    1.305   .     A
C282   C286    1.417   .     A
C282   C305    1.413   .     A
C282   Cl316   1.773   .     S
C283   O336    1.291   .     A
C283   O333    1.290   .     A
C283   C287    1.407   .     S
C284   C288    1.407   .     S
C284   O335    1.291   .     A
C284   O334    1.290   .     A
C285   C308    1.417   .     A
C285   C306    1.417   .     A
C285   C398    1.545   1_545 S
C286   C307    1.417   .     A
C286   C397    1.545   .     S
C288   C511    1.189   .     S
C289   C294    1.403   .     A
C289   C300    1.410   .     A
C289   Cl320   1.774   .     S
C290   C301    1.410   .     A
C290   C295    1.403   .     A
C290   Cl321   1.774   .     S
C291   Cl322   1.774   .     S
C291   C296    1.402   .     A
C291   C301    1.408   .     A
C292   O330    1.305   .     A
C292   C299    1.490   .     S
C292   O331    1.303   .     A
C293   C297    1.402   .     A
C293   Cl323   1.774   .     S
C293   C300    1.408   .     A
C294   C298    1.422   .     A
C294   Cl324   1.772   .     S
C295   C299    1.422   .     A
C295   Cl310   1.772   .     S
C296   Cl311   1.772   .     S
C296   C299    1.424   .     A
C297   C298    1.424   .     A
C297   Cl312   1.772   .     S
C301   C244    1.510   1_655 S
C302   Cl309   1.762   .     S
C302   N327    1.374   .     A
C302   C306    1.413   .     A
C303   C307    1.413   .     A
C303   N328    1.374   .     A
C303   Cl317   1.762   .     S
C304   Cl318   1.762   .     S
C304   N327    1.374   .     A
C304   C308    1.413   .     A
C305   Cl319   1.762   .     S
C305   N328    1.374   .     A
C306   Cl313   1.772   .     S
C307   Cl314   1.772   .     S
C308   Cl315   1.773   .     S
Cu325  O329    1.949   .     S
Cu325  O333    1.930   .     S
Cu325  Cu326   2.689   .     S
Cu325  O331    1.949   .     S
Cu325  O335    1.932   .     S
Cu325  N328    2.020   .     S
Cu326  O334    1.930   .     S
Cu326  O332    1.949   .     S
Cu326  O336    1.932   .     S
Cu326  O330    1.949   .     S
Cu326  N327    2.020   .     S
C337   C354    1.490   .     S
C337   O388    1.303   .     A
C337   O385    1.305   .     A
C338   C342    1.417   .     A
C338   C361    1.413   .     A
C338   Cl372   1.773   .     S
C339   O392    1.291   .     A
C339   O389    1.290   .     A
C339   C343    1.407   .     S
C340   C344    1.407   .     S
C340   O391    1.291   .     A
C340   O390    1.290   .     A
C341   C364    1.417   .     A
C341   C362    1.417   .     A
C342   C363    1.417   .     A
C342   C229    1.545   1_565 S
C344   C567    1.189   .     S
C345   C350    1.403   .     A
C345   C356    1.410   .     A
C345   Cl376   1.774   .     S
C346   C357    1.410   .     A
C346   C351    1.403   .     A
C346   Cl377   1.774   .     S
C347   Cl378   1.774   .     S
C347   C352    1.402   .     A
C347   C357    1.408   .     A
C348   O386    1.305   .     A
C348   C355    1.490   .     S
C348   O387    1.303   .     A
C349   C353    1.402   .     A
C349   Cl379   1.774   .     S
C349   C356    1.408   .     A
C350   C354    1.422   .     A
C350   Cl380   1.772   .     S
C351   C355    1.422   .     A
C351   Cl366   1.772   .     S
C352   Cl367   1.772   .     S
C352   C355    1.424   .     A
C353   C354    1.424   .     A
C353   Cl368   1.772   .     S
C356   C413    1.510   1_455 S
C357   C412    1.510   .     S
C358   Cl365   1.762   .     S
C358   N383    1.374   .     A
C358   C362    1.413   .     A
C359   C363    1.413   .     A
C359   N384    1.374   .     A
C359   Cl373   1.762   .     S
C360   Cl374   1.762   .     S
C360   N383    1.374   .     A
C360   C364    1.413   .     A
C361   Cl375   1.762   .     S
C361   N384    1.374   .     A
C362   Cl369   1.772   .     S
C363   Cl370   1.772   .     S
C364   Cl371   1.773   .     S
Cu381  O385    1.949   .     S
Cu381  O389    1.930   .     S
Cu381  Cu382   2.689   .     S
Cu381  O387    1.949   .     S
Cu381  O391    1.932   .     S
Cu381  N384    2.020   .     S
Cu382  O390    1.930   .     S
Cu382  O388    1.949   .     S
Cu382  O392    1.932   .     S
Cu382  O386    1.949   .     S
Cu382  N383    2.020   .     S
C393   C410    1.490   .     S
C393   O444    1.303   .     A
C393   O441    1.305   .     A
C394   C398    1.417   .     A
C394   C417    1.413   .     A
C394   Cl428   1.773   .     S
C395   O448    1.291   .     A
C395   O445    1.290   .     A
C395   C399    1.407   .     S
C396   C400    1.407   .     S
C396   O447    1.291   .     A
C396   O446    1.290   .     A
C397   C420    1.417   .     A
C397   C418    1.417   .     A
C398   C419    1.417   .     A
C398   C285    1.545   1_565 S
C400   C623    1.189   .     S
C401   C406    1.403   .     A
C401   C412    1.410   .     A
C401   Cl432   1.774   .     S
C402   C413    1.410   .     A
C402   C407    1.403   .     A
C402   Cl433   1.774   .     S
C403   Cl434   1.774   .     S
C403   C408    1.402   .     A
C403   C413    1.408   .     A
C404   O442    1.305   .     A
C404   C411    1.490   .     S
C404   O443    1.303   .     A
C405   C409    1.402   .     A
C405   Cl435   1.774   .     S
C405   C412    1.408   .     A
C406   C410    1.422   .     A
C406   Cl436   1.772   .     S
C407   C411    1.422   .     A
C407   Cl422   1.772   .     S
C408   Cl423   1.772   .     S
C408   C411    1.424   .     A
C409   C410    1.424   .     A
C409   Cl424   1.772   .     S
C413   C356    1.510   1_655 S
C414   Cl421   1.762   .     S
C414   N439    1.374   .     A
C414   C418    1.413   .     A
C415   C419    1.413   .     A
C415   N440    1.374   .     A
C415   Cl429   1.762   .     S
C416   Cl430   1.762   .     S
C416   N439    1.374   .     A
C416   C420    1.413   .     A
C417   Cl431   1.762   .     S
C417   N440    1.374   .     A
C418   Cl425   1.772   .     S
C419   Cl426   1.772   .     S
C420   Cl427   1.773   .     S
Cu437  O441    1.949   .     S
Cu437  O445    1.930   .     S
Cu437  Cu438   2.689   .     S
Cu437  O443    1.949   .     S
Cu437  O447    1.932   .     S
Cu437  N440    2.020   .     S
Cu438  O446    1.930   .     S
Cu438  O444    1.949   .     S
Cu438  O448    1.932   .     S
Cu438  O442    1.949   .     S
Cu438  N439    2.020   .     S
C449   C466    1.490   .     S
C449   O500    1.303   .     A
C449   O497    1.305   .     A
C450   C454    1.417   .     A
C450   C473    1.413   .     A
C450   Cl484   1.773   .     S
C451   O504    1.291   .     A
C451   O501    1.290   .     A
C451   C455    1.407   .     S
C452   C456    1.407   .     S
C452   O503    1.291   .     A
C452   O502    1.290   .     A
C453   C476    1.417   .     A
C453   C474    1.417   .     A
C453   C566    1.545   1_545 S
C454   C475    1.417   .     A
C454   C565    1.545   .     S
C456   C7      1.189   1_556 S
C457   C462    1.403   .     A
C457   C468    1.410   .     A
C457   Cl488   1.774   .     S
C458   C469    1.410   .     A
C458   C463    1.403   .     A
C458   Cl489   1.774   .     S
C459   Cl490   1.774   .     S
C459   C464    1.402   .     A
C459   C469    1.408   .     A
C460   O498    1.305   .     A
C460   C467    1.490   .     S
C460   O499    1.303   .     A
C461   C465    1.402   .     A
C461   Cl491   1.774   .     S
C461   C468    1.408   .     A
C462   C466    1.422   .     A
C462   Cl492   1.772   .     S
C463   C467    1.422   .     A
C463   Cl478   1.772   .     S
C464   Cl479   1.772   .     S
C464   C467    1.424   .     A
C465   C466    1.424   .     A
C465   Cl480   1.772   .     S
C468   C525    1.510   1_455 S
C469   C524    1.510   .     S
C470   Cl477   1.762   .     S
C470   N495    1.374   .     A
C470   C474    1.413   .     A
C471   C475    1.413   .     A
C471   N496    1.374   .     A
C471   Cl485   1.762   .     S
C472   Cl486   1.762   .     S
C472   N495    1.374   .     A
C472   C476    1.413   .     A
C473   Cl487   1.762   .     S
C473   N496    1.374   .     A
C474   Cl481   1.772   .     S
C475   Cl482   1.772   .     S
C476   Cl483   1.773   .     S
Cu493  O497    1.949   .     S
Cu493  O501    1.930   .     S
Cu493  Cu494   2.689   .     S
Cu493  O499    1.949   .     S
Cu493  O503    1.932   .     S
Cu493  N496    2.020   .     S
Cu494  O502    1.930   .     S
Cu494  O500    1.949   .     S
Cu494  O504    1.932   .     S
Cu494  O498    1.949   .     S
Cu494  N495    2.020   .     S
C505   C522    1.490   .     S
C505   O556    1.303   .     A
C505   O553    1.305   .     A
C506   C510    1.417   .     A
C506   C529    1.413   .     A
C506   Cl540   1.773   .     S
C507   O560    1.291   .     A
C507   O557    1.290   .     A
C507   C511    1.407   .     S
C508   C512    1.407   .     S
C508   O559    1.291   .     A
C508   O558    1.290   .     A
C509   C532    1.417   .     A
C509   C530    1.417   .     A
C509   C622    1.545   1_545 S
C510   C531    1.417   .     A
C510   C621    1.545   .     S
C512   C63     1.189   1_556 S
C513   C518    1.403   .     A
C513   C524    1.410   .     A
C513   Cl544   1.774   .     S
C514   C525    1.410   .     A
C514   C519    1.403   .     A
C514   Cl545   1.774   .     S
C515   Cl546   1.774   .     S
C515   C520    1.402   .     A
C515   C525    1.408   .     A
C516   O554    1.305   .     A
C516   C523    1.490   .     S
C516   O555    1.303   .     A
C517   C521    1.402   .     A
C517   Cl547   1.774   .     S
C517   C524    1.408   .     A
C518   C522    1.422   .     A
C518   Cl548   1.772   .     S
C519   C523    1.422   .     A
C519   Cl534   1.772   .     S
C520   Cl535   1.772   .     S
C520   C523    1.424   .     A
C521   C522    1.424   .     A
C521   Cl536   1.772   .     S
C525   C468    1.510   1_655 S
C526   Cl533   1.762   .     S
C526   N551    1.374   .     A
C526   C530    1.413   .     A
C527   C531    1.413   .     A
C527   N552    1.374   .     A
C527   Cl541   1.762   .     S
C528   Cl542   1.762   .     S
C528   N551    1.374   .     A
C528   C532    1.413   .     A
C529   Cl543   1.762   .     S
C529   N552    1.374   .     A
C530   Cl537   1.772   .     S
C531   Cl538   1.772   .     S
C532   Cl539   1.773   .     S
Cu549  O553    1.949   .     S
Cu549  O557    1.930   .     S
Cu549  Cu550   2.689   .     S
Cu549  O555    1.949   .     S
Cu549  O559    1.932   .     S
Cu549  N552    2.020   .     S
Cu550  O558    1.930   .     S
Cu550  O556    1.949   .     S
Cu550  O560    1.932   .     S
Cu550  O554    1.949   .     S
Cu550  N551    2.020   .     S
C561   C578    1.490   .     S
C561   O612    1.303   .     A
C561   O609    1.305   .     A
C562   C566    1.417   .     A
C562   C585    1.413   .     A
C562   Cl596   1.773   .     S
C563   O616    1.291   .     A
C563   O613    1.290   .     A
C563   C567    1.407   .     S
C564   C568    1.407   .     S
C564   O615    1.291   .     A
C564   O614    1.290   .     A
C565   C588    1.417   .     A
C565   C586    1.417   .     A
C566   C587    1.417   .     A
C566   C453    1.545   1_565 S
C568   C119    1.189   1_556 S
C569   C574    1.403   .     A
C569   C580    1.410   .     A
C569   Cl600   1.774   .     S
C570   C581    1.410   .     A
C570   C575    1.403   .     A
C570   Cl601   1.774   .     S
C571   Cl602   1.774   .     S
C571   C576    1.402   .     A
C571   C581    1.408   .     A
C572   O610    1.305   .     A
C572   C579    1.490   .     S
C572   O611    1.303   .     A
C573   C577    1.402   .     A
C573   Cl603   1.774   .     S
C573   C580    1.408   .     A
C574   C578    1.422   .     A
C574   Cl604   1.772   .     S
C575   C579    1.422   .     A
C575   Cl590   1.772   .     S
C576   Cl591   1.772   .     S
C576   C579    1.424   .     A
C577   C578    1.424   .     A
C577   Cl592   1.772   .     S
C580   C637    1.510   1_455 S
C581   C636    1.510   .     S
C582   Cl589   1.762   .     S
C582   N607    1.374   .     A
C582   C586    1.413   .     A
C583   C587    1.413   .     A
C583   N608    1.374   .     A
C583   Cl597   1.762   .     S
C584   Cl598   1.762   .     S
C584   N607    1.374   .     A
C584   C588    1.413   .     A
C585   Cl599   1.762   .     S
C585   N608    1.374   .     A
C586   Cl593   1.772   .     S
C587   Cl594   1.772   .     S
C588   Cl595   1.773   .     S
Cu605  O609    1.949   .     S
Cu605  O613    1.930   .     S
Cu605  Cu606   2.689   .     S
Cu605  O611    1.949   .     S
Cu605  O615    1.932   .     S
Cu605  N608    2.020   .     S
Cu606  O614    1.930   .     S
Cu606  O612    1.949   .     S
Cu606  O616    1.932   .     S
Cu606  O610    1.949   .     S
Cu606  N607    2.020   .     S
C617   C634    1.490   .     S
C617   O668    1.303   .     A
C617   O665    1.305   .     A
C618   C622    1.417   .     A
C618   C641    1.413   .     A
C618   Cl652   1.773   .     S
C619   O672    1.291   .     A
C619   O669    1.290   .     A
C619   C623    1.407   .     S
C620   C624    1.407   .     S
C620   O671    1.291   .     A
C620   O670    1.290   .     A
C621   C644    1.417   .     A
C621   C642    1.417   .     A
C622   C643    1.417   .     A
C622   C509    1.545   1_565 S
C624   C175    1.189   1_556 S
C625   C630    1.403   .     A
C625   C636    1.410   .     A
C625   Cl656   1.774   .     S
C626   C637    1.410   .     A
C626   C631    1.403   .     A
C626   Cl657   1.774   .     S
C627   Cl658   1.774   .     S
C627   C632    1.402   .     A
C627   C637    1.408   .     A
C628   O666    1.305   .     A
C628   C635    1.490   .     S
C628   O667    1.303   .     A
C629   C633    1.402   .     A
C629   Cl659   1.774   .     S
C629   C636    1.408   .     A
C630   C634    1.422   .     A
C630   Cl660   1.772   .     S
C631   C635    1.422   .     A
C631   Cl646   1.772   .     S
C632   Cl647   1.772   .     S
C632   C635    1.424   .     A
C633   C634    1.424   .     A
C633   Cl648   1.772   .     S
C637   C580    1.510   1_655 S
C638   Cl645   1.762   .     S
C638   N663    1.374   .     A
C638   C642    1.413   .     A
C639   C643    1.413   .     A
C639   N664    1.374   .     A
C639   Cl653   1.762   .     S
C640   Cl654   1.762   .     S
C640   N663    1.374   .     A
C640   C644    1.413   .     A
C641   Cl655   1.762   .     S
C641   N664    1.374   .     A
C642   Cl649   1.772   .     S
C643   Cl650   1.772   .     S
C644   Cl651   1.773   .     S
Cu661  O665    1.949   .     S
Cu661  O669    1.930   .     S
Cu661  Cu662   2.689   .     S
Cu661  O667    1.949   .     S
Cu661  O671    1.932   .     S
Cu661  N664    2.020   .     S
Cu662  O670    1.930   .     S
Cu662  O668    1.949   .     S
Cu662  O672    1.932   .     S
Cu662  O666    1.949   .     S
Cu662  N663    2.020   .     S
