data_str_m1_o5_o17_pcu_sym.80
_audit_creation_date              2020-01-03
_audit_creation_method            'Materials Studio'
_symmetry_space_group_name_H-M    'P1'
_symmetry_Int_Tables_number       1
_symmetry_cell_setting            triclinic
loop_
_symmetry_equiv_pos_as_xyz
  x,y,z
_cell_length_a                    31.7589
_cell_length_b                    31.7583
_cell_length_c                    34.5566
_cell_angle_alpha                 90.0095
_cell_angle_beta                  89.9989
_cell_angle_gamma                 90.0040
loop_
_atom_site_label
_atom_site_type_symbol
_atom_site_fract_x
_atom_site_fract_y
_atom_site_fract_z
_atom_site_U_iso_or_equiv
_atom_site_adp_type
_atom_site_occupancy
Zn1    Zn    0.20053   0.00000   0.21730   0.00000  Uiso   1.00
Zn2    Zn    0.29948   0.00000   0.78270   0.00000  Uiso   1.00
Zn3    Zn    0.00000   0.20053   0.21730   0.00000  Uiso   1.00
Zn4    Zn    0.00000   0.29947   0.78270   0.00000  Uiso   1.00
Zn5    Zn    0.29948   0.00000   0.21730   0.00000  Uiso   1.00
Zn6    Zn    0.20053   0.00000   0.78270   0.00000  Uiso   1.00
Zn7    Zn    0.00000   0.29948   0.21730   0.00000  Uiso   1.00
Zn8    Zn    0.00000   0.20052   0.78270   0.00000  Uiso   1.00
Zn9    Zn    0.45053   0.25000   0.71730   0.00000  Uiso   1.00
Zn10   Zn    0.04948   0.25000   0.28270   0.00000  Uiso   1.00
Zn11   Zn    0.25000   0.45053   0.71730   0.00000  Uiso   1.00
Zn12   Zn    0.25000   0.04948   0.28270   0.00000  Uiso   1.00
Zn13   Zn    0.04948   0.25000   0.71730   0.00000  Uiso   1.00
Zn14   Zn    0.45053   0.25000   0.28270   0.00000  Uiso   1.00
Zn15   Zn    0.25000   0.04948   0.71730   0.00000  Uiso   1.00
Zn16   Zn    0.25000   0.45053   0.28270   0.00000  Uiso   1.00
O17    O     0.25000   0.00000   0.25000   0.00000  Uiso   1.00
O18    O     0.25000   0.00000   0.75000   0.00000  Uiso   1.00
O19    O     0.00000   0.25000   0.25000   0.00000  Uiso   1.00
O20    O     0.00000   0.25000   0.75000   0.00000  Uiso   1.00
O21    O     0.25000   0.46539   0.33749   0.00000  Uiso   1.00
O22    O     0.25000   0.03462   0.66251   0.00000  Uiso   1.00
O23    O     0.03462   0.25000   0.33749   0.00000  Uiso   1.00
O24    O     0.46539   0.25000   0.66251   0.00000  Uiso   1.00
O25    O     0.25000   0.03462   0.33749   0.00000  Uiso   1.00
O26    O     0.25000   0.46539   0.66251   0.00000  Uiso   1.00
O27    O     0.46539   0.25000   0.33749   0.00000  Uiso   1.00
O28    O     0.03462   0.25000   0.66251   0.00000  Uiso   1.00
O29    O     0.00000   0.21538   0.83749   0.00000  Uiso   1.00
O30    O     0.00000   0.28462   0.16251   0.00000  Uiso   1.00
O31    O     0.28462   0.00000   0.83749   0.00000  Uiso   1.00
O32    O     0.21539   0.00000   0.16251   0.00000  Uiso   1.00
O33    O     0.00000   0.28461   0.83749   0.00000  Uiso   1.00
O34    O     0.00000   0.21539   0.16251   0.00000  Uiso   1.00
O35    O     0.21539   0.00000   0.83749   0.00000  Uiso   1.00
O36    O     0.28462   0.00000   0.16251   0.00000  Uiso   1.00
O37    O     0.20127   0.08332   0.27298   0.00000  Uiso   1.00
O38    O     0.29874   0.41668   0.72702   0.00000  Uiso   1.00
O39    O     0.41668   0.20127   0.27298   0.00000  Uiso   1.00
O40    O     0.08332   0.29873   0.72702   0.00000  Uiso   1.00
O41    O     0.29874   0.41668   0.27298   0.00000  Uiso   1.00
O42    O     0.20127   0.08332   0.72702   0.00000  Uiso   1.00
O43    O     0.08332   0.29873   0.27298   0.00000  Uiso   1.00
O44    O     0.41668   0.20127   0.72702   0.00000  Uiso   1.00
O45    O     0.20127   0.41668   0.72702   0.00000  Uiso   1.00
O46    O     0.29874   0.08332   0.27298   0.00000  Uiso   1.00
O47    O     0.41668   0.29874   0.72702   0.00000  Uiso   1.00
O48    O     0.08332   0.20127   0.27298   0.00000  Uiso   1.00
O49    O     0.29874   0.08332   0.72702   0.00000  Uiso   1.00
O50    O     0.20127   0.41668   0.27298   0.00000  Uiso   1.00
O51    O     0.08332   0.20127   0.72702   0.00000  Uiso   1.00
O52    O     0.41668   0.29874   0.27298   0.00000  Uiso   1.00
O53    O     0.45127   0.33332   0.77298   0.00000  Uiso   1.00
O54    O     0.04874   0.16668   0.22702   0.00000  Uiso   1.00
O55    O     0.16668   0.45126   0.77298   0.00000  Uiso   1.00
O56    O     0.33332   0.04874   0.22702   0.00000  Uiso   1.00
O57    O     0.04874   0.16668   0.77298   0.00000  Uiso   1.00
O58    O     0.45127   0.33332   0.22702   0.00000  Uiso   1.00
O59    O     0.33332   0.04874   0.77298   0.00000  Uiso   1.00
O60    O     0.16668   0.45126   0.22702   0.00000  Uiso   1.00
O61    O     0.45127   0.16668   0.22702   0.00000  Uiso   1.00
O62    O     0.04874   0.33332   0.77298   0.00000  Uiso   1.00
O63    O     0.16668   0.04874   0.22702   0.00000  Uiso   1.00
O64    O     0.33332   0.45127   0.77298   0.00000  Uiso   1.00
O65    O     0.04874   0.33332   0.22702   0.00000  Uiso   1.00
O66    O     0.45127   0.16668   0.77298   0.00000  Uiso   1.00
O67    O     0.33332   0.45127   0.22702   0.00000  Uiso   1.00
O68    O     0.16668   0.04874   0.77298   0.00000  Uiso   1.00
C69    C     0.25000   0.00000   0.35606   0.00000  Uiso   1.00
C70    C     0.25000  -0.00000   0.64395   0.00000  Uiso   1.00
C71    C    -0.00000   0.25000   0.35606   0.00000  Uiso   1.00
C72    C     0.00000   0.25000   0.64395   0.00000  Uiso   1.00
C73    C     0.49998   0.25002   0.85605   0.00000  Uiso   1.00
C74    C     0.00008   0.24999   0.14395   0.00000  Uiso   1.00
C75    C     0.25000   0.49997   0.85605   0.00000  Uiso   1.00
C76    C     0.25000   0.49997   0.14395   0.00000  Uiso   1.00
C77    C     0.16999   0.08001   0.25000   0.00000  Uiso   1.00
C78    C     0.33001   0.41999   0.75000   0.00000  Uiso   1.00
C79    C     0.41999   0.16999   0.25000   0.00000  Uiso   1.00
C80    C     0.08001   0.33001   0.75000   0.00000  Uiso   1.00
C81    C     0.33002   0.41999   0.25000   0.00000  Uiso   1.00
C82    C     0.16998   0.08001   0.75000   0.00000  Uiso   1.00
C83    C     0.08001   0.33001   0.25000   0.00000  Uiso   1.00
C84    C     0.41999   0.16999   0.75000   0.00000  Uiso   1.00
C85    C     0.16999   0.41998   0.75000   0.00000  Uiso   1.00
C86    C     0.33001   0.08002   0.25000   0.00000  Uiso   1.00
C87    C     0.41999   0.33002   0.75000   0.00000  Uiso   1.00
C88    C     0.08001   0.16998   0.25000   0.00000  Uiso   1.00
C89    C     0.33001   0.08001   0.75000   0.00000  Uiso   1.00
C90    C     0.16999   0.41999   0.25000   0.00000  Uiso   1.00
C91    C     0.08001   0.16999   0.75000   0.00000  Uiso   1.00
C92    C     0.41999   0.33001   0.25000   0.00000  Uiso   1.00
C93    C     0.13834   0.38833   0.25000   0.00000  Uiso   1.00
C94    C     0.36166   0.11167   0.75000   0.00000  Uiso   1.00
C95    C     0.11166   0.13833   0.25000   0.00000  Uiso   1.00
C96    C     0.38834   0.36167   0.75000   0.00000  Uiso   1.00
C97    C     0.36166   0.11167   0.25000   0.00000  Uiso   1.00
C98    C     0.13834   0.38833   0.75000   0.00000  Uiso   1.00
C99    C     0.38834   0.36167   0.25000   0.00000  Uiso   1.00
C100   C     0.11166   0.13833   0.75000   0.00000  Uiso   1.00
C101   C     0.13833   0.11166   0.75000   0.00000  Uiso   1.00
C102   C     0.36167   0.38834   0.25000   0.00000  Uiso   1.00
C103   C     0.11167   0.36166   0.75000   0.00000  Uiso   1.00
C104   C     0.38834   0.13834   0.25000   0.00000  Uiso   1.00
C105   C     0.36167   0.38834   0.75000   0.00000  Uiso   1.00
C106   C     0.13833   0.11167   0.25000   0.00000  Uiso   1.00
C107   C     0.38833   0.13834   0.75000   0.00000  Uiso   1.00
C108   C     0.11167   0.36166   0.25000   0.00000  Uiso   1.00
C109   C     0.46273   0.25740   0.41868   0.00000  Uiso   1.00
C110   C     0.03698   0.24124   0.58133   0.00000  Uiso   1.00
C111   C     0.24187   0.03713   0.41868   0.00000  Uiso   1.00
C112   C     0.25946   0.46319   0.58134   0.00000  Uiso   1.00
C113   C     0.03727   0.24260   0.41868   0.00000  Uiso   1.00
C114   C     0.46302   0.25876   0.58134   0.00000  Uiso   1.00
C115   C     0.25811   0.46288   0.41867   0.00000  Uiso   1.00
C116   C     0.24052   0.03680   0.58135   0.00000  Uiso   1.00
C117   C     0.28669   0.00968   0.91867   0.00000  Uiso   1.00
C118   C     0.21304   0.49094   0.08134   0.00000  Uiso   1.00
C119   C     0.49005   0.21335   0.91868   0.00000  Uiso   1.00
C120   C     0.01066   0.28659   0.08134   0.00000  Uiso   1.00
C121   C     0.21337   0.48965   0.91865   0.00000  Uiso   1.00
C122   C     0.28702   0.00834   0.08132   0.00000  Uiso   1.00
C123   C     0.00859   0.28706   0.91866   0.00000  Uiso   1.00
C124   C     0.49219   0.21287   0.08133   0.00000  Uiso   1.00
C125   C    -0.00000   0.25000   0.39850   0.00000  Uiso   1.00
C126   C     0.00000   0.25000   0.60152   0.00000  Uiso   1.00
C127   C     0.25000   0.00000   0.39850   0.00000  Uiso   1.00
C128   C     0.24999   0.49999   0.60152   0.00000  Uiso   1.00
C129   C     0.25001   0.49979   0.89848   0.00000  Uiso   1.00
C130   C     0.25001   0.49978   0.10151   0.00000  Uiso   1.00
C131   C     0.49957   0.25012   0.89849   0.00000  Uiso   1.00
C132   C     0.00089   0.24986   0.10152   0.00000  Uiso   1.00
C133   C     0.03815   0.24284   0.45930   0.00000  Uiso   1.00
C134   C     0.46244   0.25975   0.54072   0.00000  Uiso   1.00
C135   C     0.25792   0.46200   0.45929   0.00000  Uiso   1.00
C136   C     0.23947   0.03735   0.54073   0.00000  Uiso   1.00
C137   C     0.46185   0.25717   0.45930   0.00000  Uiso   1.00
C138   C     0.03756   0.24026   0.54072   0.00000  Uiso   1.00
C139   C     0.24205   0.03800   0.45931   0.00000  Uiso   1.00
C140   C     0.26049   0.46263   0.54072   0.00000  Uiso   1.00
C141   C     0.21288   0.48839   0.95926   0.00000  Uiso   1.00
C142   C     0.28793   0.00798   0.04071   0.00000  Uiso   1.00
C143   C     0.00883   0.28787   0.95929   0.00000  Uiso   1.00
C144   C     0.49239   0.21197   0.04071   0.00000  Uiso   1.00
C145   C     0.28727   0.01054   0.95928   0.00000  Uiso   1.00
C146   C     0.21219   0.49090   0.04070   0.00000  Uiso   1.00
C147   C     0.48939   0.21273   0.95930   0.00000  Uiso   1.00
C148   C     0.01177   0.28712   0.04072   0.00000  Uiso   1.00
C149   C     0.00000   0.25000   0.47969   0.00000  Uiso   1.00
C150   C     0.00000   0.25001   0.52033   0.00000  Uiso   1.00
C151   C     0.24998  -0.00000   0.47969   0.00000  Uiso   1.00
C152   C     0.24998   0.49999   0.52033   0.00000  Uiso   1.00
C153   C     0.25008   0.49943   0.97967   0.00000  Uiso   1.00
C154   C     0.25007   0.49942   0.02031   0.00000  Uiso   1.00
C155   C     0.00017   0.25003   0.97969   0.00000  Uiso   1.00
C156   C     0.00106   0.24981   0.02032   0.00000  Uiso   1.00
C157   C     0.07623   0.23551   0.47969   0.00000  Uiso   1.00
C158   C     0.42500   0.26982   0.52034   0.00000  Uiso   1.00
C159   C     0.26607   0.42408   0.47968   0.00000  Uiso   1.00
C160   C     0.22860   0.07457   0.52035   0.00000  Uiso   1.00
C161   C     0.42377   0.26451   0.47970   0.00000  Uiso   1.00
C162   C     0.07501   0.23020   0.52033   0.00000  Uiso   1.00
C163   C     0.23387   0.07591   0.47971   0.00000  Uiso   1.00
C164   C     0.27135   0.42542   0.52032   0.00000  Uiso   1.00
C165   C     0.17589   0.47676   0.97965   0.00000  Uiso   1.00
C166   C     0.32575   0.01658   0.02031   0.00000  Uiso   1.00
C167   C     0.01794   0.32559   0.97968   0.00000  Uiso   1.00
C168   C     0.48366   0.17418   0.02033   0.00000  Uiso   1.00
C169   C     0.32436   0.02183   0.97968   0.00000  Uiso   1.00
C170   C     0.17445   0.48195   0.02030   0.00000  Uiso   1.00
C171   C     0.47847   0.17552   0.97969   0.00000  Uiso   1.00
C172   C     0.02305   0.32421   0.02034   0.00000  Uiso   1.00
H173   H     0.43464   0.26433   0.40219   0.00000  Uiso   1.00
H174   H     0.06535   0.23551   0.59781   0.00000  Uiso   1.00
H175   H     0.23442   0.06507   0.40218   0.00000  Uiso   1.00
H176   H     0.26573   0.43494   0.59781   0.00000  Uiso   1.00
H177   H     0.06536   0.23568   0.40218   0.00000  Uiso   1.00
H178   H     0.43465   0.26449   0.59781   0.00000  Uiso   1.00
H179   H     0.26558   0.43494   0.40216   0.00000  Uiso   1.00
H180   H     0.23425   0.06505   0.59783   0.00000  Uiso   1.00
H181   H     0.31482   0.01645   0.90218   0.00000  Uiso   1.00
H182   H     0.18522   0.48311   0.09787   0.00000  Uiso   1.00
H183   H     0.48373   0.18511   0.90219   0.00000  Uiso   1.00
H184   H     0.01678   0.31488   0.09782   0.00000  Uiso   1.00
H185   H     0.18520   0.48304   0.90216   0.00000  Uiso   1.00
H186   H     0.31482   0.01634   0.09782   0.00000  Uiso   1.00
H187   H     0.01674   0.31478   0.90213   0.00000  Uiso   1.00
H188   H     0.48388   0.18516   0.09782   0.00000  Uiso   1.00
C189   C     0.11802   0.23531   0.45825   0.00000  Uiso   1.00
H190   H     0.11923   0.26179   0.43731   0.00000  Uiso   1.00
H191   H     0.14538   0.24087   0.47747   0.00000  Uiso   1.00
H192   H     0.12215   0.20498   0.44272   0.00000  Uiso   1.00
C193   C     0.38743   0.28814   0.54177   0.00000  Uiso   1.00
H194   H     0.39805   0.31217   0.56298   0.00000  Uiso   1.00
H195   H     0.36563   0.30559   0.52255   0.00000  Uiso   1.00
H196   H     0.37005   0.26273   0.55698   0.00000  Uiso   1.00
C197   C     0.26721   0.38231   0.45822   0.00000  Uiso   1.00
H198   H     0.26239   0.35481   0.47744   0.00000  Uiso   1.00
H199   H     0.24069   0.38047   0.43735   0.00000  Uiso   1.00
H200   H     0.29757   0.37892   0.44261   0.00000  Uiso   1.00
C201   C     0.20943   0.11172   0.54177   0.00000  Uiso   1.00
H202   H     0.18578   0.10058   0.56310   0.00000  Uiso   1.00
H203   H     0.23447   0.12979   0.55685   0.00000  Uiso   1.00
H204   H     0.19135   0.13301   0.52256   0.00000  Uiso   1.00
C205   C     0.38199   0.26471   0.45826   0.00000  Uiso   1.00
H206   H     0.38076   0.23822   0.43732   0.00000  Uiso   1.00
H207   H     0.35463   0.25917   0.47748   0.00000  Uiso   1.00
H208   H     0.37786   0.29503   0.44273   0.00000  Uiso   1.00
C209   C     0.11258   0.21188   0.54175   0.00000  Uiso   1.00
H210   H     0.10196   0.18785   0.56295   0.00000  Uiso   1.00
H211   H     0.13439   0.19444   0.52253   0.00000  Uiso   1.00
H212   H     0.12995   0.23729   0.55698   0.00000  Uiso   1.00
C213   C     0.23272   0.11768   0.45827   0.00000  Uiso   1.00
H214   H     0.25926   0.11955   0.43742   0.00000  Uiso   1.00
H215   H     0.20237   0.12104   0.44262   0.00000  Uiso   1.00
H216   H     0.23748   0.14519   0.47749   0.00000  Uiso   1.00
C217   C     0.29049   0.38825   0.54173   0.00000  Uiso   1.00
H218   H     0.31418   0.39938   0.56303   0.00000  Uiso   1.00
H219   H     0.26545   0.37022   0.55683   0.00000  Uiso   1.00
H220   H     0.30852   0.36693   0.52251   0.00000  Uiso   1.00
C221   C     0.13910   0.45691   0.95821   0.00000  Uiso   1.00
H222   H     0.15070   0.43371   0.93666   0.00000  Uiso   1.00
H223   H     0.11834   0.43813   0.97736   0.00000  Uiso   1.00
H224   H     0.12039   0.48164   0.94340   0.00000  Uiso   1.00
C225   C     0.36750   0.01819   0.04177   0.00000  Uiso   1.00
H226   H     0.36954   0.49187   0.06283   0.00000  Uiso   1.00
H227   H     0.39502   0.01336   0.02256   0.00000  Uiso   1.00
H228   H     0.37069   0.04872   0.05715   0.00000  Uiso   1.00
C229   C     0.02003   0.36731   0.95819   0.00000  Uiso   1.00
H230   H     0.01602   0.39497   0.97737   0.00000  Uiso   1.00
H231   H     0.05040   0.36991   0.94244   0.00000  Uiso   1.00
H232   H     0.49346   0.36980   0.93743   0.00000  Uiso   1.00
C233   C     0.48212   0.13242   0.04180   0.00000  Uiso   1.00
H234   H     0.48711   0.10491   0.02262   0.00000  Uiso   1.00
H235   H     0.00838   0.13046   0.06292   0.00000  Uiso   1.00
H236   H     0.45156   0.12914   0.05710   0.00000  Uiso   1.00
C237   C     0.36131   0.04138   0.95826   0.00000  Uiso   1.00
H238   H     0.34992   0.06516   0.93716   0.00000  Uiso   1.00
H239   H     0.38262   0.05940   0.97750   0.00000  Uiso   1.00
H240   H     0.37942   0.01658   0.94292   0.00000  Uiso   1.00
C241   C     0.13273   0.47984   0.04177   0.00000  Uiso   1.00
H242   H     0.13022   0.00642   0.06251   0.00000  Uiso   1.00
H243   H     0.10509   0.48381   0.02255   0.00000  Uiso   1.00
H244   H     0.13013   0.44949   0.05752   0.00000  Uiso   1.00
C245   C     0.45910   0.13847   0.95826   0.00000  Uiso   1.00
H246   H     0.43527   0.14973   0.93715   0.00000  Uiso   1.00
H247   H     0.48400   0.12047   0.94293   0.00000  Uiso   1.00
H248   H     0.44118   0.11707   0.97748   0.00000  Uiso   1.00
C249   C     0.04275   0.36110   0.04177   0.00000  Uiso   1.00
H250   H     0.06590   0.34963   0.06341   0.00000  Uiso   1.00
H251   H     0.06156   0.38185   0.02264   0.00000  Uiso   1.00
H252   H     0.01791   0.37978   0.05647   0.00000  Uiso   1.00
Zn253  Zn    0.70053   0.00000   0.21730   0.00000  Uiso   1.00
Zn254  Zn    0.79948   0.00000   0.78270   0.00000  Uiso   1.00
Zn255  Zn    0.50000   0.20053   0.21730   0.00000  Uiso   1.00
Zn256  Zn    0.50000   0.29947   0.78270   0.00000  Uiso   1.00
Zn257  Zn    0.79948   0.00000   0.21730   0.00000  Uiso   1.00
Zn258  Zn    0.70053   0.00000   0.78270   0.00000  Uiso   1.00
Zn259  Zn    0.50000   0.29948   0.21730   0.00000  Uiso   1.00
Zn260  Zn    0.50000   0.20052   0.78270   0.00000  Uiso   1.00
Zn261  Zn    0.95053   0.25000   0.71730   0.00000  Uiso   1.00
Zn262  Zn    0.54948   0.25000   0.28270   0.00000  Uiso   1.00
Zn263  Zn    0.75000   0.45053   0.71730   0.00000  Uiso   1.00
Zn264  Zn    0.75000   0.04948   0.28270   0.00000  Uiso   1.00
Zn265  Zn    0.54948   0.25000   0.71730   0.00000  Uiso   1.00
Zn266  Zn    0.95053   0.25000   0.28270   0.00000  Uiso   1.00
Zn267  Zn    0.75000   0.04948   0.71730   0.00000  Uiso   1.00
Zn268  Zn    0.75000   0.45053   0.28270   0.00000  Uiso   1.00
O269   O     0.75000   0.00000   0.25000   0.00000  Uiso   1.00
O270   O     0.75000   0.00000   0.75000   0.00000  Uiso   1.00
O271   O     0.50000   0.25000   0.25000   0.00000  Uiso   1.00
O272   O     0.50000   0.25000   0.75000   0.00000  Uiso   1.00
O273   O     0.75000   0.46539   0.33749   0.00000  Uiso   1.00
O274   O     0.75000   0.03462   0.66251   0.00000  Uiso   1.00
O275   O     0.53462   0.25000   0.33749   0.00000  Uiso   1.00
O276   O     0.96539   0.25000   0.66251   0.00000  Uiso   1.00
O277   O     0.75000   0.03462   0.33749   0.00000  Uiso   1.00
O278   O     0.75000   0.46539   0.66251   0.00000  Uiso   1.00
O279   O     0.96539   0.25000   0.33749   0.00000  Uiso   1.00
O280   O     0.53462   0.25000   0.66251   0.00000  Uiso   1.00
O281   O     0.50000   0.21538   0.83749   0.00000  Uiso   1.00
O282   O     0.50000   0.28462   0.16251   0.00000  Uiso   1.00
O283   O     0.78462   0.00000   0.83749   0.00000  Uiso   1.00
O284   O     0.71539   0.00000   0.16251   0.00000  Uiso   1.00
O285   O     0.50000   0.28461   0.83749   0.00000  Uiso   1.00
O286   O     0.50000   0.21539   0.16251   0.00000  Uiso   1.00
O287   O     0.71539   0.00000   0.83749   0.00000  Uiso   1.00
O288   O     0.78462   0.00000   0.16251   0.00000  Uiso   1.00
O289   O     0.70127   0.08332   0.27298   0.00000  Uiso   1.00
O290   O     0.79874   0.41668   0.72702   0.00000  Uiso   1.00
O291   O     0.91668   0.20127   0.27298   0.00000  Uiso   1.00
O292   O     0.58332   0.29873   0.72702   0.00000  Uiso   1.00
O293   O     0.79874   0.41668   0.27298   0.00000  Uiso   1.00
O294   O     0.70127   0.08332   0.72702   0.00000  Uiso   1.00
O295   O     0.58332   0.29873   0.27298   0.00000  Uiso   1.00
O296   O     0.91668   0.20127   0.72702   0.00000  Uiso   1.00
O297   O     0.70127   0.41668   0.72702   0.00000  Uiso   1.00
O298   O     0.79874   0.08332   0.27298   0.00000  Uiso   1.00
O299   O     0.91668   0.29874   0.72702   0.00000  Uiso   1.00
O300   O     0.58332   0.20127   0.27298   0.00000  Uiso   1.00
O301   O     0.79874   0.08332   0.72702   0.00000  Uiso   1.00
O302   O     0.70127   0.41668   0.27298   0.00000  Uiso   1.00
O303   O     0.58332   0.20127   0.72702   0.00000  Uiso   1.00
O304   O     0.91668   0.29874   0.27298   0.00000  Uiso   1.00
O305   O     0.95127   0.33332   0.77298   0.00000  Uiso   1.00
O306   O     0.54874   0.16668   0.22702   0.00000  Uiso   1.00
O307   O     0.66668   0.45126   0.77298   0.00000  Uiso   1.00
O308   O     0.83332   0.04874   0.22702   0.00000  Uiso   1.00
O309   O     0.54874   0.16668   0.77298   0.00000  Uiso   1.00
O310   O     0.95127   0.33332   0.22702   0.00000  Uiso   1.00
O311   O     0.83332   0.04874   0.77298   0.00000  Uiso   1.00
O312   O     0.66668   0.45126   0.22702   0.00000  Uiso   1.00
O313   O     0.95127   0.16668   0.22702   0.00000  Uiso   1.00
O314   O     0.54874   0.33332   0.77298   0.00000  Uiso   1.00
O315   O     0.66668   0.04874   0.22702   0.00000  Uiso   1.00
O316   O     0.83332   0.45127   0.77298   0.00000  Uiso   1.00
O317   O     0.54874   0.33332   0.22702   0.00000  Uiso   1.00
O318   O     0.95127   0.16668   0.77298   0.00000  Uiso   1.00
O319   O     0.83332   0.45127   0.22702   0.00000  Uiso   1.00
O320   O     0.66668   0.04874   0.77298   0.00000  Uiso   1.00
C321   C     0.75000   0.00000   0.35606   0.00000  Uiso   1.00
C322   C     0.75000  -0.00000   0.64395   0.00000  Uiso   1.00
C323   C     0.50000   0.25000   0.35606   0.00000  Uiso   1.00
C324   C     0.50000   0.25000   0.64395   0.00000  Uiso   1.00
C325   C     0.99998   0.25002   0.85605   0.00000  Uiso   1.00
C326   C     0.50008   0.24999   0.14395   0.00000  Uiso   1.00
C327   C     0.75000   0.49997   0.85605   0.00000  Uiso   1.00
C328   C     0.75000   0.49997   0.14395   0.00000  Uiso   1.00
C329   C     0.66999   0.08001   0.25000   0.00000  Uiso   1.00
C330   C     0.83001   0.41999   0.75000   0.00000  Uiso   1.00
C331   C     0.91999   0.16999   0.25000   0.00000  Uiso   1.00
C332   C     0.58001   0.33001   0.75000   0.00000  Uiso   1.00
C333   C     0.83002   0.41999   0.25000   0.00000  Uiso   1.00
C334   C     0.66998   0.08001   0.75000   0.00000  Uiso   1.00
C335   C     0.58001   0.33001   0.25000   0.00000  Uiso   1.00
C336   C     0.91999   0.16999   0.75000   0.00000  Uiso   1.00
C337   C     0.66999   0.41998   0.75000   0.00000  Uiso   1.00
C338   C     0.83001   0.08002   0.25000   0.00000  Uiso   1.00
C339   C     0.91999   0.33002   0.75000   0.00000  Uiso   1.00
C340   C     0.58001   0.16998   0.25000   0.00000  Uiso   1.00
C341   C     0.83001   0.08001   0.75000   0.00000  Uiso   1.00
C342   C     0.66999   0.41999   0.25000   0.00000  Uiso   1.00
C343   C     0.58001   0.16999   0.75000   0.00000  Uiso   1.00
C344   C     0.91999   0.33001   0.25000   0.00000  Uiso   1.00
C345   C     0.63834   0.38833   0.25000   0.00000  Uiso   1.00
C346   C     0.86166   0.11167   0.75000   0.00000  Uiso   1.00
C347   C     0.61166   0.13833   0.25000   0.00000  Uiso   1.00
C348   C     0.88834   0.36167   0.75000   0.00000  Uiso   1.00
C349   C     0.86166   0.11167   0.25000   0.00000  Uiso   1.00
C350   C     0.63834   0.38833   0.75000   0.00000  Uiso   1.00
C351   C     0.88834   0.36167   0.25000   0.00000  Uiso   1.00
C352   C     0.61166   0.13833   0.75000   0.00000  Uiso   1.00
C353   C     0.63833   0.11166   0.75000   0.00000  Uiso   1.00
C354   C     0.86167   0.38834   0.25000   0.00000  Uiso   1.00
C355   C     0.61167   0.36166   0.75000   0.00000  Uiso   1.00
C356   C     0.88834   0.13834   0.25000   0.00000  Uiso   1.00
C357   C     0.86167   0.38834   0.75000   0.00000  Uiso   1.00
C358   C     0.63833   0.11167   0.25000   0.00000  Uiso   1.00
C359   C     0.88833   0.13834   0.75000   0.00000  Uiso   1.00
C360   C     0.61167   0.36166   0.25000   0.00000  Uiso   1.00
C361   C     0.96273   0.25740   0.41868   0.00000  Uiso   1.00
C362   C     0.53698   0.24124   0.58133   0.00000  Uiso   1.00
C363   C     0.74187   0.03713   0.41868   0.00000  Uiso   1.00
C364   C     0.75946   0.46319   0.58134   0.00000  Uiso   1.00
C365   C     0.53727   0.24260   0.41868   0.00000  Uiso   1.00
C366   C     0.96302   0.25876   0.58134   0.00000  Uiso   1.00
C367   C     0.75811   0.46288   0.41867   0.00000  Uiso   1.00
C368   C     0.74052   0.03680   0.58135   0.00000  Uiso   1.00
C369   C     0.78669   0.00968   0.91867   0.00000  Uiso   1.00
C370   C     0.71304   0.49094   0.08134   0.00000  Uiso   1.00
C371   C     0.99005   0.21335   0.91868   0.00000  Uiso   1.00
C372   C     0.51066   0.28659   0.08134   0.00000  Uiso   1.00
C373   C     0.71337   0.48965   0.91865   0.00000  Uiso   1.00
C374   C     0.78702   0.00834   0.08132   0.00000  Uiso   1.00
C375   C     0.50859   0.28706   0.91866   0.00000  Uiso   1.00
C376   C     0.99219   0.21287   0.08133   0.00000  Uiso   1.00
C377   C     0.50000   0.25000   0.39850   0.00000  Uiso   1.00
C378   C     0.50000   0.25000   0.60152   0.00000  Uiso   1.00
C379   C     0.75000   0.00000   0.39850   0.00000  Uiso   1.00
C380   C     0.74999   0.49999   0.60152   0.00000  Uiso   1.00
C381   C     0.75001   0.49979   0.89848   0.00000  Uiso   1.00
C382   C     0.75001   0.49978   0.10151   0.00000  Uiso   1.00
C383   C     0.99957   0.25012   0.89849   0.00000  Uiso   1.00
C384   C     0.50089   0.24986   0.10152   0.00000  Uiso   1.00
C385   C     0.53815   0.24284   0.45930   0.00000  Uiso   1.00
C386   C     0.96244   0.25975   0.54072   0.00000  Uiso   1.00
C387   C     0.75792   0.46200   0.45929   0.00000  Uiso   1.00
C388   C     0.73947   0.03735   0.54073   0.00000  Uiso   1.00
C389   C     0.96185   0.25717   0.45930   0.00000  Uiso   1.00
C390   C     0.53756   0.24026   0.54072   0.00000  Uiso   1.00
C391   C     0.74205   0.03800   0.45931   0.00000  Uiso   1.00
C392   C     0.76049   0.46263   0.54072   0.00000  Uiso   1.00
C393   C     0.71288   0.48839   0.95926   0.00000  Uiso   1.00
C394   C     0.78793   0.00798   0.04071   0.00000  Uiso   1.00
C395   C     0.50883   0.28787   0.95929   0.00000  Uiso   1.00
C396   C     0.99239   0.21197   0.04071   0.00000  Uiso   1.00
C397   C     0.78727   0.01054   0.95928   0.00000  Uiso   1.00
C398   C     0.71219   0.49090   0.04070   0.00000  Uiso   1.00
C399   C     0.98939   0.21273   0.95930   0.00000  Uiso   1.00
C400   C     0.51177   0.28712   0.04072   0.00000  Uiso   1.00
C401   C     0.50000   0.25000   0.47969   0.00000  Uiso   1.00
C402   C     0.50000   0.25001   0.52033   0.00000  Uiso   1.00
C403   C     0.74998  -0.00000   0.47969   0.00000  Uiso   1.00
C404   C     0.74998   0.49999   0.52033   0.00000  Uiso   1.00
C405   C     0.75008   0.49943   0.97967   0.00000  Uiso   1.00
C406   C     0.75007   0.49942   0.02031   0.00000  Uiso   1.00
C407   C     0.50017   0.25003   0.97969   0.00000  Uiso   1.00
C408   C     0.50106   0.24981   0.02032   0.00000  Uiso   1.00
C409   C     0.57623   0.23551   0.47969   0.00000  Uiso   1.00
C410   C     0.92500   0.26982   0.52034   0.00000  Uiso   1.00
C411   C     0.76607   0.42408   0.47968   0.00000  Uiso   1.00
C412   C     0.72860   0.07457   0.52035   0.00000  Uiso   1.00
C413   C     0.92377   0.26451   0.47970   0.00000  Uiso   1.00
C414   C     0.57501   0.23020   0.52033   0.00000  Uiso   1.00
C415   C     0.73387   0.07591   0.47971   0.00000  Uiso   1.00
C416   C     0.77135   0.42542   0.52032   0.00000  Uiso   1.00
C417   C     0.67589   0.47676   0.97965   0.00000  Uiso   1.00
C418   C     0.82575   0.01658   0.02031   0.00000  Uiso   1.00
C419   C     0.51794   0.32559   0.97968   0.00000  Uiso   1.00
C420   C     0.98366   0.17418   0.02033   0.00000  Uiso   1.00
C421   C     0.82436   0.02183   0.97968   0.00000  Uiso   1.00
C422   C     0.67445   0.48195   0.02030   0.00000  Uiso   1.00
C423   C     0.97847   0.17552   0.97969   0.00000  Uiso   1.00
C424   C     0.52305   0.32421   0.02034   0.00000  Uiso   1.00
H425   H     0.93464   0.26433   0.40219   0.00000  Uiso   1.00
H426   H     0.56535   0.23551   0.59781   0.00000  Uiso   1.00
H427   H     0.73442   0.06507   0.40218   0.00000  Uiso   1.00
H428   H     0.76573   0.43494   0.59781   0.00000  Uiso   1.00
H429   H     0.56536   0.23568   0.40218   0.00000  Uiso   1.00
H430   H     0.93465   0.26449   0.59781   0.00000  Uiso   1.00
H431   H     0.76558   0.43494   0.40216   0.00000  Uiso   1.00
H432   H     0.73425   0.06505   0.59783   0.00000  Uiso   1.00
H433   H     0.81482   0.01645   0.90218   0.00000  Uiso   1.00
H434   H     0.68522   0.48311   0.09787   0.00000  Uiso   1.00
H435   H     0.98373   0.18511   0.90219   0.00000  Uiso   1.00
H436   H     0.51678   0.31488   0.09782   0.00000  Uiso   1.00
H437   H     0.68520   0.48304   0.90216   0.00000  Uiso   1.00
H438   H     0.81482   0.01634   0.09782   0.00000  Uiso   1.00
H439   H     0.51674   0.31478   0.90213   0.00000  Uiso   1.00
H440   H     0.98388   0.18516   0.09782   0.00000  Uiso   1.00
C441   C     0.61802   0.23531   0.45825   0.00000  Uiso   1.00
H442   H     0.61923   0.26179   0.43731   0.00000  Uiso   1.00
H443   H     0.64538   0.24087   0.47747   0.00000  Uiso   1.00
H444   H     0.62215   0.20498   0.44272   0.00000  Uiso   1.00
C445   C     0.88743   0.28814   0.54177   0.00000  Uiso   1.00
H446   H     0.89805   0.31217   0.56298   0.00000  Uiso   1.00
H447   H     0.86563   0.30559   0.52255   0.00000  Uiso   1.00
H448   H     0.87005   0.26273   0.55698   0.00000  Uiso   1.00
C449   C     0.76721   0.38231   0.45822   0.00000  Uiso   1.00
H450   H     0.76239   0.35481   0.47744   0.00000  Uiso   1.00
H451   H     0.74069   0.38047   0.43735   0.00000  Uiso   1.00
H452   H     0.79757   0.37892   0.44261   0.00000  Uiso   1.00
C453   C     0.70943   0.11172   0.54177   0.00000  Uiso   1.00
H454   H     0.68578   0.10058   0.56310   0.00000  Uiso   1.00
H455   H     0.73447   0.12979   0.55685   0.00000  Uiso   1.00
H456   H     0.69135   0.13301   0.52256   0.00000  Uiso   1.00
C457   C     0.88199   0.26471   0.45826   0.00000  Uiso   1.00
H458   H     0.88076   0.23822   0.43732   0.00000  Uiso   1.00
H459   H     0.85463   0.25917   0.47748   0.00000  Uiso   1.00
H460   H     0.87786   0.29503   0.44273   0.00000  Uiso   1.00
C461   C     0.61258   0.21188   0.54175   0.00000  Uiso   1.00
H462   H     0.60196   0.18785   0.56295   0.00000  Uiso   1.00
H463   H     0.63439   0.19444   0.52253   0.00000  Uiso   1.00
H464   H     0.62995   0.23729   0.55698   0.00000  Uiso   1.00
C465   C     0.73272   0.11768   0.45827   0.00000  Uiso   1.00
H466   H     0.75926   0.11955   0.43742   0.00000  Uiso   1.00
H467   H     0.70237   0.12104   0.44262   0.00000  Uiso   1.00
H468   H     0.73748   0.14519   0.47749   0.00000  Uiso   1.00
C469   C     0.79049   0.38825   0.54173   0.00000  Uiso   1.00
H470   H     0.81418   0.39938   0.56303   0.00000  Uiso   1.00
H471   H     0.76545   0.37022   0.55683   0.00000  Uiso   1.00
H472   H     0.80852   0.36693   0.52251   0.00000  Uiso   1.00
C473   C     0.63910   0.45691   0.95821   0.00000  Uiso   1.00
H474   H     0.65070   0.43371   0.93666   0.00000  Uiso   1.00
H475   H     0.61834   0.43813   0.97736   0.00000  Uiso   1.00
H476   H     0.62039   0.48164   0.94340   0.00000  Uiso   1.00
C477   C     0.86750   0.01819   0.04177   0.00000  Uiso   1.00
H478   H     0.86954   0.49187   0.06283   0.00000  Uiso   1.00
H479   H     0.89502   0.01336   0.02256   0.00000  Uiso   1.00
H480   H     0.87069   0.04872   0.05715   0.00000  Uiso   1.00
C481   C     0.52003   0.36731   0.95819   0.00000  Uiso   1.00
H482   H     0.51602   0.39497   0.97737   0.00000  Uiso   1.00
H483   H     0.55040   0.36991   0.94244   0.00000  Uiso   1.00
H484   H     0.99346   0.36980   0.93743   0.00000  Uiso   1.00
C485   C     0.98212   0.13242   0.04180   0.00000  Uiso   1.00
H486   H     0.98711   0.10491   0.02262   0.00000  Uiso   1.00
H487   H     0.50838   0.13046   0.06292   0.00000  Uiso   1.00
H488   H     0.95156   0.12914   0.05710   0.00000  Uiso   1.00
C489   C     0.86131   0.04138   0.95826   0.00000  Uiso   1.00
H490   H     0.84992   0.06516   0.93716   0.00000  Uiso   1.00
H491   H     0.88262   0.05940   0.97750   0.00000  Uiso   1.00
H492   H     0.87942   0.01658   0.94292   0.00000  Uiso   1.00
C493   C     0.63273   0.47984   0.04177   0.00000  Uiso   1.00
H494   H     0.63022   0.00642   0.06251   0.00000  Uiso   1.00
H495   H     0.60509   0.48381   0.02255   0.00000  Uiso   1.00
H496   H     0.63013   0.44949   0.05752   0.00000  Uiso   1.00
C497   C     0.95910   0.13847   0.95826   0.00000  Uiso   1.00
H498   H     0.93527   0.14973   0.93715   0.00000  Uiso   1.00
H499   H     0.98400   0.12047   0.94293   0.00000  Uiso   1.00
H500   H     0.94118   0.11707   0.97748   0.00000  Uiso   1.00
C501   C     0.54275   0.36110   0.04177   0.00000  Uiso   1.00
H502   H     0.56590   0.34963   0.06341   0.00000  Uiso   1.00
H503   H     0.56156   0.38185   0.02264   0.00000  Uiso   1.00
H504   H     0.51791   0.37978   0.05647   0.00000  Uiso   1.00
Zn505  Zn    0.20053   0.50000   0.21730   0.00000  Uiso   1.00
Zn506  Zn    0.29948   0.50000   0.78270   0.00000  Uiso   1.00
Zn507  Zn    0.00000   0.70053   0.21730   0.00000  Uiso   1.00
Zn508  Zn    0.00000   0.79947   0.78270   0.00000  Uiso   1.00
Zn509  Zn    0.29948   0.50000   0.21730   0.00000  Uiso   1.00
Zn510  Zn    0.20053   0.50000   0.78270   0.00000  Uiso   1.00
Zn511  Zn    0.00000   0.79948   0.21730   0.00000  Uiso   1.00
Zn512  Zn    0.00000   0.70052   0.78270   0.00000  Uiso   1.00
Zn513  Zn    0.45053   0.75000   0.71730   0.00000  Uiso   1.00
Zn514  Zn    0.04948   0.75000   0.28270   0.00000  Uiso   1.00
Zn515  Zn    0.25000   0.95053   0.71730   0.00000  Uiso   1.00
Zn516  Zn    0.25000   0.54948   0.28270   0.00000  Uiso   1.00
Zn517  Zn    0.04948   0.75000   0.71730   0.00000  Uiso   1.00
Zn518  Zn    0.45053   0.75000   0.28270   0.00000  Uiso   1.00
Zn519  Zn    0.25000   0.54948   0.71730   0.00000  Uiso   1.00
Zn520  Zn    0.25000   0.95053   0.28270   0.00000  Uiso   1.00
O521   O     0.25000   0.50000   0.25000   0.00000  Uiso   1.00
O522   O     0.25000   0.50000   0.75000   0.00000  Uiso   1.00
O523   O     0.00000   0.75000   0.25000   0.00000  Uiso   1.00
O524   O     0.00000   0.75000   0.75000   0.00000  Uiso   1.00
O525   O     0.25000   0.96539   0.33749   0.00000  Uiso   1.00
O526   O     0.25000   0.53462   0.66251   0.00000  Uiso   1.00
O527   O     0.03462   0.75000   0.33749   0.00000  Uiso   1.00
O528   O     0.46539   0.75000   0.66251   0.00000  Uiso   1.00
O529   O     0.25000   0.53462   0.33749   0.00000  Uiso   1.00
O530   O     0.25000   0.96539   0.66251   0.00000  Uiso   1.00
O531   O     0.46539   0.75000   0.33749   0.00000  Uiso   1.00
O532   O     0.03462   0.75000   0.66251   0.00000  Uiso   1.00
O533   O     0.00000   0.71538   0.83749   0.00000  Uiso   1.00
O534   O     0.00000   0.78462   0.16251   0.00000  Uiso   1.00
O535   O     0.28462   0.50000   0.83749   0.00000  Uiso   1.00
O536   O     0.21539   0.50000   0.16251   0.00000  Uiso   1.00
O537   O     0.00000   0.78461   0.83749   0.00000  Uiso   1.00
O538   O     0.00000   0.71539   0.16251   0.00000  Uiso   1.00
O539   O     0.21539   0.50000   0.83749   0.00000  Uiso   1.00
O540   O     0.28462   0.50000   0.16251   0.00000  Uiso   1.00
O541   O     0.20127   0.58332   0.27298   0.00000  Uiso   1.00
O542   O     0.29874   0.91668   0.72702   0.00000  Uiso   1.00
O543   O     0.41668   0.70127   0.27298   0.00000  Uiso   1.00
O544   O     0.08332   0.79873   0.72702   0.00000  Uiso   1.00
O545   O     0.29874   0.91668   0.27298   0.00000  Uiso   1.00
O546   O     0.20127   0.58332   0.72702   0.00000  Uiso   1.00
O547   O     0.08332   0.79873   0.27298   0.00000  Uiso   1.00
O548   O     0.41668   0.70127   0.72702   0.00000  Uiso   1.00
O549   O     0.20127   0.91668   0.72702   0.00000  Uiso   1.00
O550   O     0.29874   0.58332   0.27298   0.00000  Uiso   1.00
O551   O     0.41668   0.79874   0.72702   0.00000  Uiso   1.00
O552   O     0.08332   0.70127   0.27298   0.00000  Uiso   1.00
O553   O     0.29874   0.58332   0.72702   0.00000  Uiso   1.00
O554   O     0.20127   0.91668   0.27298   0.00000  Uiso   1.00
O555   O     0.08332   0.70127   0.72702   0.00000  Uiso   1.00
O556   O     0.41668   0.79874   0.27298   0.00000  Uiso   1.00
O557   O     0.45127   0.83332   0.77298   0.00000  Uiso   1.00
O558   O     0.04874   0.66668   0.22702   0.00000  Uiso   1.00
O559   O     0.16668   0.95126   0.77298   0.00000  Uiso   1.00
O560   O     0.33332   0.54874   0.22702   0.00000  Uiso   1.00
O561   O     0.04874   0.66668   0.77298   0.00000  Uiso   1.00
O562   O     0.45127   0.83332   0.22702   0.00000  Uiso   1.00
O563   O     0.33332   0.54874   0.77298   0.00000  Uiso   1.00
O564   O     0.16668   0.95126   0.22702   0.00000  Uiso   1.00
O565   O     0.45127   0.66668   0.22702   0.00000  Uiso   1.00
O566   O     0.04874   0.83332   0.77298   0.00000  Uiso   1.00
O567   O     0.16668   0.54874   0.22702   0.00000  Uiso   1.00
O568   O     0.33332   0.95127   0.77298   0.00000  Uiso   1.00
O569   O     0.04874   0.83332   0.22702   0.00000  Uiso   1.00
O570   O     0.45127   0.66668   0.77298   0.00000  Uiso   1.00
O571   O     0.33332   0.95127   0.22702   0.00000  Uiso   1.00
O572   O     0.16668   0.54874   0.77298   0.00000  Uiso   1.00
C573   C     0.25000   0.50000   0.35606   0.00000  Uiso   1.00
C574   C     0.25000   0.50000   0.64395   0.00000  Uiso   1.00
C575   C    -0.00000   0.75000   0.35606   0.00000  Uiso   1.00
C576   C     0.00000   0.75000   0.64395   0.00000  Uiso   1.00
C577   C     0.49998   0.75002   0.85605   0.00000  Uiso   1.00
C578   C     0.00008   0.74999   0.14395   0.00000  Uiso   1.00
C579   C     0.25000   0.99997   0.85605   0.00000  Uiso   1.00
C580   C     0.25000   0.99997   0.14395   0.00000  Uiso   1.00
C581   C     0.16999   0.58001   0.25000   0.00000  Uiso   1.00
C582   C     0.33001   0.91999   0.75000   0.00000  Uiso   1.00
C583   C     0.41999   0.66999   0.25000   0.00000  Uiso   1.00
C584   C     0.08001   0.83001   0.75000   0.00000  Uiso   1.00
C585   C     0.33002   0.91999   0.25000   0.00000  Uiso   1.00
C586   C     0.16998   0.58001   0.75000   0.00000  Uiso   1.00
C587   C     0.08001   0.83001   0.25000   0.00000  Uiso   1.00
C588   C     0.41999   0.66999   0.75000   0.00000  Uiso   1.00
C589   C     0.16999   0.91998   0.75000   0.00000  Uiso   1.00
C590   C     0.33001   0.58002   0.25000   0.00000  Uiso   1.00
C591   C     0.41999   0.83002   0.75000   0.00000  Uiso   1.00
C592   C     0.08001   0.66998   0.25000   0.00000  Uiso   1.00
C593   C     0.33001   0.58001   0.75000   0.00000  Uiso   1.00
C594   C     0.16999   0.91999   0.25000   0.00000  Uiso   1.00
C595   C     0.08001   0.66999   0.75000   0.00000  Uiso   1.00
C596   C     0.41999   0.83001   0.25000   0.00000  Uiso   1.00
C597   C     0.13834   0.88833   0.25000   0.00000  Uiso   1.00
C598   C     0.36166   0.61167   0.75000   0.00000  Uiso   1.00
C599   C     0.11166   0.63833   0.25000   0.00000  Uiso   1.00
C600   C     0.38834   0.86167   0.75000   0.00000  Uiso   1.00
C601   C     0.36166   0.61167   0.25000   0.00000  Uiso   1.00
C602   C     0.13834   0.88833   0.75000   0.00000  Uiso   1.00
C603   C     0.38834   0.86167   0.25000   0.00000  Uiso   1.00
C604   C     0.11166   0.63833   0.75000   0.00000  Uiso   1.00
C605   C     0.13833   0.61166   0.75000   0.00000  Uiso   1.00
C606   C     0.36167   0.88834   0.25000   0.00000  Uiso   1.00
C607   C     0.11167   0.86166   0.75000   0.00000  Uiso   1.00
C608   C     0.38834   0.63834   0.25000   0.00000  Uiso   1.00
C609   C     0.36167   0.88834   0.75000   0.00000  Uiso   1.00
C610   C     0.13833   0.61167   0.25000   0.00000  Uiso   1.00
C611   C     0.38833   0.63834   0.75000   0.00000  Uiso   1.00
C612   C     0.11167   0.86166   0.25000   0.00000  Uiso   1.00
C613   C     0.46273   0.75740   0.41868   0.00000  Uiso   1.00
C614   C     0.03698   0.74124   0.58133   0.00000  Uiso   1.00
C615   C     0.24187   0.53713   0.41868   0.00000  Uiso   1.00
C616   C     0.25946   0.96319   0.58134   0.00000  Uiso   1.00
C617   C     0.03727   0.74260   0.41868   0.00000  Uiso   1.00
C618   C     0.46302   0.75876   0.58134   0.00000  Uiso   1.00
C619   C     0.25811   0.96288   0.41867   0.00000  Uiso   1.00
C620   C     0.24052   0.53680   0.58135   0.00000  Uiso   1.00
C621   C     0.28669   0.50968   0.91867   0.00000  Uiso   1.00
C622   C     0.21304   0.99094   0.08134   0.00000  Uiso   1.00
C623   C     0.49005   0.71335   0.91868   0.00000  Uiso   1.00
C624   C     0.01066   0.78659   0.08134   0.00000  Uiso   1.00
C625   C     0.21337   0.98965   0.91865   0.00000  Uiso   1.00
C626   C     0.28702   0.50834   0.08132   0.00000  Uiso   1.00
C627   C     0.00859   0.78706   0.91866   0.00000  Uiso   1.00
C628   C     0.49219   0.71287   0.08133   0.00000  Uiso   1.00
C629   C    -0.00000   0.75000   0.39850   0.00000  Uiso   1.00
C630   C     0.00000   0.75000   0.60152   0.00000  Uiso   1.00
C631   C     0.25000   0.50000   0.39850   0.00000  Uiso   1.00
C632   C     0.24999   0.99999   0.60152   0.00000  Uiso   1.00
C633   C     0.25001   0.99979   0.89848   0.00000  Uiso   1.00
C634   C     0.25001   0.99978   0.10151   0.00000  Uiso   1.00
C635   C     0.49957   0.75012   0.89849   0.00000  Uiso   1.00
C636   C     0.00089   0.74986   0.10152   0.00000  Uiso   1.00
C637   C     0.03815   0.74284   0.45930   0.00000  Uiso   1.00
C638   C     0.46244   0.75975   0.54072   0.00000  Uiso   1.00
C639   C     0.25792   0.96200   0.45929   0.00000  Uiso   1.00
C640   C     0.23947   0.53735   0.54073   0.00000  Uiso   1.00
C641   C     0.46185   0.75717   0.45930   0.00000  Uiso   1.00
C642   C     0.03756   0.74026   0.54072   0.00000  Uiso   1.00
C643   C     0.24205   0.53800   0.45931   0.00000  Uiso   1.00
C644   C     0.26049   0.96263   0.54072   0.00000  Uiso   1.00
C645   C     0.21288   0.98839   0.95926   0.00000  Uiso   1.00
C646   C     0.28793   0.50798   0.04071   0.00000  Uiso   1.00
C647   C     0.00883   0.78787   0.95929   0.00000  Uiso   1.00
C648   C     0.49239   0.71197   0.04071   0.00000  Uiso   1.00
C649   C     0.28727   0.51054   0.95928   0.00000  Uiso   1.00
C650   C     0.21219   0.99090   0.04070   0.00000  Uiso   1.00
C651   C     0.48939   0.71273   0.95930   0.00000  Uiso   1.00
C652   C     0.01177   0.78712   0.04072   0.00000  Uiso   1.00
C653   C     0.00000   0.75000   0.47969   0.00000  Uiso   1.00
C654   C     0.00000   0.75001   0.52033   0.00000  Uiso   1.00
C655   C     0.24998   0.50000   0.47969   0.00000  Uiso   1.00
C656   C     0.24998   0.99999   0.52033   0.00000  Uiso   1.00
C657   C     0.25008   0.99943   0.97967   0.00000  Uiso   1.00
C658   C     0.25007   0.99942   0.02031   0.00000  Uiso   1.00
C659   C     0.00017   0.75003   0.97969   0.00000  Uiso   1.00
C660   C     0.00106   0.74981   0.02032   0.00000  Uiso   1.00
C661   C     0.07623   0.73551   0.47969   0.00000  Uiso   1.00
C662   C     0.42500   0.76982   0.52034   0.00000  Uiso   1.00
C663   C     0.26607   0.92408   0.47968   0.00000  Uiso   1.00
C664   C     0.22860   0.57457   0.52035   0.00000  Uiso   1.00
C665   C     0.42377   0.76451   0.47970   0.00000  Uiso   1.00
C666   C     0.07501   0.73020   0.52033   0.00000  Uiso   1.00
C667   C     0.23387   0.57591   0.47971   0.00000  Uiso   1.00
C668   C     0.27135   0.92542   0.52032   0.00000  Uiso   1.00
C669   C     0.17589   0.97676   0.97965   0.00000  Uiso   1.00
C670   C     0.32575   0.51658   0.02031   0.00000  Uiso   1.00
C671   C     0.01794   0.82559   0.97968   0.00000  Uiso   1.00
C672   C     0.48366   0.67418   0.02033   0.00000  Uiso   1.00
C673   C     0.32436   0.52183   0.97968   0.00000  Uiso   1.00
C674   C     0.17445   0.98195   0.02030   0.00000  Uiso   1.00
C675   C     0.47847   0.67552   0.97969   0.00000  Uiso   1.00
C676   C     0.02305   0.82421   0.02034   0.00000  Uiso   1.00
H677   H     0.43464   0.76433   0.40219   0.00000  Uiso   1.00
H678   H     0.06535   0.73551   0.59781   0.00000  Uiso   1.00
H679   H     0.23442   0.56507   0.40218   0.00000  Uiso   1.00
H680   H     0.26573   0.93494   0.59781   0.00000  Uiso   1.00
H681   H     0.06536   0.73568   0.40218   0.00000  Uiso   1.00
H682   H     0.43465   0.76449   0.59781   0.00000  Uiso   1.00
H683   H     0.26558   0.93494   0.40216   0.00000  Uiso   1.00
H684   H     0.23425   0.56505   0.59783   0.00000  Uiso   1.00
H685   H     0.31482   0.51645   0.90218   0.00000  Uiso   1.00
H686   H     0.18522   0.98311   0.09787   0.00000  Uiso   1.00
H687   H     0.48373   0.68511   0.90219   0.00000  Uiso   1.00
H688   H     0.01678   0.81488   0.09782   0.00000  Uiso   1.00
H689   H     0.18520   0.98304   0.90216   0.00000  Uiso   1.00
H690   H     0.31482   0.51634   0.09782   0.00000  Uiso   1.00
H691   H     0.01674   0.81478   0.90213   0.00000  Uiso   1.00
H692   H     0.48388   0.68516   0.09782   0.00000  Uiso   1.00
C693   C     0.11802   0.73531   0.45825   0.00000  Uiso   1.00
H694   H     0.11923   0.76179   0.43731   0.00000  Uiso   1.00
H695   H     0.14538   0.74087   0.47747   0.00000  Uiso   1.00
H696   H     0.12215   0.70498   0.44272   0.00000  Uiso   1.00
C697   C     0.38743   0.78814   0.54177   0.00000  Uiso   1.00
H698   H     0.39805   0.81217   0.56298   0.00000  Uiso   1.00
H699   H     0.36563   0.80559   0.52255   0.00000  Uiso   1.00
H700   H     0.37005   0.76273   0.55698   0.00000  Uiso   1.00
C701   C     0.26721   0.88231   0.45822   0.00000  Uiso   1.00
H702   H     0.26239   0.85481   0.47744   0.00000  Uiso   1.00
H703   H     0.24069   0.88047   0.43735   0.00000  Uiso   1.00
H704   H     0.29757   0.87892   0.44261   0.00000  Uiso   1.00
C705   C     0.20943   0.61172   0.54177   0.00000  Uiso   1.00
H706   H     0.18578   0.60058   0.56310   0.00000  Uiso   1.00
H707   H     0.23447   0.62979   0.55685   0.00000  Uiso   1.00
H708   H     0.19135   0.63301   0.52256   0.00000  Uiso   1.00
C709   C     0.38199   0.76471   0.45826   0.00000  Uiso   1.00
H710   H     0.38076   0.73822   0.43732   0.00000  Uiso   1.00
H711   H     0.35463   0.75917   0.47748   0.00000  Uiso   1.00
H712   H     0.37786   0.79503   0.44273   0.00000  Uiso   1.00
C713   C     0.11258   0.71188   0.54175   0.00000  Uiso   1.00
H714   H     0.10196   0.68785   0.56295   0.00000  Uiso   1.00
H715   H     0.13439   0.69444   0.52253   0.00000  Uiso   1.00
H716   H     0.12995   0.73729   0.55698   0.00000  Uiso   1.00
C717   C     0.23272   0.61768   0.45827   0.00000  Uiso   1.00
H718   H     0.25926   0.61955   0.43742   0.00000  Uiso   1.00
H719   H     0.20237   0.62104   0.44262   0.00000  Uiso   1.00
H720   H     0.23748   0.64519   0.47749   0.00000  Uiso   1.00
C721   C     0.29049   0.88825   0.54173   0.00000  Uiso   1.00
H722   H     0.31418   0.89938   0.56303   0.00000  Uiso   1.00
H723   H     0.26545   0.87022   0.55683   0.00000  Uiso   1.00
H724   H     0.30852   0.86693   0.52251   0.00000  Uiso   1.00
C725   C     0.13910   0.95691   0.95821   0.00000  Uiso   1.00
H726   H     0.15070   0.93371   0.93666   0.00000  Uiso   1.00
H727   H     0.11834   0.93813   0.97736   0.00000  Uiso   1.00
H728   H     0.12039   0.98164   0.94340   0.00000  Uiso   1.00
C729   C     0.36750   0.51819   0.04177   0.00000  Uiso   1.00
H730   H     0.36954   0.99187   0.06283   0.00000  Uiso   1.00
H731   H     0.39502   0.51336   0.02256   0.00000  Uiso   1.00
H732   H     0.37069   0.54872   0.05715   0.00000  Uiso   1.00
C733   C     0.02003   0.86731   0.95819   0.00000  Uiso   1.00
H734   H     0.01602   0.89497   0.97737   0.00000  Uiso   1.00
H735   H     0.05040   0.86991   0.94244   0.00000  Uiso   1.00
H736   H     0.49346   0.86980   0.93743   0.00000  Uiso   1.00
C737   C     0.48212   0.63242   0.04180   0.00000  Uiso   1.00
H738   H     0.48711   0.60491   0.02262   0.00000  Uiso   1.00
H739   H     0.00838   0.63046   0.06292   0.00000  Uiso   1.00
H740   H     0.45156   0.62914   0.05710   0.00000  Uiso   1.00
C741   C     0.36131   0.54138   0.95826   0.00000  Uiso   1.00
H742   H     0.34992   0.56516   0.93716   0.00000  Uiso   1.00
H743   H     0.38262   0.55940   0.97750   0.00000  Uiso   1.00
H744   H     0.37942   0.51658   0.94292   0.00000  Uiso   1.00
C745   C     0.13273   0.97984   0.04177   0.00000  Uiso   1.00
H746   H     0.13022   0.50642   0.06251   0.00000  Uiso   1.00
H747   H     0.10509   0.98381   0.02255   0.00000  Uiso   1.00
H748   H     0.13013   0.94949   0.05752   0.00000  Uiso   1.00
C749   C     0.45910   0.63847   0.95826   0.00000  Uiso   1.00
H750   H     0.43527   0.64973   0.93715   0.00000  Uiso   1.00
H751   H     0.48400   0.62047   0.94293   0.00000  Uiso   1.00
H752   H     0.44118   0.61707   0.97748   0.00000  Uiso   1.00
C753   C     0.04275   0.86110   0.04177   0.00000  Uiso   1.00
H754   H     0.06590   0.84963   0.06341   0.00000  Uiso   1.00
H755   H     0.06156   0.88185   0.02264   0.00000  Uiso   1.00
H756   H     0.01791   0.87978   0.05647   0.00000  Uiso   1.00
Zn757  Zn    0.70053   0.50000   0.21730   0.00000  Uiso   1.00
Zn758  Zn    0.79948   0.50000   0.78270   0.00000  Uiso   1.00
Zn759  Zn    0.50000   0.70053   0.21730   0.00000  Uiso   1.00
Zn760  Zn    0.50000   0.79947   0.78270   0.00000  Uiso   1.00
Zn761  Zn    0.79948   0.50000   0.21730   0.00000  Uiso   1.00
Zn762  Zn    0.70053   0.50000   0.78270   0.00000  Uiso   1.00
Zn763  Zn    0.50000   0.79948   0.21730   0.00000  Uiso   1.00
Zn764  Zn    0.50000   0.70052   0.78270   0.00000  Uiso   1.00
Zn765  Zn    0.95053   0.75000   0.71730   0.00000  Uiso   1.00
Zn766  Zn    0.54948   0.75000   0.28270   0.00000  Uiso   1.00
Zn767  Zn    0.75000   0.95053   0.71730   0.00000  Uiso   1.00
Zn768  Zn    0.75000   0.54948   0.28270   0.00000  Uiso   1.00
Zn769  Zn    0.54948   0.75000   0.71730   0.00000  Uiso   1.00
Zn770  Zn    0.95053   0.75000   0.28270   0.00000  Uiso   1.00
Zn771  Zn    0.75000   0.54948   0.71730   0.00000  Uiso   1.00
Zn772  Zn    0.75000   0.95053   0.28270   0.00000  Uiso   1.00
O773   O     0.75000   0.50000   0.25000   0.00000  Uiso   1.00
O774   O     0.75000   0.50000   0.75000   0.00000  Uiso   1.00
O775   O     0.50000   0.75000   0.25000   0.00000  Uiso   1.00
O776   O     0.50000   0.75000   0.75000   0.00000  Uiso   1.00
O777   O     0.75000   0.96539   0.33749   0.00000  Uiso   1.00
O778   O     0.75000   0.53462   0.66251   0.00000  Uiso   1.00
O779   O     0.53462   0.75000   0.33749   0.00000  Uiso   1.00
O780   O     0.96539   0.75000   0.66251   0.00000  Uiso   1.00
O781   O     0.75000   0.53462   0.33749   0.00000  Uiso   1.00
O782   O     0.75000   0.96539   0.66251   0.00000  Uiso   1.00
O783   O     0.96539   0.75000   0.33749   0.00000  Uiso   1.00
O784   O     0.53462   0.75000   0.66251   0.00000  Uiso   1.00
O785   O     0.50000   0.71538   0.83749   0.00000  Uiso   1.00
O786   O     0.50000   0.78462   0.16251   0.00000  Uiso   1.00
O787   O     0.78462   0.50000   0.83749   0.00000  Uiso   1.00
O788   O     0.71539   0.50000   0.16251   0.00000  Uiso   1.00
O789   O     0.50000   0.78461   0.83749   0.00000  Uiso   1.00
O790   O     0.50000   0.71539   0.16251   0.00000  Uiso   1.00
O791   O     0.71539   0.50000   0.83749   0.00000  Uiso   1.00
O792   O     0.78462   0.50000   0.16251   0.00000  Uiso   1.00
O793   O     0.70127   0.58332   0.27298   0.00000  Uiso   1.00
O794   O     0.79874   0.91668   0.72702   0.00000  Uiso   1.00
O795   O     0.91668   0.70127   0.27298   0.00000  Uiso   1.00
O796   O     0.58332   0.79873   0.72702   0.00000  Uiso   1.00
O797   O     0.79874   0.91668   0.27298   0.00000  Uiso   1.00
O798   O     0.70127   0.58332   0.72702   0.00000  Uiso   1.00
O799   O     0.58332   0.79873   0.27298   0.00000  Uiso   1.00
O800   O     0.91668   0.70127   0.72702   0.00000  Uiso   1.00
O801   O     0.70127   0.91668   0.72702   0.00000  Uiso   1.00
O802   O     0.79874   0.58332   0.27298   0.00000  Uiso   1.00
O803   O     0.91668   0.79874   0.72702   0.00000  Uiso   1.00
O804   O     0.58332   0.70127   0.27298   0.00000  Uiso   1.00
O805   O     0.79874   0.58332   0.72702   0.00000  Uiso   1.00
O806   O     0.70127   0.91668   0.27298   0.00000  Uiso   1.00
O807   O     0.58332   0.70127   0.72702   0.00000  Uiso   1.00
O808   O     0.91668   0.79874   0.27298   0.00000  Uiso   1.00
O809   O     0.95127   0.83332   0.77298   0.00000  Uiso   1.00
O810   O     0.54874   0.66668   0.22702   0.00000  Uiso   1.00
O811   O     0.66668   0.95126   0.77298   0.00000  Uiso   1.00
O812   O     0.83332   0.54874   0.22702   0.00000  Uiso   1.00
O813   O     0.54874   0.66668   0.77298   0.00000  Uiso   1.00
O814   O     0.95127   0.83332   0.22702   0.00000  Uiso   1.00
O815   O     0.83332   0.54874   0.77298   0.00000  Uiso   1.00
O816   O     0.66668   0.95126   0.22702   0.00000  Uiso   1.00
O817   O     0.95127   0.66668   0.22702   0.00000  Uiso   1.00
O818   O     0.54874   0.83332   0.77298   0.00000  Uiso   1.00
O819   O     0.66668   0.54874   0.22702   0.00000  Uiso   1.00
O820   O     0.83332   0.95127   0.77298   0.00000  Uiso   1.00
O821   O     0.54874   0.83332   0.22702   0.00000  Uiso   1.00
O822   O     0.95127   0.66668   0.77298   0.00000  Uiso   1.00
O823   O     0.83332   0.95127   0.22702   0.00000  Uiso   1.00
O824   O     0.66668   0.54874   0.77298   0.00000  Uiso   1.00
C825   C     0.75000   0.50000   0.35606   0.00000  Uiso   1.00
C826   C     0.75000   0.50000   0.64395   0.00000  Uiso   1.00
C827   C     0.50000   0.75000   0.35606   0.00000  Uiso   1.00
C828   C     0.50000   0.75000   0.64395   0.00000  Uiso   1.00
C829   C     0.99998   0.75002   0.85605   0.00000  Uiso   1.00
C830   C     0.50008   0.74999   0.14395   0.00000  Uiso   1.00
C831   C     0.75000   0.99997   0.85605   0.00000  Uiso   1.00
C832   C     0.75000   0.99997   0.14395   0.00000  Uiso   1.00
C833   C     0.66999   0.58001   0.25000   0.00000  Uiso   1.00
C834   C     0.83001   0.91999   0.75000   0.00000  Uiso   1.00
C835   C     0.91999   0.66999   0.25000   0.00000  Uiso   1.00
C836   C     0.58001   0.83001   0.75000   0.00000  Uiso   1.00
C837   C     0.83002   0.91999   0.25000   0.00000  Uiso   1.00
C838   C     0.66998   0.58001   0.75000   0.00000  Uiso   1.00
C839   C     0.58001   0.83001   0.25000   0.00000  Uiso   1.00
C840   C     0.91999   0.66999   0.75000   0.00000  Uiso   1.00
C841   C     0.66999   0.91998   0.75000   0.00000  Uiso   1.00
C842   C     0.83001   0.58002   0.25000   0.00000  Uiso   1.00
C843   C     0.91999   0.83002   0.75000   0.00000  Uiso   1.00
C844   C     0.58001   0.66998   0.25000   0.00000  Uiso   1.00
C845   C     0.83001   0.58001   0.75000   0.00000  Uiso   1.00
C846   C     0.66999   0.91999   0.25000   0.00000  Uiso   1.00
C847   C     0.58001   0.66999   0.75000   0.00000  Uiso   1.00
C848   C     0.91999   0.83001   0.25000   0.00000  Uiso   1.00
C849   C     0.63834   0.88833   0.25000   0.00000  Uiso   1.00
C850   C     0.86166   0.61167   0.75000   0.00000  Uiso   1.00
C851   C     0.61166   0.63833   0.25000   0.00000  Uiso   1.00
C852   C     0.88834   0.86167   0.75000   0.00000  Uiso   1.00
C853   C     0.86166   0.61167   0.25000   0.00000  Uiso   1.00
C854   C     0.63834   0.88833   0.75000   0.00000  Uiso   1.00
C855   C     0.88834   0.86167   0.25000   0.00000  Uiso   1.00
C856   C     0.61166   0.63833   0.75000   0.00000  Uiso   1.00
C857   C     0.63833   0.61166   0.75000   0.00000  Uiso   1.00
C858   C     0.86167   0.88834   0.25000   0.00000  Uiso   1.00
C859   C     0.61167   0.86166   0.75000   0.00000  Uiso   1.00
C860   C     0.88834   0.63834   0.25000   0.00000  Uiso   1.00
C861   C     0.86167   0.88834   0.75000   0.00000  Uiso   1.00
C862   C     0.63833   0.61167   0.25000   0.00000  Uiso   1.00
C863   C     0.88833   0.63834   0.75000   0.00000  Uiso   1.00
C864   C     0.61167   0.86166   0.25000   0.00000  Uiso   1.00
C865   C     0.96273   0.75740   0.41868   0.00000  Uiso   1.00
C866   C     0.53698   0.74124   0.58133   0.00000  Uiso   1.00
C867   C     0.74187   0.53713   0.41868   0.00000  Uiso   1.00
C868   C     0.75946   0.96319   0.58134   0.00000  Uiso   1.00
C869   C     0.53727   0.74260   0.41868   0.00000  Uiso   1.00
C870   C     0.96302   0.75876   0.58134   0.00000  Uiso   1.00
C871   C     0.75811   0.96288   0.41867   0.00000  Uiso   1.00
C872   C     0.74052   0.53680   0.58135   0.00000  Uiso   1.00
C873   C     0.78669   0.50968   0.91867   0.00000  Uiso   1.00
C874   C     0.71304   0.99094   0.08134   0.00000  Uiso   1.00
C875   C     0.99005   0.71335   0.91868   0.00000  Uiso   1.00
C876   C     0.51066   0.78659   0.08134   0.00000  Uiso   1.00
C877   C     0.71337   0.98965   0.91865   0.00000  Uiso   1.00
C878   C     0.78702   0.50834   0.08132   0.00000  Uiso   1.00
C879   C     0.50859   0.78706   0.91866   0.00000  Uiso   1.00
C880   C     0.99219   0.71287   0.08133   0.00000  Uiso   1.00
C881   C     0.50000   0.75000   0.39850   0.00000  Uiso   1.00
C882   C     0.50000   0.75000   0.60152   0.00000  Uiso   1.00
C883   C     0.75000   0.50000   0.39850   0.00000  Uiso   1.00
C884   C     0.74999   0.99999   0.60152   0.00000  Uiso   1.00
C885   C     0.75001   0.99979   0.89848   0.00000  Uiso   1.00
C886   C     0.75001   0.99978   0.10151   0.00000  Uiso   1.00
C887   C     0.99957   0.75012   0.89849   0.00000  Uiso   1.00
C888   C     0.50089   0.74986   0.10152   0.00000  Uiso   1.00
C889   C     0.53815   0.74284   0.45930   0.00000  Uiso   1.00
C890   C     0.96244   0.75975   0.54072   0.00000  Uiso   1.00
C891   C     0.75792   0.96200   0.45929   0.00000  Uiso   1.00
C892   C     0.73947   0.53735   0.54073   0.00000  Uiso   1.00
C893   C     0.96185   0.75717   0.45930   0.00000  Uiso   1.00
C894   C     0.53756   0.74026   0.54072   0.00000  Uiso   1.00
C895   C     0.74205   0.53800   0.45931   0.00000  Uiso   1.00
C896   C     0.76049   0.96263   0.54072   0.00000  Uiso   1.00
C897   C     0.71288   0.98839   0.95926   0.00000  Uiso   1.00
C898   C     0.78793   0.50798   0.04071   0.00000  Uiso   1.00
C899   C     0.50883   0.78787   0.95929   0.00000  Uiso   1.00
C900   C     0.99239   0.71197   0.04071   0.00000  Uiso   1.00
C901   C     0.78727   0.51054   0.95928   0.00000  Uiso   1.00
C902   C     0.71219   0.99090   0.04070   0.00000  Uiso   1.00
C903   C     0.98939   0.71273   0.95930   0.00000  Uiso   1.00
C904   C     0.51177   0.78712   0.04072   0.00000  Uiso   1.00
C905   C     0.50000   0.75000   0.47969   0.00000  Uiso   1.00
C906   C     0.50000   0.75001   0.52033   0.00000  Uiso   1.00
C907   C     0.74998   0.50000   0.47969   0.00000  Uiso   1.00
C908   C     0.74998   0.99999   0.52033   0.00000  Uiso   1.00
C909   C     0.75008   0.99943   0.97967   0.00000  Uiso   1.00
C910   C     0.75007   0.99942   0.02031   0.00000  Uiso   1.00
C911   C     0.50017   0.75003   0.97969   0.00000  Uiso   1.00
C912   C     0.50106   0.74981   0.02032   0.00000  Uiso   1.00
C913   C     0.57623   0.73551   0.47969   0.00000  Uiso   1.00
C914   C     0.92500   0.76982   0.52034   0.00000  Uiso   1.00
C915   C     0.76607   0.92408   0.47968   0.00000  Uiso   1.00
C916   C     0.72860   0.57457   0.52035   0.00000  Uiso   1.00
C917   C     0.92377   0.76451   0.47970   0.00000  Uiso   1.00
C918   C     0.57501   0.73020   0.52033   0.00000  Uiso   1.00
C919   C     0.73387   0.57591   0.47971   0.00000  Uiso   1.00
C920   C     0.77135   0.92542   0.52032   0.00000  Uiso   1.00
C921   C     0.67589   0.97676   0.97965   0.00000  Uiso   1.00
C922   C     0.82575   0.51658   0.02031   0.00000  Uiso   1.00
C923   C     0.51794   0.82559   0.97968   0.00000  Uiso   1.00
C924   C     0.98366   0.67418   0.02033   0.00000  Uiso   1.00
C925   C     0.82436   0.52183   0.97968   0.00000  Uiso   1.00
C926   C     0.67445   0.98195   0.02030   0.00000  Uiso   1.00
C927   C     0.97847   0.67552   0.97969   0.00000  Uiso   1.00
C928   C     0.52305   0.82421   0.02034   0.00000  Uiso   1.00
H929   H     0.93464   0.76433   0.40219   0.00000  Uiso   1.00
H930   H     0.56535   0.73551   0.59781   0.00000  Uiso   1.00
H931   H     0.73442   0.56507   0.40218   0.00000  Uiso   1.00
H932   H     0.76573   0.93494   0.59781   0.00000  Uiso   1.00
H933   H     0.56536   0.73568   0.40218   0.00000  Uiso   1.00
H934   H     0.93465   0.76449   0.59781   0.00000  Uiso   1.00
H935   H     0.76558   0.93494   0.40216   0.00000  Uiso   1.00
H936   H     0.73425   0.56505   0.59783   0.00000  Uiso   1.00
H937   H     0.81482   0.51645   0.90218   0.00000  Uiso   1.00
H938   H     0.68522   0.98311   0.09787   0.00000  Uiso   1.00
H939   H     0.98373   0.68511   0.90219   0.00000  Uiso   1.00
H940   H     0.51678   0.81488   0.09782   0.00000  Uiso   1.00
H941   H     0.68520   0.98304   0.90216   0.00000  Uiso   1.00
H942   H     0.81482   0.51634   0.09782   0.00000  Uiso   1.00
H943   H     0.51674   0.81478   0.90213   0.00000  Uiso   1.00
H944   H     0.98388   0.68516   0.09782   0.00000  Uiso   1.00
C945   C     0.61802   0.73531   0.45825   0.00000  Uiso   1.00
H946   H     0.61923   0.76179   0.43731   0.00000  Uiso   1.00
H947   H     0.64538   0.74087   0.47747   0.00000  Uiso   1.00
H948   H     0.62215   0.70498   0.44272   0.00000  Uiso   1.00
C949   C     0.88743   0.78814   0.54177   0.00000  Uiso   1.00
H950   H     0.89805   0.81217   0.56298   0.00000  Uiso   1.00
H951   H     0.86563   0.80559   0.52255   0.00000  Uiso   1.00
H952   H     0.87005   0.76273   0.55698   0.00000  Uiso   1.00
C953   C     0.76721   0.88231   0.45822   0.00000  Uiso   1.00
H954   H     0.76239   0.85481   0.47744   0.00000  Uiso   1.00
H955   H     0.74069   0.88047   0.43735   0.00000  Uiso   1.00
H956   H     0.79757   0.87892   0.44261   0.00000  Uiso   1.00
C957   C     0.70943   0.61172   0.54177   0.00000  Uiso   1.00
H958   H     0.68578   0.60058   0.56310   0.00000  Uiso   1.00
H959   H     0.73447   0.62979   0.55685   0.00000  Uiso   1.00
H960   H     0.69135   0.63301   0.52256   0.00000  Uiso   1.00
C961   C     0.88199   0.76471   0.45826   0.00000  Uiso   1.00
H962   H     0.88076   0.73822   0.43732   0.00000  Uiso   1.00
H963   H     0.85463   0.75917   0.47748   0.00000  Uiso   1.00
H964   H     0.87786   0.79503   0.44273   0.00000  Uiso   1.00
C965   C     0.61258   0.71188   0.54175   0.00000  Uiso   1.00
H966   H     0.60196   0.68785   0.56295   0.00000  Uiso   1.00
H967   H     0.63439   0.69444   0.52253   0.00000  Uiso   1.00
H968   H     0.62995   0.73729   0.55698   0.00000  Uiso   1.00
C969   C     0.73272   0.61768   0.45827   0.00000  Uiso   1.00
H970   H     0.75926   0.61955   0.43742   0.00000  Uiso   1.00
H971   H     0.70237   0.62104   0.44262   0.00000  Uiso   1.00
H972   H     0.73748   0.64519   0.47749   0.00000  Uiso   1.00
C973   C     0.79049   0.88825   0.54173   0.00000  Uiso   1.00
H974   H     0.81418   0.89938   0.56303   0.00000  Uiso   1.00
H975   H     0.76545   0.87022   0.55683   0.00000  Uiso   1.00
H976   H     0.80852   0.86693   0.52251   0.00000  Uiso   1.00
C977   C     0.63910   0.95691   0.95821   0.00000  Uiso   1.00
H978   H     0.65070   0.93371   0.93666   0.00000  Uiso   1.00
H979   H     0.61834   0.93813   0.97736   0.00000  Uiso   1.00
H980   H     0.62039   0.98164   0.94340   0.00000  Uiso   1.00
C981   C     0.86750   0.51819   0.04177   0.00000  Uiso   1.00
H982   H     0.86954   0.99187   0.06283   0.00000  Uiso   1.00
H983   H     0.89502   0.51336   0.02256   0.00000  Uiso   1.00
H984   H     0.87069   0.54872   0.05715   0.00000  Uiso   1.00
C985   C     0.52003   0.86731   0.95819   0.00000  Uiso   1.00
H986   H     0.51602   0.89497   0.97737   0.00000  Uiso   1.00
H987   H     0.55040   0.86991   0.94244   0.00000  Uiso   1.00
H988   H     0.99346   0.86980   0.93743   0.00000  Uiso   1.00
C989   C     0.98212   0.63242   0.04180   0.00000  Uiso   1.00
H990   H     0.98711   0.60491   0.02262   0.00000  Uiso   1.00
H991   H     0.50838   0.63046   0.06292   0.00000  Uiso   1.00
H992   H     0.95156   0.62914   0.05710   0.00000  Uiso   1.00
C993   C     0.86131   0.54138   0.95826   0.00000  Uiso   1.00
H994   H     0.84992   0.56516   0.93716   0.00000  Uiso   1.00
H995   H     0.88262   0.55940   0.97750   0.00000  Uiso   1.00
H996   H     0.87942   0.51658   0.94292   0.00000  Uiso   1.00
C997   C     0.63273   0.97984   0.04177   0.00000  Uiso   1.00
H998   H     0.63022   0.50642   0.06251   0.00000  Uiso   1.00
H999   H     0.60509   0.98381   0.02255   0.00000  Uiso   1.00
H1000  H     0.63013   0.94949   0.05752   0.00000  Uiso   1.00
C1001  C     0.95910   0.63847   0.95826   0.00000  Uiso   1.00
H1002  H     0.93527   0.64973   0.93715   0.00000  Uiso   1.00
H1003  H     0.98400   0.62047   0.94293   0.00000  Uiso   1.00
H1004  H     0.94118   0.61707   0.97748   0.00000  Uiso   1.00
C1005  C     0.54275   0.86110   0.04177   0.00000  Uiso   1.00
H1006  H     0.56590   0.84963   0.06341   0.00000  Uiso   1.00
H1007  H     0.56156   0.88185   0.02264   0.00000  Uiso   1.00
H1008  H     0.51791   0.87978   0.05647   0.00000  Uiso   1.00
loop_
_geom_bond_atom_site_label_1
_geom_bond_atom_site_label_2
_geom_bond_distance
_geom_bond_site_symmetry_2
_ccdc_geom_bond_type
Zn1    O63     1.914   .     S
Zn1    O32     1.951   .     S
Zn1    O17     1.935   .     S
Zn1    O564    1.914   1_545 S
Zn2    O59     1.914   .     S
Zn2    O31     1.951   .     S
Zn2    O18     1.935   .     S
Zn2    O568    1.914   1_545 S
Zn3    O19     1.935   .     S
Zn3    O313    1.914   1_455 S
Zn3    O34     1.951   .     S
Zn3    O54     1.914   .     S
Zn4    O62     1.914   .     S
Zn4    O20     1.935   .     S
Zn4    O33     1.951   .     S
Zn4    O305    1.914   1_455 S
Zn5    O56     1.914   .     S
Zn5    O17     1.935   .     S
Zn5    O36     1.951   .     S
Zn5    O571    1.914   1_545 S
Zn6    O18     1.935   .     S
Zn6    O68     1.914   .     S
Zn6    O35     1.951   .     S
Zn6    O559    1.914   1_545 S
Zn7    O310    1.914   1_455 S
Zn7    O30     1.951   .     S
Zn7    O19     1.936   .     S
Zn7    O65     1.914   .     S
Zn8    O29     1.951   .     S
Zn8    O57     1.914   .     S
Zn8    O20     1.936   .     S
Zn8    O318    1.914   1_455 S
Zn9    O44     1.914   .     S
Zn9    O24     1.951   .     S
Zn9    O47     1.914   .     S
Zn9    O272    1.935   .     S
Zn10   O48     1.914   .     S
Zn10   O43     1.914   .     S
Zn10   O23     1.951   .     S
Zn10   O19     1.935   .     S
Zn11   O26     1.951   .     S
Zn11   O45     1.914   .     S
Zn11   O38     1.914   .     S
Zn11   O522    1.935   .     S
Zn12   O37     1.914   .     S
Zn12   O17     1.935   .     S
Zn12   O46     1.914   .     S
Zn12   O25     1.951   .     S
Zn13   O40     1.914   .     S
Zn13   O51     1.914   .     S
Zn13   O28     1.951   .     S
Zn13   O20     1.935   .     S
Zn14   O39     1.914   .     S
Zn14   O52     1.914   .     S
Zn14   O27     1.951   .     S
Zn14   O271    1.935   .     S
Zn15   O18     1.936   .     S
Zn15   O22     1.951   .     S
Zn15   O42     1.914   .     S
Zn15   O49     1.914   .     S
Zn16   O21     1.951   .     S
Zn16   O50     1.914   .     S
Zn16   O41     1.914   .     S
Zn16   O521    1.936   .     S
O17    Zn520   1.936   1_545 S
O18    Zn515   1.935   1_545 S
O19    Zn266   1.935   1_455 S
O20    Zn261   1.935   1_455 S
O21    C573    1.273   .     S
O22    C70     1.273   .     S
O23    C71     1.273   .     S
O24    C324    1.273   .     S
O25    C69     1.273   .     A
O26    C574    1.273   .     A
O27    C323    1.273   .     A
O28    C72     1.273   .     A
O29    C325    1.273   1_455 S
O30    C74     1.273   .     S
O31    C579    1.273   1_545 S
O32    C580    1.273   1_545 S
O33    C325    1.272   1_455 S
O34    C74     1.273   .     S
O35    C579    1.273   1_545 S
O36    C580    1.273   1_545 S
O37    C77     1.276   .     A
O38    C78     1.276   .     A
O39    C79     1.276   .     A
O40    C80     1.276   .     A
O41    C81     1.276   .     A
O42    C82     1.276   .     A
O43    C83     1.276   .     A
O44    C84     1.276   .     A
O45    C85     1.276   .     A
O46    C86     1.276   .     A
O47    C87     1.276   .     A
O48    C88     1.276   .     A
O49    C89     1.276   .     A
O50    C90     1.276   .     A
O51    C91     1.276   .     A
O52    C92     1.276   .     A
O53    C87     1.276   .     A
O53    Zn256   1.914   .     S
O54    C88     1.276   .     A
O55    C85     1.276   .     A
O55    Zn510   1.914   .     S
O56    C86     1.276   .     A
O57    C91     1.276   .     A
O58    Zn259   1.914   .     S
O58    C92     1.276   .     A
O59    C89     1.276   .     A
O60    C90     1.276   .     A
O60    Zn505   1.914   .     S
O61    Zn255   1.914   .     S
O61    C79     1.276   .     A
O62    C80     1.276   .     A
O63    C77     1.276   .     A
O64    C78     1.276   .     A
O64    Zn506   1.914   .     S
O65    C83     1.276   .     A
O66    C84     1.276   .     A
O66    Zn260   1.914   .     S
O67    C81     1.276   .     A
O67    Zn509   1.914   .     S
O68    C82     1.276   .     A
C69    C127    1.467   .     S
C69    O525    1.273   1_545 S
C70    O530    1.273   1_545 A
C70    C632    1.466   1_545 S
C71    O279    1.273   1_455 A
C71    C125    1.467   .     S
C72    C126    1.466   .     S
C72    O276    1.273   1_455 S
C73    C131    1.466   .     S
C73    O281    1.273   .     S
C73    O285    1.272   .     S
C74    C132    1.466   .     S
C75    C129    1.466   .     S
C75    O539    1.273   .     S
C75    O535    1.273   .     S
C76    C130    1.467   .     S
C76    O536    1.273   .     S
C76    O540    1.273   .     S
C77    C106    1.422   .     S
C78    C105    1.422   .     S
C79    C104    1.422   .     S
C80    C103    1.422   .     S
C81    C102    1.422   .     S
C82    C101    1.422   .     S
C83    C108    1.422   .     S
C84    C107    1.422   .     S
C85    C98     1.422   .     S
C86    C97     1.422   .     S
C87    C96     1.422   .     S
C88    C95     1.422   .     S
C89    C94     1.422   .     S
C90    C93     1.422   .     S
C91    C100    1.422   .     S
C92    C99     1.422   .     S
C93    C108    1.198   .     T
C94    C107    1.198   .     T
C95    C106    1.198   .     T
C96    C105    1.198   .     T
C97    C104    1.198   .     T
C98    C103    1.198   .     T
C99    C102    1.198   .     T
C100   C101    1.198   .     T
C109   C137    1.404   .     A
C109   C377    1.394   .     A
C109   H173    1.081   .     S
C110   C138    1.404   .     A
C110   C126    1.394   .     A
C110   H174    1.081   .     S
C111   C139    1.404   .     A
C111   H175    1.081   .     S
C111   C127    1.394   .     A
C112   C140    1.404   .     A
C112   C128    1.394   .     A
C112   H176    1.081   .     S
C113   H177    1.081   .     S
C113   C133    1.404   .     A
C113   C125    1.394   .     S
C114   H178    1.081   .     S
C114   C134    1.404   .     A
C114   C378    1.394   .     S
C115   C135    1.404   .     A
C115   H179    1.081   .     S
C115   C631    1.394   .     S
C116   H180    1.081   .     S
C116   C136    1.404   .     A
C116   C632    1.394   1_545 S
C117   C145    1.404   .     A
C117   H181    1.081   .     S
C117   C633    1.394   1_545 S
C118   H182    1.081   .     S
C118   C130    1.394   .     A
C118   C146    1.404   .     A
C119   C147    1.404   .     A
C119   C131    1.394   .     A
C119   H183    1.081   .     S
C120   H184    1.081   .     S
C120   C132    1.394   .     A
C120   C148    1.404   .     A
C121   H185    1.081   .     S
C121   C141    1.404   .     A
C121   C129    1.394   .     A
C122   C142    1.404   .     A
C122   H186    1.081   .     S
C122   C634    1.394   1_545 S
C123   C143    1.404   .     A
C123   H187    1.081   .     S
C123   C383    1.394   1_455 S
C124   H188    1.081   .     S
C124   C144    1.404   .     A
C124   C384    1.394   .     S
C125   C361    1.394   1_455 A
C126   C366    1.394   1_455 S
C127   C619    1.394   1_545 S
C128   C574    1.466   .     S
C128   C620    1.394   .     S
C129   C621    1.394   .     S
C130   C626    1.394   .     S
C131   C375    1.394   .     S
C132   C376    1.394   1_455 S
C133   C157    1.419   .     A
C133   C149    1.420   .     A
C134   C158    1.419   .     A
C134   C402    1.420   .     S
C135   C159    1.419   .     A
C135   C655    1.420   .     A
C136   C160    1.419   .     A
C136   C656    1.420   1_545 S
C137   C161    1.419   .     A
C137   C401    1.420   .     S
C138   C150    1.420   .     A
C138   C162    1.419   .     A
C139   C163    1.419   .     A
C139   C151    1.420   .     S
C140   C152    1.420   .     A
C140   C164    1.419   .     A
C141   C165    1.419   .     A
C141   C153    1.420   .     A
C142   C166    1.419   .     A
C142   C658    1.420   1_545 S
C143   C155    1.420   .     A
C143   C167    1.419   .     A
C144   C168    1.419   .     A
C144   C408    1.420   .     S
C145   C169    1.419   .     A
C145   C657    1.420   1_545 S
C146   C154    1.420   .     A
C146   C170    1.419   .     A
C147   C171    1.419   .     A
C147   C407    1.420   .     S
C148   C172    1.419   .     A
C148   C156    1.420   .     A
C149   C150    1.404   .     A
C149   C389    1.420   1_455 S
C150   C386    1.420   1_455 S
C151   C656    1.404   1_545 A
C151   C639    1.420   1_545 A
C152   C655    1.404   .     A
C152   C640    1.420   .     S
C153   C649    1.420   .     S
C153   C154    1.404   1_556 S
C154   C646    1.420   .     S
C154   C153    1.404   1_554 S
C155   C399    1.420   1_455 S
C155   C156    1.404   1_556 S
C156   C396    1.420   1_455 S
C156   C155    1.404   1_554 S
C157   C189    1.520   .     S
C157   C162    1.415   .     A
C158   C161    1.415   .     A
C158   C193    1.520   .     S
C159   C197    1.520   .     S
C159   C164    1.415   .     A
C160   C163    1.415   .     A
C160   C201    1.520   .     S
C161   C205    1.520   .     S
C162   C209    1.520   .     S
C163   C213    1.520   .     S
C164   C217    1.520   .     S
C165   C221    1.520   .     S
C165   C170    1.415   1_556 S
C166   C225    1.520   .     S
C166   C169    1.415   1_554 S
C167   C229    1.520   .     S
C167   C172    1.415   1_556 S
C168   C233    1.520   .     S
C168   C171    1.415   1_554 S
C169   C237    1.520   .     S
C169   C166    1.415   1_556 S
C170   C241    1.520   .     S
C170   C165    1.415   1_554 S
C171   C245    1.520   .     S
C171   C168    1.415   1_556 S
C172   C249    1.520   .     S
C172   C167    1.415   1_554 S
C189   H192    1.110   .     S
C189   H190    1.110   .     S
C189   H191    1.108   .     S
C193   H195    1.108   .     S
C193   H196    1.110   .     S
C193   H194    1.110   .     S
C197   H200    1.110   .     S
C197   H199    1.110   .     S
C197   H198    1.108   .     S
C201   H202    1.110   .     S
C201   H203    1.110   .     S
C201   H204    1.108   .     S
C205   H206    1.110   .     S
C205   H208    1.110   .     S
C205   H207    1.108   .     S
C209   H212    1.110   .     S
C209   H210    1.110   .     S
C209   H211    1.108   .     S
C213   H216    1.108   .     S
C213   H215    1.110   .     S
C213   H214    1.110   .     S
C217   H220    1.108   .     S
C217   H218    1.110   .     S
C217   H219    1.110   .     S
C221   H222    1.110   .     S
C221   H224    1.110   .     S
C221   H223    1.108   .     S
C225   H227    1.108   .     S
C225   H228    1.110   .     S
C225   H730    1.110   1_545 S
H226   C729    1.110   .     S
C229   H231    1.110   .     S
C229   H230    1.108   .     S
C229   H484    1.110   1_455 S
H232   C481    1.110   .     S
C233   H234    1.108   .     S
C233   H236    1.110   .     S
C233   H487    1.110   .     S
H235   C485    1.110   1_455 S
C237   H238    1.110   .     S
C237   H240    1.110   .     S
C237   H239    1.108   .     S
C241   H243    1.108   .     S
C241   H244    1.110   .     S
C241   H746    1.110   .     S
H242   C745    1.110   1_545 S
C245   H247    1.110   .     S
C245   H248    1.108   .     S
C245   H246    1.110   .     S
C249   H250    1.110   .     S
C249   H251    1.108   .     S
C249   H252    1.110   .     S
Zn253  O315    1.914   .     S
Zn253  O284    1.951   .     S
Zn253  O269    1.935   .     S
Zn253  O816    1.914   1_545 S
Zn254  O311    1.914   .     S
Zn254  O283    1.951   .     S
Zn254  O270    1.935   .     S
Zn254  O820    1.914   1_545 S
Zn255  O271    1.935   .     S
Zn255  O286    1.951   .     S
Zn255  O306    1.914   .     S
Zn256  O314    1.914   .     S
Zn256  O272    1.935   .     S
Zn256  O285    1.951   .     S
Zn257  O308    1.914   .     S
Zn257  O269    1.935   .     S
Zn257  O288    1.951   .     S
Zn257  O823    1.914   1_545 S
Zn258  O270    1.935   .     S
Zn258  O320    1.914   .     S
Zn258  O287    1.951   .     S
Zn258  O811    1.914   1_545 S
Zn259  O282    1.951   .     S
Zn259  O271    1.936   .     S
Zn259  O317    1.914   .     S
Zn260  O281    1.951   .     S
Zn260  O309    1.914   .     S
Zn260  O272    1.936   .     S
Zn261  O296    1.914   .     S
Zn261  O276    1.951   .     S
Zn261  O299    1.914   .     S
Zn261  O20     1.935   1_655 S
Zn262  O300    1.914   .     S
Zn262  O295    1.914   .     S
Zn262  O275    1.951   .     S
Zn262  O271    1.935   .     S
Zn263  O278    1.951   .     S
Zn263  O297    1.914   .     S
Zn263  O290    1.914   .     S
Zn263  O774    1.935   .     S
Zn264  O289    1.914   .     S
Zn264  O269    1.935   .     S
Zn264  O298    1.914   .     S
Zn264  O277    1.951   .     S
Zn265  O292    1.914   .     S
Zn265  O303    1.914   .     S
Zn265  O280    1.951   .     S
Zn265  O272    1.935   .     S
Zn266  O291    1.914   .     S
Zn266  O304    1.914   .     S
Zn266  O279    1.951   .     S
Zn266  O19     1.935   1_655 S
Zn267  O270    1.936   .     S
Zn267  O274    1.951   .     S
Zn267  O294    1.914   .     S
Zn267  O301    1.914   .     S
Zn268  O273    1.951   .     S
Zn268  O302    1.914   .     S
Zn268  O293    1.914   .     S
Zn268  O773    1.936   .     S
O269   Zn772   1.936   1_545 S
O270   Zn767   1.935   1_545 S
O273   C825    1.273   .     S
O274   C322    1.273   .     S
O275   C323    1.273   .     S
O276   C72     1.273   1_655 S
O277   C321    1.273   .     A
O278   C826    1.273   .     A
O279   C71     1.273   1_655 A
O280   C324    1.273   .     A
O282   C326    1.273   .     S
O283   C831    1.273   1_545 S
O284   C832    1.273   1_545 S
O286   C326    1.273   .     S
O287   C831    1.273   1_545 S
O288   C832    1.273   1_545 S
O289   C329    1.276   .     A
O290   C330    1.276   .     A
O291   C331    1.276   .     A
O292   C332    1.276   .     A
O293   C333    1.276   .     A
O294   C334    1.276   .     A
O295   C335    1.276   .     A
O296   C336    1.276   .     A
O297   C337    1.276   .     A
O298   C338    1.276   .     A
O299   C339    1.276   .     A
O300   C340    1.276   .     A
O301   C341    1.276   .     A
O302   C342    1.276   .     A
O303   C343    1.276   .     A
O304   C344    1.276   .     A
O305   C339    1.276   .     A
O305   Zn4     1.914   1_655 S
O306   C340    1.276   .     A
O307   C337    1.276   .     A
O307   Zn762   1.914   .     S
O308   C338    1.276   .     A
O309   C343    1.276   .     A
O310   Zn7     1.914   1_655 S
O310   C344    1.276   .     A
O311   C341    1.276   .     A
O312   C342    1.276   .     A
O312   Zn757   1.914   .     S
O313   Zn3     1.914   1_655 S
O313   C331    1.276   .     A
O314   C332    1.276   .     A
O315   C329    1.276   .     A
O316   C330    1.276   .     A
O316   Zn758   1.914   .     S
O317   C335    1.276   .     A
O318   C336    1.276   .     A
O318   Zn8     1.914   1_655 S
O319   C333    1.276   .     A
O319   Zn761   1.914   .     S
O320   C334    1.276   .     A
C321   C379    1.467   .     S
C321   O777    1.273   1_545 S
C322   O782    1.273   1_545 A
C322   C884    1.466   1_545 S
C323   C377    1.467   .     S
C324   C378    1.466   .     S
C325   C383    1.466   .     S
C325   O29     1.273   1_655 S
C325   O33     1.272   1_655 S
C326   C384    1.466   .     S
C327   C381    1.466   .     S
C327   O791    1.273   .     S
C327   O787    1.273   .     S
C328   C382    1.467   .     S
C328   O788    1.273   .     S
C328   O792    1.273   .     S
C329   C358    1.422   .     S
C330   C357    1.422   .     S
C331   C356    1.422   .     S
C332   C355    1.422   .     S
C333   C354    1.422   .     S
C334   C353    1.422   .     S
C335   C360    1.422   .     S
C336   C359    1.422   .     S
C337   C350    1.422   .     S
C338   C349    1.422   .     S
C339   C348    1.422   .     S
C340   C347    1.422   .     S
C341   C346    1.422   .     S
C342   C345    1.422   .     S
C343   C352    1.422   .     S
C344   C351    1.422   .     S
C345   C360    1.198   .     T
C346   C359    1.198   .     T
C347   C358    1.198   .     T
C348   C357    1.198   .     T
C349   C356    1.198   .     T
C350   C355    1.198   .     T
C351   C354    1.198   .     T
C352   C353    1.198   .     T
C361   C389    1.404   .     A
C361   C125    1.394   1_655 A
C361   H425    1.081   .     S
C362   C390    1.404   .     A
C362   C378    1.394   .     A
C362   H426    1.081   .     S
C363   C391    1.404   .     A
C363   H427    1.081   .     S
C363   C379    1.394   .     A
C364   C392    1.404   .     A
C364   C380    1.394   .     A
C364   H428    1.081   .     S
C365   H429    1.081   .     S
C365   C385    1.404   .     A
C365   C377    1.394   .     S
C366   H430    1.081   .     S
C366   C386    1.404   .     A
C366   C126    1.394   1_655 S
C367   C387    1.404   .     A
C367   H431    1.081   .     S
C367   C883    1.394   .     S
C368   H432    1.081   .     S
C368   C388    1.404   .     A
C368   C884    1.394   1_545 S
C369   C397    1.404   .     A
C369   H433    1.081   .     S
C369   C885    1.394   1_545 S
C370   H434    1.081   .     S
C370   C382    1.394   .     A
C370   C398    1.404   .     A
C371   C399    1.404   .     A
C371   C383    1.394   .     A
C371   H435    1.081   .     S
C372   H436    1.081   .     S
C372   C384    1.394   .     A
C372   C400    1.404   .     A
C373   H437    1.081   .     S
C373   C393    1.404   .     A
C373   C381    1.394   .     A
C374   C394    1.404   .     A
C374   H438    1.081   .     S
C374   C886    1.394   1_545 S
C375   C395    1.404   .     A
C375   H439    1.081   .     S
C376   H440    1.081   .     S
C376   C396    1.404   .     A
C376   C132    1.394   1_655 S
C379   C871    1.394   1_545 S
C380   C826    1.466   .     S
C380   C872    1.394   .     S
C381   C873    1.394   .     S
C382   C878    1.394   .     S
C383   C123    1.394   1_655 S
C385   C409    1.419   .     A
C385   C401    1.420   .     A
C386   C410    1.419   .     A
C386   C150    1.420   1_655 S
C387   C411    1.419   .     A
C387   C907    1.420   .     A
C388   C412    1.419   .     A
C388   C908    1.420   1_545 S
C389   C413    1.419   .     A
C389   C149    1.420   1_655 S
C390   C402    1.420   .     A
C390   C414    1.419   .     A
C391   C415    1.419   .     A
C391   C403    1.420   .     S
C392   C404    1.420   .     A
C392   C416    1.419   .     A
C393   C417    1.419   .     A
C393   C405    1.420   .     A
C394   C418    1.419   .     A
C394   C910    1.420   1_545 S
C395   C407    1.420   .     A
C395   C419    1.419   .     A
C396   C420    1.419   .     A
C396   C156    1.420   1_655 S
C397   C421    1.419   .     A
C397   C909    1.420   1_545 S
C398   C406    1.420   .     A
C398   C422    1.419   .     A
C399   C423    1.419   .     A
C399   C155    1.420   1_655 S
C400   C424    1.419   .     A
C400   C408    1.420   .     A
C401   C402    1.404   .     A
C403   C908    1.404   1_545 A
C403   C891    1.420   1_545 A
C404   C907    1.404   .     A
C404   C892    1.420   .     S
C405   C901    1.420   .     S
C405   C406    1.404   1_556 S
C406   C898    1.420   .     S
C406   C405    1.404   1_554 S
C407   C408    1.404   1_556 S
C408   C407    1.404   1_554 S
C409   C441    1.520   .     S
C409   C414    1.415   .     A
C410   C413    1.415   .     A
C410   C445    1.520   .     S
C411   C449    1.520   .     S
C411   C416    1.415   .     A
C412   C415    1.415   .     A
C412   C453    1.520   .     S
C413   C457    1.520   .     S
C414   C461    1.520   .     S
C415   C465    1.520   .     S
C416   C469    1.520   .     S
C417   C473    1.520   .     S
C417   C422    1.415   1_556 S
C418   C477    1.520   .     S
C418   C421    1.415   1_554 S
C419   C481    1.520   .     S
C419   C424    1.415   1_556 S
C420   C485    1.520   .     S
C420   C423    1.415   1_554 S
C421   C489    1.520   .     S
C421   C418    1.415   1_556 S
C422   C493    1.520   .     S
C422   C417    1.415   1_554 S
C423   C497    1.520   .     S
C423   C420    1.415   1_556 S
C424   C501    1.520   .     S
C424   C419    1.415   1_554 S
C441   H444    1.110   .     S
C441   H442    1.110   .     S
C441   H443    1.108   .     S
C445   H447    1.108   .     S
C445   H448    1.110   .     S
C445   H446    1.110   .     S
C449   H452    1.110   .     S
C449   H451    1.110   .     S
C449   H450    1.108   .     S
C453   H454    1.110   .     S
C453   H455    1.110   .     S
C453   H456    1.108   .     S
C457   H458    1.110   .     S
C457   H460    1.110   .     S
C457   H459    1.108   .     S
C461   H464    1.110   .     S
C461   H462    1.110   .     S
C461   H463    1.108   .     S
C465   H468    1.108   .     S
C465   H467    1.110   .     S
C465   H466    1.110   .     S
C469   H472    1.108   .     S
C469   H470    1.110   .     S
C469   H471    1.110   .     S
C473   H474    1.110   .     S
C473   H476    1.110   .     S
C473   H475    1.108   .     S
C477   H479    1.108   .     S
C477   H480    1.110   .     S
C477   H982    1.110   1_545 S
H478   C981    1.110   .     S
C481   H483    1.110   .     S
C481   H482    1.108   .     S
H484   C229    1.110   1_655 S
C485   H486    1.108   .     S
C485   H488    1.110   .     S
C485   H235    1.110   1_655 S
C489   H490    1.110   .     S
C489   H492    1.110   .     S
C489   H491    1.108   .     S
C493   H495    1.108   .     S
C493   H496    1.110   .     S
C493   H998    1.110   .     S
H494   C997    1.110   1_545 S
C497   H499    1.110   .     S
C497   H500    1.108   .     S
C497   H498    1.110   .     S
C501   H502    1.110   .     S
C501   H503    1.108   .     S
C501   H504    1.110   .     S
Zn505  O567    1.914   .     S
Zn505  O536    1.951   .     S
Zn505  O521    1.935   .     S
Zn506  O563    1.914   .     S
Zn506  O535    1.951   .     S
Zn506  O522    1.935   .     S
Zn507  O523    1.935   .     S
Zn507  O817    1.914   1_455 S
Zn507  O538    1.951   .     S
Zn507  O558    1.914   .     S
Zn508  O566    1.914   .     S
Zn508  O524    1.935   .     S
Zn508  O537    1.951   .     S
Zn508  O809    1.914   1_455 S
Zn509  O560    1.914   .     S
Zn509  O521    1.935   .     S
Zn509  O540    1.951   .     S
Zn510  O522    1.935   .     S
Zn510  O572    1.914   .     S
Zn510  O539    1.951   .     S
Zn511  O814    1.914   1_455 S
Zn511  O534    1.951   .     S
Zn511  O523    1.936   .     S
Zn511  O569    1.914   .     S
Zn512  O533    1.951   .     S
Zn512  O561    1.914   .     S
Zn512  O524    1.936   .     S
Zn512  O822    1.914   1_455 S
Zn513  O548    1.914   .     S
Zn513  O528    1.951   .     S
Zn513  O551    1.914   .     S
Zn513  O776    1.935   .     S
Zn514  O552    1.914   .     S
Zn514  O547    1.914   .     S
Zn514  O527    1.951   .     S
Zn514  O523    1.935   .     S
Zn515  O530    1.951   .     S
Zn515  O549    1.914   .     S
Zn515  O542    1.914   .     S
Zn515  O18     1.935   1_565 S
Zn516  O541    1.914   .     S
Zn516  O521    1.935   .     S
Zn516  O550    1.914   .     S
Zn516  O529    1.951   .     S
Zn517  O544    1.914   .     S
Zn517  O555    1.914   .     S
Zn517  O532    1.951   .     S
Zn517  O524    1.935   .     S
Zn518  O543    1.914   .     S
Zn518  O556    1.914   .     S
Zn518  O531    1.951   .     S
Zn518  O775    1.935   .     S
Zn519  O522    1.936   .     S
Zn519  O526    1.951   .     S
Zn519  O546    1.914   .     S
Zn519  O553    1.914   .     S
Zn520  O525    1.951   .     S
Zn520  O554    1.914   .     S
Zn520  O545    1.914   .     S
Zn520  O17     1.936   1_565 S
O523   Zn770   1.935   1_455 S
O524   Zn765   1.935   1_455 S
O525   C69     1.273   1_565 S
O526   C574    1.273   .     S
O527   C575    1.273   .     S
O528   C828    1.273   .     S
O529   C573    1.273   .     A
O530   C70     1.273   1_565 A
O531   C827    1.273   .     A
O532   C576    1.273   .     A
O533   C829    1.273   1_455 S
O534   C578    1.273   .     S
O537   C829    1.272   1_455 S
O538   C578    1.273   .     S
O541   C581    1.276   .     A
O542   C582    1.276   .     A
O543   C583    1.276   .     A
O544   C584    1.276   .     A
O545   C585    1.276   .     A
O546   C586    1.276   .     A
O547   C587    1.276   .     A
O548   C588    1.276   .     A
O549   C589    1.276   .     A
O550   C590    1.276   .     A
O551   C591    1.276   .     A
O552   C592    1.276   .     A
O553   C593    1.276   .     A
O554   C594    1.276   .     A
O555   C595    1.276   .     A
O556   C596    1.276   .     A
O557   C591    1.276   .     A
O557   Zn760   1.914   .     S
O558   C592    1.276   .     A
O559   C589    1.276   .     A
O559   Zn6     1.914   1_565 S
O560   C590    1.276   .     A
O561   C595    1.276   .     A
O562   Zn763   1.914   .     S
O562   C596    1.276   .     A
O563   C593    1.276   .     A
O564   C594    1.276   .     A
O564   Zn1     1.914   1_565 S
O565   Zn759   1.914   .     S
O565   C583    1.276   .     A
O566   C584    1.276   .     A
O567   C581    1.276   .     A
O568   C582    1.276   .     A
O568   Zn2     1.914   1_565 S
O569   C587    1.276   .     A
O570   C588    1.276   .     A
O570   Zn764   1.914   .     S
O571   C585    1.276   .     A
O571   Zn5     1.914   1_565 S
O572   C586    1.276   .     A
C573   C631    1.467   .     S
C575   O783    1.273   1_455 A
C575   C629    1.467   .     S
C576   C630    1.466   .     S
C576   O780    1.273   1_455 S
C577   C635    1.466   .     S
C577   O785    1.273   .     S
C577   O789    1.272   .     S
C578   C636    1.466   .     S
C579   C633    1.466   .     S
C579   O35     1.273   1_565 S
C579   O31     1.273   1_565 S
C580   C634    1.467   .     S
C580   O32     1.273   1_565 S
C580   O36     1.273   1_565 S
C581   C610    1.422   .     S
C582   C609    1.422   .     S
C583   C608    1.422   .     S
C584   C607    1.422   .     S
C585   C606    1.422   .     S
C586   C605    1.422   .     S
C587   C612    1.422   .     S
C588   C611    1.422   .     S
C589   C602    1.422   .     S
C590   C601    1.422   .     S
C591   C600    1.422   .     S
C592   C599    1.422   .     S
C593   C598    1.422   .     S
C594   C597    1.422   .     S
C595   C604    1.422   .     S
C596   C603    1.422   .     S
C597   C612    1.198   .     T
C598   C611    1.198   .     T
C599   C610    1.198   .     T
C600   C609    1.198   .     T
C601   C608    1.198   .     T
C602   C607    1.198   .     T
C603   C606    1.198   .     T
C604   C605    1.198   .     T
C613   C641    1.404   .     A
C613   C881    1.394   .     A
C613   H677    1.081   .     S
C614   C642    1.404   .     A
C614   C630    1.394   .     A
C614   H678    1.081   .     S
C615   C643    1.404   .     A
C615   H679    1.081   .     S
C615   C631    1.394   .     A
C616   C644    1.404   .     A
C616   C632    1.394   .     A
C616   H680    1.081   .     S
C617   H681    1.081   .     S
C617   C637    1.404   .     A
C617   C629    1.394   .     S
C618   H682    1.081   .     S
C618   C638    1.404   .     A
C618   C882    1.394   .     S
C619   C639    1.404   .     A
C619   H683    1.081   .     S
C619   C127    1.394   1_565 S
C620   H684    1.081   .     S
C620   C640    1.404   .     A
C621   C649    1.404   .     A
C621   H685    1.081   .     S
C622   H686    1.081   .     S
C622   C634    1.394   .     A
C622   C650    1.404   .     A
C623   C651    1.404   .     A
C623   C635    1.394   .     A
C623   H687    1.081   .     S
C624   H688    1.081   .     S
C624   C636    1.394   .     A
C624   C652    1.404   .     A
C625   H689    1.081   .     S
C625   C645    1.404   .     A
C625   C633    1.394   .     A
C626   C646    1.404   .     A
C626   H690    1.081   .     S
C627   C647    1.404   .     A
C627   H691    1.081   .     S
C627   C887    1.394   1_455 S
C628   H692    1.081   .     S
C628   C648    1.404   .     A
C628   C888    1.394   .     S
C629   C865    1.394   1_455 A
C630   C870    1.394   1_455 S
C632   C70     1.466   1_565 S
C632   C116    1.394   1_565 S
C633   C117    1.394   1_565 S
C634   C122    1.394   1_565 S
C635   C879    1.394   .     S
C636   C880    1.394   1_455 S
C637   C661    1.419   .     A
C637   C653    1.420   .     A
C638   C662    1.419   .     A
C638   C906    1.420   .     S
C639   C663    1.419   .     A
C639   C151    1.420   1_565 A
C640   C664    1.419   .     A
C641   C665    1.419   .     A
C641   C905    1.420   .     S
C642   C654    1.420   .     A
C642   C666    1.419   .     A
C643   C667    1.419   .     A
C643   C655    1.420   .     S
C644   C656    1.420   .     A
C644   C668    1.419   .     A
C645   C669    1.419   .     A
C645   C657    1.420   .     A
C646   C670    1.419   .     A
C647   C659    1.420   .     A
C647   C671    1.419   .     A
C648   C672    1.419   .     A
C648   C912    1.420   .     S
C649   C673    1.419   .     A
C650   C658    1.420   .     A
C650   C674    1.419   .     A
C651   C675    1.419   .     A
C651   C911    1.420   .     S
C652   C676    1.419   .     A
C652   C660    1.420   .     A
C653   C654    1.404   .     A
C653   C893    1.420   1_455 S
C654   C890    1.420   1_455 S
C656   C151    1.404   1_565 A
C656   C136    1.420   1_565 S
C657   C145    1.420   1_565 S
C657   C658    1.404   1_556 S
C658   C142    1.420   1_565 S
C658   C657    1.404   1_554 S
C659   C903    1.420   1_455 S
C659   C660    1.404   1_556 S
C660   C900    1.420   1_455 S
C660   C659    1.404   1_554 S
C661   C693    1.520   .     S
C661   C666    1.415   .     A
C662   C665    1.415   .     A
C662   C697    1.520   .     S
C663   C701    1.520   .     S
C663   C668    1.415   .     A
C664   C667    1.415   .     A
C664   C705    1.520   .     S
C665   C709    1.520   .     S
C666   C713    1.520   .     S
C667   C717    1.520   .     S
C668   C721    1.520   .     S
C669   C725    1.520   .     S
C669   C674    1.415   1_556 S
C670   C729    1.520   .     S
C670   C673    1.415   1_554 S
C671   C733    1.520   .     S
C671   C676    1.415   1_556 S
C672   C737    1.520   .     S
C672   C675    1.415   1_554 S
C673   C741    1.520   .     S
C673   C670    1.415   1_556 S
C674   C745    1.520   .     S
C674   C669    1.415   1_554 S
C675   C749    1.520   .     S
C675   C672    1.415   1_556 S
C676   C753    1.520   .     S
C676   C671    1.415   1_554 S
C693   H696    1.110   .     S
C693   H694    1.110   .     S
C693   H695    1.108   .     S
C697   H699    1.108   .     S
C697   H700    1.110   .     S
C697   H698    1.110   .     S
C701   H704    1.110   .     S
C701   H703    1.110   .     S
C701   H702    1.108   .     S
C705   H706    1.110   .     S
C705   H707    1.110   .     S
C705   H708    1.108   .     S
C709   H710    1.110   .     S
C709   H712    1.110   .     S
C709   H711    1.108   .     S
C713   H716    1.110   .     S
C713   H714    1.110   .     S
C713   H715    1.108   .     S
C717   H720    1.108   .     S
C717   H719    1.110   .     S
C717   H718    1.110   .     S
C721   H724    1.108   .     S
C721   H722    1.110   .     S
C721   H723    1.110   .     S
C725   H726    1.110   .     S
C725   H728    1.110   .     S
C725   H727    1.108   .     S
C729   H731    1.108   .     S
C729   H732    1.110   .     S
H730   C225    1.110   1_565 S
C733   H735    1.110   .     S
C733   H734    1.108   .     S
C733   H988    1.110   1_455 S
H736   C985    1.110   .     S
C737   H738    1.108   .     S
C737   H740    1.110   .     S
C737   H991    1.110   .     S
H739   C989    1.110   1_455 S
C741   H742    1.110   .     S
C741   H744    1.110   .     S
C741   H743    1.108   .     S
C745   H747    1.108   .     S
C745   H748    1.110   .     S
C745   H242    1.110   1_565 S
C749   H751    1.110   .     S
C749   H752    1.108   .     S
C749   H750    1.110   .     S
C753   H754    1.110   .     S
C753   H755    1.108   .     S
C753   H756    1.110   .     S
Zn757  O819    1.914   .     S
Zn757  O788    1.951   .     S
Zn757  O773    1.935   .     S
Zn758  O815    1.914   .     S
Zn758  O787    1.951   .     S
Zn758  O774    1.935   .     S
Zn759  O775    1.935   .     S
Zn759  O790    1.951   .     S
Zn759  O810    1.914   .     S
Zn760  O818    1.914   .     S
Zn760  O776    1.935   .     S
Zn760  O789    1.951   .     S
Zn761  O812    1.914   .     S
Zn761  O773    1.935   .     S
Zn761  O792    1.951   .     S
Zn762  O774    1.935   .     S
Zn762  O824    1.914   .     S
Zn762  O791    1.951   .     S
Zn763  O786    1.951   .     S
Zn763  O775    1.936   .     S
Zn763  O821    1.914   .     S
Zn764  O785    1.951   .     S
Zn764  O813    1.914   .     S
Zn764  O776    1.936   .     S
Zn765  O800    1.914   .     S
Zn765  O780    1.951   .     S
Zn765  O803    1.914   .     S
Zn765  O524    1.935   1_655 S
Zn766  O804    1.914   .     S
Zn766  O799    1.914   .     S
Zn766  O779    1.951   .     S
Zn766  O775    1.935   .     S
Zn767  O782    1.951   .     S
Zn767  O801    1.914   .     S
Zn767  O794    1.914   .     S
Zn767  O270    1.935   1_565 S
Zn768  O793    1.914   .     S
Zn768  O773    1.935   .     S
Zn768  O802    1.914   .     S
Zn768  O781    1.951   .     S
Zn769  O796    1.914   .     S
Zn769  O807    1.914   .     S
Zn769  O784    1.951   .     S
Zn769  O776    1.935   .     S
Zn770  O795    1.914   .     S
Zn770  O808    1.914   .     S
Zn770  O783    1.951   .     S
Zn770  O523    1.935   1_655 S
Zn771  O774    1.936   .     S
Zn771  O778    1.951   .     S
Zn771  O798    1.914   .     S
Zn771  O805    1.914   .     S
Zn772  O777    1.951   .     S
Zn772  O806    1.914   .     S
Zn772  O797    1.914   .     S
Zn772  O269    1.936   1_565 S
O777   C321    1.273   1_565 S
O778   C826    1.273   .     S
O779   C827    1.273   .     S
O780   C576    1.273   1_655 S
O781   C825    1.273   .     A
O782   C322    1.273   1_565 A
O783   C575    1.273   1_655 A
O784   C828    1.273   .     A
O786   C830    1.273   .     S
O790   C830    1.273   .     S
O793   C833    1.276   .     A
O794   C834    1.276   .     A
O795   C835    1.276   .     A
O796   C836    1.276   .     A
O797   C837    1.276   .     A
O798   C838    1.276   .     A
O799   C839    1.276   .     A
O800   C840    1.276   .     A
O801   C841    1.276   .     A
O802   C842    1.276   .     A
O803   C843    1.276   .     A
O804   C844    1.276   .     A
O805   C845    1.276   .     A
O806   C846    1.276   .     A
O807   C847    1.276   .     A
O808   C848    1.276   .     A
O809   C843    1.276   .     A
O809   Zn508   1.914   1_655 S
O810   C844    1.276   .     A
O811   C841    1.276   .     A
O811   Zn258   1.914   1_565 S
O812   C842    1.276   .     A
O813   C847    1.276   .     A
O814   Zn511   1.914   1_655 S
O814   C848    1.276   .     A
O815   C845    1.276   .     A
O816   C846    1.276   .     A
O816   Zn253   1.914   1_565 S
O817   Zn507   1.914   1_655 S
O817   C835    1.276   .     A
O818   C836    1.276   .     A
O819   C833    1.276   .     A
O820   C834    1.276   .     A
O820   Zn254   1.914   1_565 S
O821   C839    1.276   .     A
O822   C840    1.276   .     A
O822   Zn512   1.914   1_655 S
O823   C837    1.276   .     A
O823   Zn257   1.914   1_565 S
O824   C838    1.276   .     A
C825   C883    1.467   .     S
C827   C881    1.467   .     S
C828   C882    1.466   .     S
C829   C887    1.466   .     S
C829   O533    1.273   1_655 S
C829   O537    1.272   1_655 S
C830   C888    1.466   .     S
C831   C885    1.466   .     S
C831   O287    1.273   1_565 S
C831   O283    1.273   1_565 S
C832   C886    1.467   .     S
C832   O284    1.273   1_565 S
C832   O288    1.273   1_565 S
C833   C862    1.422   .     S
C834   C861    1.422   .     S
C835   C860    1.422   .     S
C836   C859    1.422   .     S
C837   C858    1.422   .     S
C838   C857    1.422   .     S
C839   C864    1.422   .     S
C840   C863    1.422   .     S
C841   C854    1.422   .     S
C842   C853    1.422   .     S
C843   C852    1.422   .     S
C844   C851    1.422   .     S
C845   C850    1.422   .     S
C846   C849    1.422   .     S
C847   C856    1.422   .     S
C848   C855    1.422   .     S
C849   C864    1.198   .     T
C850   C863    1.198   .     T
C851   C862    1.198   .     T
C852   C861    1.198   .     T
C853   C860    1.198   .     T
C854   C859    1.198   .     T
C855   C858    1.198   .     T
C856   C857    1.198   .     T
C865   C893    1.404   .     A
C865   C629    1.394   1_655 A
C865   H929    1.081   .     S
C866   C894    1.404   .     A
C866   C882    1.394   .     A
C866   H930    1.081   .     S
C867   C895    1.404   .     A
C867   H931    1.081   .     S
C867   C883    1.394   .     A
C868   C896    1.404   .     A
C868   C884    1.394   .     A
C868   H932    1.081   .     S
C869   H933    1.081   .     S
C869   C889    1.404   .     A
C869   C881    1.394   .     S
C870   H934    1.081   .     S
C870   C890    1.404   .     A
C870   C630    1.394   1_655 S
C871   C891    1.404   .     A
C871   H935    1.081   .     S
C871   C379    1.394   1_565 S
C872   H936    1.081   .     S
C872   C892    1.404   .     A
C873   C901    1.404   .     A
C873   H937    1.081   .     S
C874   H938    1.081   .     S
C874   C886    1.394   .     A
C874   C902    1.404   .     A
C875   C903    1.404   .     A
C875   C887    1.394   .     A
C875   H939    1.081   .     S
C876   H940    1.081   .     S
C876   C888    1.394   .     A
C876   C904    1.404   .     A
C877   H941    1.081   .     S
C877   C897    1.404   .     A
C877   C885    1.394   .     A
C878   C898    1.404   .     A
C878   H942    1.081   .     S
C879   C899    1.404   .     A
C879   H943    1.081   .     S
C880   H944    1.081   .     S
C880   C900    1.404   .     A
C880   C636    1.394   1_655 S
C884   C322    1.466   1_565 S
C884   C368    1.394   1_565 S
C885   C369    1.394   1_565 S
C886   C374    1.394   1_565 S
C887   C627    1.394   1_655 S
C889   C913    1.419   .     A
C889   C905    1.420   .     A
C890   C914    1.419   .     A
C890   C654    1.420   1_655 S
C891   C915    1.419   .     A
C891   C403    1.420   1_565 A
C892   C916    1.419   .     A
C893   C917    1.419   .     A
C893   C653    1.420   1_655 S
C894   C906    1.420   .     A
C894   C918    1.419   .     A
C895   C919    1.419   .     A
C895   C907    1.420   .     S
C896   C908    1.420   .     A
C896   C920    1.419   .     A
C897   C921    1.419   .     A
C897   C909    1.420   .     A
C898   C922    1.419   .     A
C899   C911    1.420   .     A
C899   C923    1.419   .     A
C900   C924    1.419   .     A
C900   C660    1.420   1_655 S
C901   C925    1.419   .     A
C902   C910    1.420   .     A
C902   C926    1.419   .     A
C903   C927    1.419   .     A
C903   C659    1.420   1_655 S
C904   C928    1.419   .     A
C904   C912    1.420   .     A
C905   C906    1.404   .     A
C908   C403    1.404   1_565 A
C908   C388    1.420   1_565 S
C909   C397    1.420   1_565 S
C909   C910    1.404   1_556 S
C910   C394    1.420   1_565 S
C910   C909    1.404   1_554 S
C911   C912    1.404   1_556 S
C912   C911    1.404   1_554 S
C913   C945    1.520   .     S
C913   C918    1.415   .     A
C914   C917    1.415   .     A
C914   C949    1.520   .     S
C915   C953    1.520   .     S
C915   C920    1.415   .     A
C916   C919    1.415   .     A
C916   C957    1.520   .     S
C917   C961    1.520   .     S
C918   C965    1.520   .     S
C919   C969    1.520   .     S
C920   C973    1.520   .     S
C921   C977    1.520   .     S
C921   C926    1.415   1_556 S
C922   C981    1.520   .     S
C922   C925    1.415   1_554 S
C923   C985    1.520   .     S
C923   C928    1.415   1_556 S
C924   C989    1.520   .     S
C924   C927    1.415   1_554 S
C925   C993    1.520   .     S
C925   C922    1.415   1_556 S
C926   C997    1.520   .     S
C926   C921    1.415   1_554 S
C927   C1001   1.520   .     S
C927   C924    1.415   1_556 S
C928   C1005   1.520   .     S
C928   C923    1.415   1_554 S
C945   H948    1.110   .     S
C945   H946    1.110   .     S
C945   H947    1.108   .     S
C949   H951    1.108   .     S
C949   H952    1.110   .     S
C949   H950    1.110   .     S
C953   H956    1.110   .     S
C953   H955    1.110   .     S
C953   H954    1.108   .     S
C957   H958    1.110   .     S
C957   H959    1.110   .     S
C957   H960    1.108   .     S
C961   H962    1.110   .     S
C961   H964    1.110   .     S
C961   H963    1.108   .     S
C965   H968    1.110   .     S
C965   H966    1.110   .     S
C965   H967    1.108   .     S
C969   H972    1.108   .     S
C969   H971    1.110   .     S
C969   H970    1.110   .     S
C973   H976    1.108   .     S
C973   H974    1.110   .     S
C973   H975    1.110   .     S
C977   H978    1.110   .     S
C977   H980    1.110   .     S
C977   H979    1.108   .     S
C981   H983    1.108   .     S
C981   H984    1.110   .     S
H982   C477    1.110   1_565 S
C985   H987    1.110   .     S
C985   H986    1.108   .     S
H988   C733    1.110   1_655 S
C989   H990    1.108   .     S
C989   H992    1.110   .     S
C989   H739    1.110   1_655 S
C993   H994    1.110   .     S
C993   H996    1.110   .     S
C993   H995    1.108   .     S
C997   H999    1.108   .     S
C997   H1000   1.110   .     S
C997   H494    1.110   1_565 S
C1001  H1003   1.110   .     S
C1001  H1004   1.108   .     S
C1001  H1002   1.110   .     S
C1005  H1006   1.110   .     S
C1005  H1007   1.108   .     S
C1005  H1008   1.110   .     S
