data_str_m3_o1_o17_pcu_sym.63
_audit_creation_date              2020-01-03
_audit_creation_method            'Materials Studio'
_symmetry_space_group_name_H-M    'P1'
_symmetry_Int_Tables_number       1
_symmetry_cell_setting            triclinic
loop_
_symmetry_equiv_pos_as_xyz
  x,y,z
_cell_length_a                    32.0872
_cell_length_b                    29.5359
_cell_length_c                    29.8406
_cell_angle_alpha                 90.0577
_cell_angle_beta                  90.3884
_cell_angle_gamma                 90.0496
loop_
_atom_site_label
_atom_site_type_symbol
_atom_site_fract_x
_atom_site_fract_y
_atom_site_fract_z
_atom_site_U_iso_or_equiv
_atom_site_adp_type
_atom_site_occupancy
O1     O     0.10559   0.20487   0.24999   0.00000  Uiso   1.00
O2     O     0.22774   0.12846   0.25000   0.00000  Uiso   1.00
O3     O     0.22774   0.20487   0.25000   0.00000  Uiso   1.00
O4     O     0.10559   0.12846   0.24999   0.00000  Uiso   1.00
C5     C     0.08665   0.16664   0.25038   0.00000  Uiso   1.00
C6     C     0.24669   0.16670   0.24962   0.00000  Uiso   1.00
O7     O     0.16666   0.20489   0.18392   0.00000  Uiso   1.00
O8     O     0.16667   0.12844   0.31607   0.00000  Uiso   1.00
O9     O     0.16667   0.20489   0.31607   0.00000  Uiso   1.00
O10    O     0.16666   0.12844   0.18392   0.00000  Uiso   1.00
C11    C     0.16567   0.16664   0.16355   0.00000  Uiso   1.00
C12    C     0.16766   0.16669   0.33645   0.00000  Uiso   1.00
Zn13   Zn    0.16667   0.21771   0.25000   0.00000  Uiso   1.00
Zn14   Zn    0.16667   0.11563   0.25000   0.00000  Uiso   1.00
C15    C     0.20690   0.16133   0.40720   0.00000  Uiso   1.00
C16    C     0.12644   0.17200   0.09280   0.00000  Uiso   1.00
C17    C     0.16906   0.16691   0.38409   0.00000  Uiso   1.00
C18    C     0.16428   0.16642   0.11591   0.00000  Uiso   1.00
C19    C     0.13145   0.17193   0.40583   0.00000  Uiso   1.00
C20    C     0.20188   0.16140   0.09417   0.00000  Uiso   1.00
C21    C     0.13025   0.16981   0.45188   0.00000  Uiso   1.00
C22    C     0.20309   0.16352   0.04812   0.00000  Uiso   1.00
C23    C     0.16771   0.16721   0.47658   0.00000  Uiso   1.00
C24    C     0.16562   0.16612   0.02342   0.00000  Uiso   1.00
C25    C     0.20706   0.16578   0.45439   0.00000  Uiso   1.00
C26    C     0.12627   0.16755   0.04561   0.00000  Uiso   1.00
C27    C     0.09174   0.16841   0.47303   0.00000  Uiso   1.00
C28    C     0.24159   0.16492   0.02697   0.00000  Uiso   1.00
C29    C     0.08911   0.16480   0.01943   0.00000  Uiso   1.00
C30    C     0.24422   0.16852   0.48057   0.00000  Uiso   1.00
H31    H     0.10279   0.17506   0.38648   0.00000  Uiso   1.00
H32    H     0.23055   0.15827   0.11352   0.00000  Uiso   1.00
H33    H     0.06338   0.16787   0.45297   0.00000  Uiso   1.00
H34    H     0.26995   0.16546   0.04703   0.00000  Uiso   1.00
C35    C     0.02126   0.12696   0.23872   0.00000  Uiso   1.00
C36    C     0.31207   0.20638   0.26127   0.00000  Uiso   1.00
C37    C     0.31192   0.12705   0.23829   0.00000  Uiso   1.00
C38    C     0.02141   0.20629   0.26171   0.00000  Uiso   1.00
H39    H     0.03751   0.09620   0.22952   0.00000  Uiso   1.00
H40    H     0.29583   0.23713   0.27048   0.00000  Uiso   1.00
H41    H     0.29554   0.09633   0.22890   0.00000  Uiso   1.00
H42    H     0.03779   0.23701   0.27110   0.00000  Uiso   1.00
C43    C     0.29084   0.16675   0.24957   0.00000  Uiso   1.00
C44    C     0.04250   0.16658   0.25042   0.00000  Uiso   1.00
C45    C     0.19387   0.02403   0.27655   0.00000  Uiso   1.00
C46    C     0.13946   0.30930   0.22345   0.00000  Uiso   1.00
C47    C     0.13946   0.02393   0.22345   0.00000  Uiso   1.00
C48    C     0.19387   0.30941   0.27655   0.00000  Uiso   1.00
H49    H     0.21562   0.04224   0.29779   0.00000  Uiso   1.00
H50    H     0.11772   0.29109   0.20221   0.00000  Uiso   1.00
H51    H     0.11771   0.04205   0.20222   0.00000  Uiso   1.00
H52    H     0.21562   0.29128   0.29778   0.00000  Uiso   1.00
N53    N     0.16667   0.28573   0.25000   0.00000  Uiso   1.00
N54    N     0.16667   0.04760   0.25000   0.00000  Uiso   1.00
I55    I     0.25885   0.13619   0.36918   0.00000  Uiso   1.00
I56    I     0.07449   0.19715   0.13082   0.00000  Uiso   1.00
C57    C     0.04716   0.15156   0.03782   0.00000  Uiso   1.00
H58    H     0.02851   0.13269   0.01244   0.00000  Uiso   1.00
H59    H     0.05072   0.12813   0.06662   0.00000  Uiso   1.00
H60    H     0.02920   0.18222   0.04704   0.00000  Uiso   1.00
C61    C     0.28618   0.18176   0.46218   0.00000  Uiso   1.00
H62    H     0.30484   0.20062   0.48757   0.00000  Uiso   1.00
H63    H     0.30413   0.15110   0.45295   0.00000  Uiso   1.00
H64    H     0.28262   0.20520   0.43339   0.00000  Uiso   1.00
O65    O     0.43892   0.20487   0.24999   0.00000  Uiso   1.00
O66    O     0.56108   0.12846   0.25000   0.00000  Uiso   1.00
O67    O     0.56108   0.20487   0.25000   0.00000  Uiso   1.00
O68    O     0.43892   0.12846   0.24999   0.00000  Uiso   1.00
C69    C     0.41998   0.16664   0.25038   0.00000  Uiso   1.00
C70    C     0.58002   0.16670   0.24962   0.00000  Uiso   1.00
O71    O     0.49999   0.20489   0.18392   0.00000  Uiso   1.00
O72    O     0.50001   0.12844   0.31607   0.00000  Uiso   1.00
O73    O     0.50001   0.20489   0.31607   0.00000  Uiso   1.00
O74    O     0.49999   0.12844   0.18392   0.00000  Uiso   1.00
C75    C     0.49901   0.16664   0.16355   0.00000  Uiso   1.00
C76    C     0.50099   0.16669   0.33645   0.00000  Uiso   1.00
Zn77   Zn    0.50000   0.21771   0.25000   0.00000  Uiso   1.00
Zn78   Zn    0.50000   0.11563   0.25000   0.00000  Uiso   1.00
C79    C     0.54023   0.16133   0.40720   0.00000  Uiso   1.00
C80    C     0.45977   0.17200   0.09280   0.00000  Uiso   1.00
C81    C     0.50239   0.16691   0.38409   0.00000  Uiso   1.00
C82    C     0.49761   0.16642   0.11591   0.00000  Uiso   1.00
C83    C     0.46478   0.17193   0.40583   0.00000  Uiso   1.00
C84    C     0.53522   0.16140   0.09417   0.00000  Uiso   1.00
C85    C     0.46358   0.16981   0.45188   0.00000  Uiso   1.00
C86    C     0.53642   0.16352   0.04812   0.00000  Uiso   1.00
C87    C     0.50105   0.16721   0.47658   0.00000  Uiso   1.00
C88    C     0.49896   0.16612   0.02342   0.00000  Uiso   1.00
C89    C     0.54040   0.16578   0.45439   0.00000  Uiso   1.00
C90    C     0.45961   0.16755   0.04561   0.00000  Uiso   1.00
C91    C     0.42507   0.16841   0.47303   0.00000  Uiso   1.00
C92    C     0.57493   0.16492   0.02697   0.00000  Uiso   1.00
C93    C     0.42245   0.16480   0.01943   0.00000  Uiso   1.00
C94    C     0.57755   0.16852   0.48057   0.00000  Uiso   1.00
H95    H     0.43612   0.17506   0.38648   0.00000  Uiso   1.00
H96    H     0.56388   0.15827   0.11352   0.00000  Uiso   1.00
H97    H     0.39672   0.16787   0.45297   0.00000  Uiso   1.00
H98    H     0.60329   0.16546   0.04703   0.00000  Uiso   1.00
C99    C     0.35459   0.12696   0.23872   0.00000  Uiso   1.00
C100   C     0.64541   0.20638   0.26127   0.00000  Uiso   1.00
C101   C     0.64525   0.12705   0.23829   0.00000  Uiso   1.00
C102   C     0.35475   0.20629   0.26171   0.00000  Uiso   1.00
H103   H     0.37084   0.09620   0.22952   0.00000  Uiso   1.00
H104   H     0.62916   0.23713   0.27048   0.00000  Uiso   1.00
H105   H     0.62888   0.09633   0.22890   0.00000  Uiso   1.00
H106   H     0.37112   0.23701   0.27110   0.00000  Uiso   1.00
C107   C     0.62417   0.16675   0.24957   0.00000  Uiso   1.00
C108   C     0.37583   0.16658   0.25042   0.00000  Uiso   1.00
C109   C     0.52720   0.02403   0.27655   0.00000  Uiso   1.00
C110   C     0.47280   0.30930   0.22345   0.00000  Uiso   1.00
C111   C     0.47280   0.02393   0.22345   0.00000  Uiso   1.00
C112   C     0.52720   0.30941   0.27655   0.00000  Uiso   1.00
H113   H     0.54895   0.04224   0.29779   0.00000  Uiso   1.00
H114   H     0.45105   0.29109   0.20221   0.00000  Uiso   1.00
H115   H     0.45104   0.04205   0.20222   0.00000  Uiso   1.00
H116   H     0.54896   0.29128   0.29778   0.00000  Uiso   1.00
N117   N     0.50000   0.28573   0.25000   0.00000  Uiso   1.00
N118   N     0.50000   0.04760   0.25000   0.00000  Uiso   1.00
I119   I     0.59218   0.13619   0.36918   0.00000  Uiso   1.00
I120   I     0.40782   0.19715   0.13082   0.00000  Uiso   1.00
C121   C     0.38049   0.15156   0.03782   0.00000  Uiso   1.00
H122   H     0.36184   0.13269   0.01244   0.00000  Uiso   1.00
H123   H     0.38405   0.12813   0.06662   0.00000  Uiso   1.00
H124   H     0.36253   0.18222   0.04704   0.00000  Uiso   1.00
C125   C     0.61951   0.18176   0.46218   0.00000  Uiso   1.00
H126   H     0.63817   0.20062   0.48757   0.00000  Uiso   1.00
H127   H     0.63747   0.15110   0.45295   0.00000  Uiso   1.00
H128   H     0.61596   0.20520   0.43339   0.00000  Uiso   1.00
O129   O     0.77226   0.20487   0.24999   0.00000  Uiso   1.00
O130   O     0.89441   0.12846   0.25000   0.00000  Uiso   1.00
O131   O     0.89441   0.20487   0.25000   0.00000  Uiso   1.00
O132   O     0.77226   0.12846   0.24999   0.00000  Uiso   1.00
C133   C     0.75331   0.16664   0.25038   0.00000  Uiso   1.00
C134   C     0.91335   0.16670   0.24962   0.00000  Uiso   1.00
O135   O     0.83333   0.20489   0.18392   0.00000  Uiso   1.00
O136   O     0.83334   0.12844   0.31607   0.00000  Uiso   1.00
O137   O     0.83334   0.20489   0.31607   0.00000  Uiso   1.00
O138   O     0.83333   0.12844   0.18392   0.00000  Uiso   1.00
C139   C     0.83234   0.16664   0.16355   0.00000  Uiso   1.00
C140   C     0.83433   0.16669   0.33645   0.00000  Uiso   1.00
Zn141  Zn    0.83333   0.21771   0.25000   0.00000  Uiso   1.00
Zn142  Zn    0.83333   0.11563   0.25000   0.00000  Uiso   1.00
C143   C     0.87356   0.16133   0.40720   0.00000  Uiso   1.00
C144   C     0.79310   0.17200   0.09280   0.00000  Uiso   1.00
C145   C     0.83572   0.16691   0.38409   0.00000  Uiso   1.00
C146   C     0.83095   0.16642   0.11591   0.00000  Uiso   1.00
C147   C     0.79812   0.17193   0.40583   0.00000  Uiso   1.00
C148   C     0.86855   0.16140   0.09417   0.00000  Uiso   1.00
C149   C     0.79691   0.16981   0.45188   0.00000  Uiso   1.00
C150   C     0.86976   0.16352   0.04812   0.00000  Uiso   1.00
C151   C     0.83438   0.16721   0.47658   0.00000  Uiso   1.00
C152   C     0.83229   0.16612   0.02342   0.00000  Uiso   1.00
C153   C     0.87373   0.16578   0.45439   0.00000  Uiso   1.00
C154   C     0.79294   0.16755   0.04561   0.00000  Uiso   1.00
C155   C     0.75841   0.16841   0.47303   0.00000  Uiso   1.00
C156   C     0.90826   0.16492   0.02697   0.00000  Uiso   1.00
C157   C     0.75578   0.16480   0.01943   0.00000  Uiso   1.00
C158   C     0.91089   0.16852   0.48057   0.00000  Uiso   1.00
H159   H     0.76945   0.17506   0.38648   0.00000  Uiso   1.00
H160   H     0.89721   0.15827   0.11352   0.00000  Uiso   1.00
H161   H     0.73005   0.16787   0.45297   0.00000  Uiso   1.00
H162   H     0.93662   0.16546   0.04703   0.00000  Uiso   1.00
C163   C     0.68793   0.12696   0.23872   0.00000  Uiso   1.00
C164   C     0.97874   0.20638   0.26127   0.00000  Uiso   1.00
C165   C     0.97859   0.12705   0.23829   0.00000  Uiso   1.00
C166   C     0.68808   0.20629   0.26171   0.00000  Uiso   1.00
H167   H     0.70417   0.09620   0.22952   0.00000  Uiso   1.00
H168   H     0.96249   0.23713   0.27048   0.00000  Uiso   1.00
H169   H     0.96221   0.09633   0.22890   0.00000  Uiso   1.00
H170   H     0.70446   0.23701   0.27110   0.00000  Uiso   1.00
C171   C     0.95750   0.16675   0.24957   0.00000  Uiso   1.00
C172   C     0.70916   0.16658   0.25042   0.00000  Uiso   1.00
C173   C     0.86054   0.02403   0.27655   0.00000  Uiso   1.00
C174   C     0.80613   0.30930   0.22345   0.00000  Uiso   1.00
C175   C     0.80613   0.02393   0.22345   0.00000  Uiso   1.00
C176   C     0.86054   0.30941   0.27655   0.00000  Uiso   1.00
H177   H     0.88228   0.04224   0.29779   0.00000  Uiso   1.00
H178   H     0.78438   0.29109   0.20221   0.00000  Uiso   1.00
H179   H     0.78438   0.04205   0.20222   0.00000  Uiso   1.00
H180   H     0.88229   0.29128   0.29778   0.00000  Uiso   1.00
N181   N     0.83333   0.28573   0.25000   0.00000  Uiso   1.00
N182   N     0.83333   0.04760   0.25000   0.00000  Uiso   1.00
I183   I     0.92552   0.13619   0.36918   0.00000  Uiso   1.00
I184   I     0.74115   0.19715   0.13082   0.00000  Uiso   1.00
C185   C     0.71383   0.15156   0.03782   0.00000  Uiso   1.00
H186   H     0.69517   0.13269   0.01244   0.00000  Uiso   1.00
H187   H     0.71738   0.12813   0.06662   0.00000  Uiso   1.00
H188   H     0.69586   0.18222   0.04704   0.00000  Uiso   1.00
C189   C     0.95285   0.18176   0.46218   0.00000  Uiso   1.00
H190   H     0.97151   0.20062   0.48757   0.00000  Uiso   1.00
H191   H     0.97080   0.15110   0.45295   0.00000  Uiso   1.00
H192   H     0.94929   0.20520   0.43339   0.00000  Uiso   1.00
O193   O     0.10559   0.53821   0.24999   0.00000  Uiso   1.00
O194   O     0.22774   0.46179   0.25000   0.00000  Uiso   1.00
O195   O     0.22774   0.53821   0.25000   0.00000  Uiso   1.00
O196   O     0.10559   0.46179   0.24999   0.00000  Uiso   1.00
C197   C     0.08665   0.49997   0.25038   0.00000  Uiso   1.00
C198   C     0.24669   0.50003   0.24962   0.00000  Uiso   1.00
O199   O     0.16666   0.53823   0.18392   0.00000  Uiso   1.00
O200   O     0.16667   0.46177   0.31607   0.00000  Uiso   1.00
O201   O     0.16667   0.53823   0.31607   0.00000  Uiso   1.00
O202   O     0.16666   0.46177   0.18392   0.00000  Uiso   1.00
C203   C     0.16567   0.49997   0.16355   0.00000  Uiso   1.00
C204   C     0.16766   0.50003   0.33645   0.00000  Uiso   1.00
Zn205  Zn    0.16667   0.55104   0.25000   0.00000  Uiso   1.00
Zn206  Zn    0.16667   0.44896   0.25000   0.00000  Uiso   1.00
C207   C     0.20690   0.49467   0.40720   0.00000  Uiso   1.00
C208   C     0.12644   0.50533   0.09280   0.00000  Uiso   1.00
C209   C     0.16906   0.50024   0.38409   0.00000  Uiso   1.00
C210   C     0.16428   0.49976   0.11591   0.00000  Uiso   1.00
C211   C     0.13145   0.50526   0.40583   0.00000  Uiso   1.00
C212   C     0.20188   0.49474   0.09417   0.00000  Uiso   1.00
C213   C     0.13025   0.50314   0.45188   0.00000  Uiso   1.00
C214   C     0.20309   0.49685   0.04812   0.00000  Uiso   1.00
C215   C     0.16771   0.50054   0.47658   0.00000  Uiso   1.00
C216   C     0.16562   0.49945   0.02342   0.00000  Uiso   1.00
C217   C     0.20706   0.49911   0.45439   0.00000  Uiso   1.00
C218   C     0.12627   0.50088   0.04561   0.00000  Uiso   1.00
C219   C     0.09174   0.50175   0.47303   0.00000  Uiso   1.00
C220   C     0.24159   0.49825   0.02697   0.00000  Uiso   1.00
C221   C     0.08911   0.49814   0.01943   0.00000  Uiso   1.00
C222   C     0.24422   0.50186   0.48057   0.00000  Uiso   1.00
H223   H     0.10279   0.50840   0.38648   0.00000  Uiso   1.00
H224   H     0.23055   0.49160   0.11352   0.00000  Uiso   1.00
H225   H     0.06338   0.50120   0.45297   0.00000  Uiso   1.00
H226   H     0.26995   0.49879   0.04703   0.00000  Uiso   1.00
C227   C     0.02126   0.46029   0.23872   0.00000  Uiso   1.00
C228   C     0.31207   0.53971   0.26127   0.00000  Uiso   1.00
C229   C     0.31192   0.46038   0.23829   0.00000  Uiso   1.00
C230   C     0.02141   0.53962   0.26171   0.00000  Uiso   1.00
H231   H     0.03751   0.42953   0.22952   0.00000  Uiso   1.00
H232   H     0.29583   0.57047   0.27048   0.00000  Uiso   1.00
H233   H     0.29554   0.42966   0.22890   0.00000  Uiso   1.00
H234   H     0.03779   0.57034   0.27110   0.00000  Uiso   1.00
C235   C     0.29084   0.50008   0.24957   0.00000  Uiso   1.00
C236   C     0.04250   0.49992   0.25042   0.00000  Uiso   1.00
C237   C     0.19387   0.35737   0.27655   0.00000  Uiso   1.00
C238   C     0.13946   0.64263   0.22345   0.00000  Uiso   1.00
C239   C     0.13946   0.35726   0.22345   0.00000  Uiso   1.00
C240   C     0.19387   0.64274   0.27655   0.00000  Uiso   1.00
H241   H     0.21562   0.37558   0.29779   0.00000  Uiso   1.00
H242   H     0.11772   0.62442   0.20221   0.00000  Uiso   1.00
H243   H     0.11771   0.37538   0.20222   0.00000  Uiso   1.00
H244   H     0.21562   0.62462   0.29778   0.00000  Uiso   1.00
N245   N     0.16667   0.61907   0.25000   0.00000  Uiso   1.00
N246   N     0.16667   0.38093   0.25000   0.00000  Uiso   1.00
I247   I     0.25885   0.46952   0.36918   0.00000  Uiso   1.00
I248   I     0.07449   0.53048   0.13082   0.00000  Uiso   1.00
C249   C     0.04716   0.48490   0.03782   0.00000  Uiso   1.00
H250   H     0.02851   0.46602   0.01244   0.00000  Uiso   1.00
H251   H     0.05072   0.46146   0.06662   0.00000  Uiso   1.00
H252   H     0.02920   0.51555   0.04704   0.00000  Uiso   1.00
C253   C     0.28618   0.51509   0.46218   0.00000  Uiso   1.00
H254   H     0.30484   0.53395   0.48757   0.00000  Uiso   1.00
H255   H     0.30413   0.48443   0.45295   0.00000  Uiso   1.00
H256   H     0.28262   0.53854   0.43339   0.00000  Uiso   1.00
O257   O     0.43892   0.53821   0.24999   0.00000  Uiso   1.00
O258   O     0.56108   0.46179   0.25000   0.00000  Uiso   1.00
O259   O     0.56108   0.53821   0.25000   0.00000  Uiso   1.00
O260   O     0.43892   0.46179   0.24999   0.00000  Uiso   1.00
C261   C     0.41998   0.49997   0.25038   0.00000  Uiso   1.00
C262   C     0.58002   0.50003   0.24962   0.00000  Uiso   1.00
O263   O     0.49999   0.53823   0.18392   0.00000  Uiso   1.00
O264   O     0.50001   0.46177   0.31607   0.00000  Uiso   1.00
O265   O     0.50001   0.53823   0.31607   0.00000  Uiso   1.00
O266   O     0.49999   0.46177   0.18392   0.00000  Uiso   1.00
C267   C     0.49901   0.49997   0.16355   0.00000  Uiso   1.00
C268   C     0.50099   0.50003   0.33645   0.00000  Uiso   1.00
Zn269  Zn    0.50000   0.55104   0.25000   0.00000  Uiso   1.00
Zn270  Zn    0.50000   0.44896   0.25000   0.00000  Uiso   1.00
C271   C     0.54023   0.49467   0.40720   0.00000  Uiso   1.00
C272   C     0.45977   0.50533   0.09280   0.00000  Uiso   1.00
C273   C     0.50239   0.50024   0.38409   0.00000  Uiso   1.00
C274   C     0.49761   0.49976   0.11591   0.00000  Uiso   1.00
C275   C     0.46478   0.50526   0.40583   0.00000  Uiso   1.00
C276   C     0.53522   0.49474   0.09417   0.00000  Uiso   1.00
C277   C     0.46358   0.50314   0.45188   0.00000  Uiso   1.00
C278   C     0.53642   0.49685   0.04812   0.00000  Uiso   1.00
C279   C     0.50105   0.50054   0.47658   0.00000  Uiso   1.00
C280   C     0.49896   0.49945   0.02342   0.00000  Uiso   1.00
C281   C     0.54040   0.49911   0.45439   0.00000  Uiso   1.00
C282   C     0.45961   0.50088   0.04561   0.00000  Uiso   1.00
C283   C     0.42507   0.50175   0.47303   0.00000  Uiso   1.00
C284   C     0.57493   0.49825   0.02697   0.00000  Uiso   1.00
C285   C     0.42245   0.49814   0.01943   0.00000  Uiso   1.00
C286   C     0.57755   0.50186   0.48057   0.00000  Uiso   1.00
H287   H     0.43612   0.50840   0.38648   0.00000  Uiso   1.00
H288   H     0.56388   0.49160   0.11352   0.00000  Uiso   1.00
H289   H     0.39672   0.50120   0.45297   0.00000  Uiso   1.00
H290   H     0.60329   0.49879   0.04703   0.00000  Uiso   1.00
C291   C     0.35459   0.46029   0.23872   0.00000  Uiso   1.00
C292   C     0.64541   0.53971   0.26127   0.00000  Uiso   1.00
C293   C     0.64525   0.46038   0.23829   0.00000  Uiso   1.00
C294   C     0.35475   0.53962   0.26171   0.00000  Uiso   1.00
H295   H     0.37084   0.42953   0.22952   0.00000  Uiso   1.00
H296   H     0.62916   0.57047   0.27048   0.00000  Uiso   1.00
H297   H     0.62888   0.42966   0.22890   0.00000  Uiso   1.00
H298   H     0.37112   0.57034   0.27110   0.00000  Uiso   1.00
C299   C     0.62417   0.50008   0.24957   0.00000  Uiso   1.00
C300   C     0.37583   0.49992   0.25042   0.00000  Uiso   1.00
C301   C     0.52720   0.35737   0.27655   0.00000  Uiso   1.00
C302   C     0.47280   0.64263   0.22345   0.00000  Uiso   1.00
C303   C     0.47280   0.35726   0.22345   0.00000  Uiso   1.00
C304   C     0.52720   0.64274   0.27655   0.00000  Uiso   1.00
H305   H     0.54895   0.37558   0.29779   0.00000  Uiso   1.00
H306   H     0.45105   0.62442   0.20221   0.00000  Uiso   1.00
H307   H     0.45104   0.37538   0.20222   0.00000  Uiso   1.00
H308   H     0.54896   0.62462   0.29778   0.00000  Uiso   1.00
N309   N     0.50000   0.61907   0.25000   0.00000  Uiso   1.00
N310   N     0.50000   0.38093   0.25000   0.00000  Uiso   1.00
I311   I     0.59218   0.46952   0.36918   0.00000  Uiso   1.00
I312   I     0.40782   0.53048   0.13082   0.00000  Uiso   1.00
C313   C     0.38049   0.48490   0.03782   0.00000  Uiso   1.00
H314   H     0.36184   0.46602   0.01244   0.00000  Uiso   1.00
H315   H     0.38405   0.46146   0.06662   0.00000  Uiso   1.00
H316   H     0.36253   0.51555   0.04704   0.00000  Uiso   1.00
C317   C     0.61951   0.51509   0.46218   0.00000  Uiso   1.00
H318   H     0.63817   0.53395   0.48757   0.00000  Uiso   1.00
H319   H     0.63747   0.48443   0.45295   0.00000  Uiso   1.00
H320   H     0.61596   0.53854   0.43339   0.00000  Uiso   1.00
O321   O     0.77226   0.53821   0.24999   0.00000  Uiso   1.00
O322   O     0.89441   0.46179   0.25000   0.00000  Uiso   1.00
O323   O     0.89441   0.53821   0.25000   0.00000  Uiso   1.00
O324   O     0.77226   0.46179   0.24999   0.00000  Uiso   1.00
C325   C     0.75331   0.49997   0.25038   0.00000  Uiso   1.00
C326   C     0.91335   0.50003   0.24962   0.00000  Uiso   1.00
O327   O     0.83333   0.53823   0.18392   0.00000  Uiso   1.00
O328   O     0.83334   0.46177   0.31607   0.00000  Uiso   1.00
O329   O     0.83334   0.53823   0.31607   0.00000  Uiso   1.00
O330   O     0.83333   0.46177   0.18392   0.00000  Uiso   1.00
C331   C     0.83234   0.49997   0.16355   0.00000  Uiso   1.00
C332   C     0.83433   0.50003   0.33645   0.00000  Uiso   1.00
Zn333  Zn    0.83333   0.55104   0.25000   0.00000  Uiso   1.00
Zn334  Zn    0.83333   0.44896   0.25000   0.00000  Uiso   1.00
C335   C     0.87356   0.49467   0.40720   0.00000  Uiso   1.00
C336   C     0.79310   0.50533   0.09280   0.00000  Uiso   1.00
C337   C     0.83572   0.50024   0.38409   0.00000  Uiso   1.00
C338   C     0.83095   0.49976   0.11591   0.00000  Uiso   1.00
C339   C     0.79812   0.50526   0.40583   0.00000  Uiso   1.00
C340   C     0.86855   0.49474   0.09417   0.00000  Uiso   1.00
C341   C     0.79691   0.50314   0.45188   0.00000  Uiso   1.00
C342   C     0.86976   0.49685   0.04812   0.00000  Uiso   1.00
C343   C     0.83438   0.50054   0.47658   0.00000  Uiso   1.00
C344   C     0.83229   0.49945   0.02342   0.00000  Uiso   1.00
C345   C     0.87373   0.49911   0.45439   0.00000  Uiso   1.00
C346   C     0.79294   0.50088   0.04561   0.00000  Uiso   1.00
C347   C     0.75841   0.50175   0.47303   0.00000  Uiso   1.00
C348   C     0.90826   0.49825   0.02697   0.00000  Uiso   1.00
C349   C     0.75578   0.49814   0.01943   0.00000  Uiso   1.00
C350   C     0.91089   0.50186   0.48057   0.00000  Uiso   1.00
H351   H     0.76945   0.50840   0.38648   0.00000  Uiso   1.00
H352   H     0.89721   0.49160   0.11352   0.00000  Uiso   1.00
H353   H     0.73005   0.50120   0.45297   0.00000  Uiso   1.00
H354   H     0.93662   0.49879   0.04703   0.00000  Uiso   1.00
C355   C     0.68793   0.46029   0.23872   0.00000  Uiso   1.00
C356   C     0.97874   0.53971   0.26127   0.00000  Uiso   1.00
C357   C     0.97859   0.46038   0.23829   0.00000  Uiso   1.00
C358   C     0.68808   0.53962   0.26171   0.00000  Uiso   1.00
H359   H     0.70417   0.42953   0.22952   0.00000  Uiso   1.00
H360   H     0.96249   0.57047   0.27048   0.00000  Uiso   1.00
H361   H     0.96221   0.42966   0.22890   0.00000  Uiso   1.00
H362   H     0.70446   0.57034   0.27110   0.00000  Uiso   1.00
C363   C     0.95750   0.50008   0.24957   0.00000  Uiso   1.00
C364   C     0.70916   0.49992   0.25042   0.00000  Uiso   1.00
C365   C     0.86054   0.35737   0.27655   0.00000  Uiso   1.00
C366   C     0.80613   0.64263   0.22345   0.00000  Uiso   1.00
C367   C     0.80613   0.35726   0.22345   0.00000  Uiso   1.00
C368   C     0.86054   0.64274   0.27655   0.00000  Uiso   1.00
H369   H     0.88228   0.37558   0.29779   0.00000  Uiso   1.00
H370   H     0.78438   0.62442   0.20221   0.00000  Uiso   1.00
H371   H     0.78438   0.37538   0.20222   0.00000  Uiso   1.00
H372   H     0.88229   0.62462   0.29778   0.00000  Uiso   1.00
N373   N     0.83333   0.61907   0.25000   0.00000  Uiso   1.00
N374   N     0.83333   0.38093   0.25000   0.00000  Uiso   1.00
I375   I     0.92552   0.46952   0.36918   0.00000  Uiso   1.00
I376   I     0.74115   0.53048   0.13082   0.00000  Uiso   1.00
C377   C     0.71383   0.48490   0.03782   0.00000  Uiso   1.00
H378   H     0.69517   0.46602   0.01244   0.00000  Uiso   1.00
H379   H     0.71738   0.46146   0.06662   0.00000  Uiso   1.00
H380   H     0.69586   0.51555   0.04704   0.00000  Uiso   1.00
C381   C     0.95285   0.51509   0.46218   0.00000  Uiso   1.00
H382   H     0.97151   0.53395   0.48757   0.00000  Uiso   1.00
H383   H     0.97080   0.48443   0.45295   0.00000  Uiso   1.00
H384   H     0.94929   0.53854   0.43339   0.00000  Uiso   1.00
O385   O     0.10559   0.87154   0.24999   0.00000  Uiso   1.00
O386   O     0.22774   0.79513   0.25000   0.00000  Uiso   1.00
O387   O     0.22774   0.87154   0.25000   0.00000  Uiso   1.00
O388   O     0.10559   0.79513   0.24999   0.00000  Uiso   1.00
C389   C     0.08665   0.83330   0.25038   0.00000  Uiso   1.00
C390   C     0.24669   0.83336   0.24962   0.00000  Uiso   1.00
O391   O     0.16666   0.87156   0.18392   0.00000  Uiso   1.00
O392   O     0.16667   0.79511   0.31607   0.00000  Uiso   1.00
O393   O     0.16667   0.87156   0.31607   0.00000  Uiso   1.00
O394   O     0.16666   0.79511   0.18392   0.00000  Uiso   1.00
C395   C     0.16567   0.83331   0.16355   0.00000  Uiso   1.00
C396   C     0.16766   0.83336   0.33645   0.00000  Uiso   1.00
Zn397  Zn    0.16667   0.88437   0.25000   0.00000  Uiso   1.00
Zn398  Zn    0.16667   0.78229   0.25000   0.00000  Uiso   1.00
C399   C     0.20690   0.82800   0.40720   0.00000  Uiso   1.00
C400   C     0.12644   0.83866   0.09280   0.00000  Uiso   1.00
C401   C     0.16906   0.83358   0.38409   0.00000  Uiso   1.00
C402   C     0.16428   0.83309   0.11591   0.00000  Uiso   1.00
C403   C     0.13145   0.83860   0.40583   0.00000  Uiso   1.00
C404   C     0.20188   0.82807   0.09417   0.00000  Uiso   1.00
C405   C     0.13025   0.83648   0.45188   0.00000  Uiso   1.00
C406   C     0.20309   0.83019   0.04812   0.00000  Uiso   1.00
C407   C     0.16771   0.83387   0.47658   0.00000  Uiso   1.00
C408   C     0.16562   0.83279   0.02342   0.00000  Uiso   1.00
C409   C     0.20706   0.83245   0.45439   0.00000  Uiso   1.00
C410   C     0.12627   0.83421   0.04561   0.00000  Uiso   1.00
C411   C     0.09174   0.83508   0.47303   0.00000  Uiso   1.00
C412   C     0.24159   0.83158   0.02697   0.00000  Uiso   1.00
C413   C     0.08911   0.83147   0.01943   0.00000  Uiso   1.00
C414   C     0.24422   0.83519   0.48057   0.00000  Uiso   1.00
H415   H     0.10279   0.84173   0.38648   0.00000  Uiso   1.00
H416   H     0.23055   0.82493   0.11352   0.00000  Uiso   1.00
H417   H     0.06338   0.83454   0.45297   0.00000  Uiso   1.00
H418   H     0.26995   0.83212   0.04703   0.00000  Uiso   1.00
C419   C     0.02126   0.79362   0.23872   0.00000  Uiso   1.00
C420   C     0.31207   0.87305   0.26127   0.00000  Uiso   1.00
C421   C     0.31192   0.79371   0.23829   0.00000  Uiso   1.00
C422   C     0.02141   0.87295   0.26171   0.00000  Uiso   1.00
H423   H     0.03751   0.76287   0.22952   0.00000  Uiso   1.00
H424   H     0.29583   0.90380   0.27048   0.00000  Uiso   1.00
H425   H     0.29554   0.76299   0.22890   0.00000  Uiso   1.00
H426   H     0.03779   0.90367   0.27110   0.00000  Uiso   1.00
C427   C     0.29084   0.83342   0.24957   0.00000  Uiso   1.00
C428   C     0.04250   0.83325   0.25042   0.00000  Uiso   1.00
C429   C     0.19387   0.69070   0.27655   0.00000  Uiso   1.00
C430   C     0.13946   0.97597   0.22345   0.00000  Uiso   1.00
C431   C     0.13946   0.69059   0.22345   0.00000  Uiso   1.00
C432   C     0.19387   0.97608   0.27655   0.00000  Uiso   1.00
H433   H     0.21562   0.70891   0.29779   0.00000  Uiso   1.00
H434   H     0.11772   0.95776   0.20221   0.00000  Uiso   1.00
H435   H     0.11771   0.70872   0.20222   0.00000  Uiso   1.00
H436   H     0.21562   0.95795   0.29778   0.00000  Uiso   1.00
N437   N     0.16667   0.95240   0.25000   0.00000  Uiso   1.00
N438   N     0.16667   0.71427   0.25000   0.00000  Uiso   1.00
I439   I     0.25885   0.80286   0.36918   0.00000  Uiso   1.00
I440   I     0.07449   0.86381   0.13082   0.00000  Uiso   1.00
C441   C     0.04716   0.81823   0.03782   0.00000  Uiso   1.00
H442   H     0.02851   0.79936   0.01244   0.00000  Uiso   1.00
H443   H     0.05072   0.79479   0.06662   0.00000  Uiso   1.00
H444   H     0.02920   0.84889   0.04704   0.00000  Uiso   1.00
C445   C     0.28618   0.84842   0.46218   0.00000  Uiso   1.00
H446   H     0.30484   0.86729   0.48757   0.00000  Uiso   1.00
H447   H     0.30413   0.81777   0.45295   0.00000  Uiso   1.00
H448   H     0.28262   0.87187   0.43339   0.00000  Uiso   1.00
O449   O     0.43892   0.87154   0.24999   0.00000  Uiso   1.00
O450   O     0.56108   0.79513   0.25000   0.00000  Uiso   1.00
O451   O     0.56108   0.87154   0.25000   0.00000  Uiso   1.00
O452   O     0.43892   0.79513   0.24999   0.00000  Uiso   1.00
C453   C     0.41998   0.83330   0.25038   0.00000  Uiso   1.00
C454   C     0.58002   0.83336   0.24962   0.00000  Uiso   1.00
O455   O     0.49999   0.87156   0.18392   0.00000  Uiso   1.00
O456   O     0.50001   0.79511   0.31607   0.00000  Uiso   1.00
O457   O     0.50001   0.87156   0.31607   0.00000  Uiso   1.00
O458   O     0.49999   0.79511   0.18392   0.00000  Uiso   1.00
C459   C     0.49901   0.83331   0.16355   0.00000  Uiso   1.00
C460   C     0.50099   0.83336   0.33645   0.00000  Uiso   1.00
Zn461  Zn    0.50000   0.88437   0.25000   0.00000  Uiso   1.00
Zn462  Zn    0.50000   0.78229   0.25000   0.00000  Uiso   1.00
C463   C     0.54023   0.82800   0.40720   0.00000  Uiso   1.00
C464   C     0.45977   0.83866   0.09280   0.00000  Uiso   1.00
C465   C     0.50239   0.83358   0.38409   0.00000  Uiso   1.00
C466   C     0.49761   0.83309   0.11591   0.00000  Uiso   1.00
C467   C     0.46478   0.83860   0.40583   0.00000  Uiso   1.00
C468   C     0.53522   0.82807   0.09417   0.00000  Uiso   1.00
C469   C     0.46358   0.83648   0.45188   0.00000  Uiso   1.00
C470   C     0.53642   0.83019   0.04812   0.00000  Uiso   1.00
C471   C     0.50105   0.83387   0.47658   0.00000  Uiso   1.00
C472   C     0.49896   0.83279   0.02342   0.00000  Uiso   1.00
C473   C     0.54040   0.83245   0.45439   0.00000  Uiso   1.00
C474   C     0.45961   0.83421   0.04561   0.00000  Uiso   1.00
C475   C     0.42507   0.83508   0.47303   0.00000  Uiso   1.00
C476   C     0.57493   0.83158   0.02697   0.00000  Uiso   1.00
C477   C     0.42245   0.83147   0.01943   0.00000  Uiso   1.00
C478   C     0.57755   0.83519   0.48057   0.00000  Uiso   1.00
H479   H     0.43612   0.84173   0.38648   0.00000  Uiso   1.00
H480   H     0.56388   0.82493   0.11352   0.00000  Uiso   1.00
H481   H     0.39672   0.83454   0.45297   0.00000  Uiso   1.00
H482   H     0.60329   0.83212   0.04703   0.00000  Uiso   1.00
C483   C     0.35459   0.79362   0.23872   0.00000  Uiso   1.00
C484   C     0.64541   0.87305   0.26127   0.00000  Uiso   1.00
C485   C     0.64525   0.79371   0.23829   0.00000  Uiso   1.00
C486   C     0.35475   0.87295   0.26171   0.00000  Uiso   1.00
H487   H     0.37084   0.76287   0.22952   0.00000  Uiso   1.00
H488   H     0.62916   0.90380   0.27048   0.00000  Uiso   1.00
H489   H     0.62888   0.76299   0.22890   0.00000  Uiso   1.00
H490   H     0.37112   0.90367   0.27110   0.00000  Uiso   1.00
C491   C     0.62417   0.83342   0.24957   0.00000  Uiso   1.00
C492   C     0.37583   0.83325   0.25042   0.00000  Uiso   1.00
C493   C     0.52720   0.69070   0.27655   0.00000  Uiso   1.00
C494   C     0.47280   0.97597   0.22345   0.00000  Uiso   1.00
C495   C     0.47280   0.69059   0.22345   0.00000  Uiso   1.00
C496   C     0.52720   0.97608   0.27655   0.00000  Uiso   1.00
H497   H     0.54895   0.70891   0.29779   0.00000  Uiso   1.00
H498   H     0.45105   0.95776   0.20221   0.00000  Uiso   1.00
H499   H     0.45104   0.70872   0.20222   0.00000  Uiso   1.00
H500   H     0.54896   0.95795   0.29778   0.00000  Uiso   1.00
N501   N     0.50000   0.95240   0.25000   0.00000  Uiso   1.00
N502   N     0.50000   0.71427   0.25000   0.00000  Uiso   1.00
I503   I     0.59218   0.80286   0.36918   0.00000  Uiso   1.00
I504   I     0.40782   0.86381   0.13082   0.00000  Uiso   1.00
C505   C     0.38049   0.81823   0.03782   0.00000  Uiso   1.00
H506   H     0.36184   0.79936   0.01244   0.00000  Uiso   1.00
H507   H     0.38405   0.79479   0.06662   0.00000  Uiso   1.00
H508   H     0.36253   0.84889   0.04704   0.00000  Uiso   1.00
C509   C     0.61951   0.84842   0.46218   0.00000  Uiso   1.00
H510   H     0.63817   0.86729   0.48757   0.00000  Uiso   1.00
H511   H     0.63747   0.81777   0.45295   0.00000  Uiso   1.00
H512   H     0.61596   0.87187   0.43339   0.00000  Uiso   1.00
O513   O     0.77226   0.87154   0.24999   0.00000  Uiso   1.00
O514   O     0.89441   0.79513   0.25000   0.00000  Uiso   1.00
O515   O     0.89441   0.87154   0.25000   0.00000  Uiso   1.00
O516   O     0.77226   0.79513   0.24999   0.00000  Uiso   1.00
C517   C     0.75331   0.83330   0.25038   0.00000  Uiso   1.00
C518   C     0.91335   0.83336   0.24962   0.00000  Uiso   1.00
O519   O     0.83333   0.87156   0.18392   0.00000  Uiso   1.00
O520   O     0.83334   0.79511   0.31607   0.00000  Uiso   1.00
O521   O     0.83334   0.87156   0.31607   0.00000  Uiso   1.00
O522   O     0.83333   0.79511   0.18392   0.00000  Uiso   1.00
C523   C     0.83234   0.83331   0.16355   0.00000  Uiso   1.00
C524   C     0.83433   0.83336   0.33645   0.00000  Uiso   1.00
Zn525  Zn    0.83333   0.88437   0.25000   0.00000  Uiso   1.00
Zn526  Zn    0.83333   0.78229   0.25000   0.00000  Uiso   1.00
C527   C     0.87356   0.82800   0.40720   0.00000  Uiso   1.00
C528   C     0.79310   0.83866   0.09280   0.00000  Uiso   1.00
C529   C     0.83572   0.83358   0.38409   0.00000  Uiso   1.00
C530   C     0.83095   0.83309   0.11591   0.00000  Uiso   1.00
C531   C     0.79812   0.83860   0.40583   0.00000  Uiso   1.00
C532   C     0.86855   0.82807   0.09417   0.00000  Uiso   1.00
C533   C     0.79691   0.83648   0.45188   0.00000  Uiso   1.00
C534   C     0.86976   0.83019   0.04812   0.00000  Uiso   1.00
C535   C     0.83438   0.83387   0.47658   0.00000  Uiso   1.00
C536   C     0.83229   0.83279   0.02342   0.00000  Uiso   1.00
C537   C     0.87373   0.83245   0.45439   0.00000  Uiso   1.00
C538   C     0.79294   0.83421   0.04561   0.00000  Uiso   1.00
C539   C     0.75841   0.83508   0.47303   0.00000  Uiso   1.00
C540   C     0.90826   0.83158   0.02697   0.00000  Uiso   1.00
C541   C     0.75578   0.83147   0.01943   0.00000  Uiso   1.00
C542   C     0.91089   0.83519   0.48057   0.00000  Uiso   1.00
H543   H     0.76945   0.84173   0.38648   0.00000  Uiso   1.00
H544   H     0.89721   0.82493   0.11352   0.00000  Uiso   1.00
H545   H     0.73005   0.83454   0.45297   0.00000  Uiso   1.00
H546   H     0.93662   0.83212   0.04703   0.00000  Uiso   1.00
C547   C     0.68793   0.79362   0.23872   0.00000  Uiso   1.00
C548   C     0.97874   0.87305   0.26127   0.00000  Uiso   1.00
C549   C     0.97859   0.79371   0.23829   0.00000  Uiso   1.00
C550   C     0.68808   0.87295   0.26171   0.00000  Uiso   1.00
H551   H     0.70417   0.76287   0.22952   0.00000  Uiso   1.00
H552   H     0.96249   0.90380   0.27048   0.00000  Uiso   1.00
H553   H     0.96221   0.76299   0.22890   0.00000  Uiso   1.00
H554   H     0.70446   0.90367   0.27110   0.00000  Uiso   1.00
C555   C     0.95750   0.83342   0.24957   0.00000  Uiso   1.00
C556   C     0.70916   0.83325   0.25042   0.00000  Uiso   1.00
C557   C     0.86054   0.69070   0.27655   0.00000  Uiso   1.00
C558   C     0.80613   0.97597   0.22345   0.00000  Uiso   1.00
C559   C     0.80613   0.69059   0.22345   0.00000  Uiso   1.00
C560   C     0.86054   0.97608   0.27655   0.00000  Uiso   1.00
H561   H     0.88228   0.70891   0.29779   0.00000  Uiso   1.00
H562   H     0.78438   0.95776   0.20221   0.00000  Uiso   1.00
H563   H     0.78438   0.70872   0.20222   0.00000  Uiso   1.00
H564   H     0.88229   0.95795   0.29778   0.00000  Uiso   1.00
N565   N     0.83333   0.95240   0.25000   0.00000  Uiso   1.00
N566   N     0.83333   0.71427   0.25000   0.00000  Uiso   1.00
I567   I     0.92552   0.80286   0.36918   0.00000  Uiso   1.00
I568   I     0.74115   0.86381   0.13082   0.00000  Uiso   1.00
C569   C     0.71383   0.81823   0.03782   0.00000  Uiso   1.00
H570   H     0.69517   0.79936   0.01244   0.00000  Uiso   1.00
H571   H     0.71738   0.79479   0.06662   0.00000  Uiso   1.00
H572   H     0.69586   0.84889   0.04704   0.00000  Uiso   1.00
C573   C     0.95285   0.84842   0.46218   0.00000  Uiso   1.00
H574   H     0.97151   0.86729   0.48757   0.00000  Uiso   1.00
H575   H     0.97080   0.81777   0.45295   0.00000  Uiso   1.00
H576   H     0.94929   0.87187   0.43339   0.00000  Uiso   1.00
O577   O     0.10559   0.20487   0.74999   0.00000  Uiso   1.00
O578   O     0.22774   0.12846   0.75000   0.00000  Uiso   1.00
O579   O     0.22774   0.20487   0.75000   0.00000  Uiso   1.00
O580   O     0.10559   0.12846   0.74999   0.00000  Uiso   1.00
C581   C     0.08665   0.16664   0.75038   0.00000  Uiso   1.00
C582   C     0.24669   0.16670   0.74962   0.00000  Uiso   1.00
O583   O     0.16666   0.20489   0.68392   0.00000  Uiso   1.00
O584   O     0.16667   0.12844   0.81607   0.00000  Uiso   1.00
O585   O     0.16667   0.20489   0.81607   0.00000  Uiso   1.00
O586   O     0.16666   0.12844   0.68392   0.00000  Uiso   1.00
C587   C     0.16567   0.16664   0.66355   0.00000  Uiso   1.00
C588   C     0.16766   0.16669   0.83645   0.00000  Uiso   1.00
Zn589  Zn    0.16667   0.21771   0.75000   0.00000  Uiso   1.00
Zn590  Zn    0.16667   0.11563   0.75000   0.00000  Uiso   1.00
C591   C     0.20690   0.16133   0.90720   0.00000  Uiso   1.00
C592   C     0.12644   0.17200   0.59280   0.00000  Uiso   1.00
C593   C     0.16906   0.16691   0.88409   0.00000  Uiso   1.00
C594   C     0.16428   0.16642   0.61591   0.00000  Uiso   1.00
C595   C     0.13145   0.17193   0.90583   0.00000  Uiso   1.00
C596   C     0.20188   0.16140   0.59417   0.00000  Uiso   1.00
C597   C     0.13025   0.16981   0.95188   0.00000  Uiso   1.00
C598   C     0.20309   0.16352   0.54812   0.00000  Uiso   1.00
C599   C     0.16771   0.16721   0.97658   0.00000  Uiso   1.00
C600   C     0.16562   0.16612   0.52342   0.00000  Uiso   1.00
C601   C     0.20706   0.16578   0.95439   0.00000  Uiso   1.00
C602   C     0.12627   0.16755   0.54561   0.00000  Uiso   1.00
C603   C     0.09174   0.16841   0.97303   0.00000  Uiso   1.00
C604   C     0.24159   0.16492   0.52697   0.00000  Uiso   1.00
C605   C     0.08911   0.16480   0.51943   0.00000  Uiso   1.00
C606   C     0.24422   0.16852   0.98057   0.00000  Uiso   1.00
H607   H     0.10279   0.17506   0.88648   0.00000  Uiso   1.00
H608   H     0.23055   0.15827   0.61352   0.00000  Uiso   1.00
H609   H     0.06338   0.16787   0.95297   0.00000  Uiso   1.00
H610   H     0.26995   0.16546   0.54703   0.00000  Uiso   1.00
C611   C     0.02126   0.12696   0.73872   0.00000  Uiso   1.00
C612   C     0.31207   0.20638   0.76127   0.00000  Uiso   1.00
C613   C     0.31192   0.12705   0.73829   0.00000  Uiso   1.00
C614   C     0.02141   0.20629   0.76171   0.00000  Uiso   1.00
H615   H     0.03751   0.09620   0.72952   0.00000  Uiso   1.00
H616   H     0.29583   0.23713   0.77048   0.00000  Uiso   1.00
H617   H     0.29554   0.09633   0.72890   0.00000  Uiso   1.00
H618   H     0.03779   0.23701   0.77110   0.00000  Uiso   1.00
C619   C     0.29084   0.16675   0.74957   0.00000  Uiso   1.00
C620   C     0.04250   0.16658   0.75042   0.00000  Uiso   1.00
C621   C     0.19387   0.02403   0.77655   0.00000  Uiso   1.00
C622   C     0.13946   0.30930   0.72345   0.00000  Uiso   1.00
C623   C     0.13946   0.02393   0.72345   0.00000  Uiso   1.00
C624   C     0.19387   0.30941   0.77655   0.00000  Uiso   1.00
H625   H     0.21562   0.04224   0.79779   0.00000  Uiso   1.00
H626   H     0.11772   0.29109   0.70221   0.00000  Uiso   1.00
H627   H     0.11771   0.04205   0.70222   0.00000  Uiso   1.00
H628   H     0.21562   0.29128   0.79778   0.00000  Uiso   1.00
N629   N     0.16667   0.28573   0.75000   0.00000  Uiso   1.00
N630   N     0.16667   0.04760   0.75000   0.00000  Uiso   1.00
I631   I     0.25885   0.13619   0.86918   0.00000  Uiso   1.00
I632   I     0.07449   0.19715   0.63082   0.00000  Uiso   1.00
C633   C     0.04716   0.15156   0.53782   0.00000  Uiso   1.00
H634   H     0.02851   0.13269   0.51244   0.00000  Uiso   1.00
H635   H     0.05072   0.12813   0.56662   0.00000  Uiso   1.00
H636   H     0.02920   0.18222   0.54704   0.00000  Uiso   1.00
C637   C     0.28618   0.18176   0.96218   0.00000  Uiso   1.00
H638   H     0.30484   0.20062   0.98757   0.00000  Uiso   1.00
H639   H     0.30413   0.15110   0.95295   0.00000  Uiso   1.00
H640   H     0.28262   0.20520   0.93339   0.00000  Uiso   1.00
O641   O     0.43892   0.20487   0.74999   0.00000  Uiso   1.00
O642   O     0.56108   0.12846   0.75000   0.00000  Uiso   1.00
O643   O     0.56108   0.20487   0.75000   0.00000  Uiso   1.00
O644   O     0.43892   0.12846   0.74999   0.00000  Uiso   1.00
C645   C     0.41998   0.16664   0.75038   0.00000  Uiso   1.00
C646   C     0.58002   0.16670   0.74962   0.00000  Uiso   1.00
O647   O     0.49999   0.20489   0.68392   0.00000  Uiso   1.00
O648   O     0.50001   0.12844   0.81607   0.00000  Uiso   1.00
O649   O     0.50001   0.20489   0.81607   0.00000  Uiso   1.00
O650   O     0.49999   0.12844   0.68392   0.00000  Uiso   1.00
C651   C     0.49901   0.16664   0.66355   0.00000  Uiso   1.00
C652   C     0.50099   0.16669   0.83645   0.00000  Uiso   1.00
Zn653  Zn    0.50000   0.21771   0.75000   0.00000  Uiso   1.00
Zn654  Zn    0.50000   0.11563   0.75000   0.00000  Uiso   1.00
C655   C     0.54023   0.16133   0.90720   0.00000  Uiso   1.00
C656   C     0.45977   0.17200   0.59280   0.00000  Uiso   1.00
C657   C     0.50239   0.16691   0.88409   0.00000  Uiso   1.00
C658   C     0.49761   0.16642   0.61591   0.00000  Uiso   1.00
C659   C     0.46478   0.17193   0.90583   0.00000  Uiso   1.00
C660   C     0.53522   0.16140   0.59417   0.00000  Uiso   1.00
C661   C     0.46358   0.16981   0.95188   0.00000  Uiso   1.00
C662   C     0.53642   0.16352   0.54812   0.00000  Uiso   1.00
C663   C     0.50105   0.16721   0.97658   0.00000  Uiso   1.00
C664   C     0.49896   0.16612   0.52342   0.00000  Uiso   1.00
C665   C     0.54040   0.16578   0.95439   0.00000  Uiso   1.00
C666   C     0.45961   0.16755   0.54561   0.00000  Uiso   1.00
C667   C     0.42507   0.16841   0.97303   0.00000  Uiso   1.00
C668   C     0.57493   0.16492   0.52697   0.00000  Uiso   1.00
C669   C     0.42245   0.16480   0.51943   0.00000  Uiso   1.00
C670   C     0.57755   0.16852   0.98057   0.00000  Uiso   1.00
H671   H     0.43612   0.17506   0.88648   0.00000  Uiso   1.00
H672   H     0.56388   0.15827   0.61352   0.00000  Uiso   1.00
H673   H     0.39672   0.16787   0.95297   0.00000  Uiso   1.00
H674   H     0.60329   0.16546   0.54703   0.00000  Uiso   1.00
C675   C     0.35459   0.12696   0.73872   0.00000  Uiso   1.00
C676   C     0.64541   0.20638   0.76127   0.00000  Uiso   1.00
C677   C     0.64525   0.12705   0.73829   0.00000  Uiso   1.00
C678   C     0.35475   0.20629   0.76171   0.00000  Uiso   1.00
H679   H     0.37084   0.09620   0.72952   0.00000  Uiso   1.00
H680   H     0.62916   0.23713   0.77048   0.00000  Uiso   1.00
H681   H     0.62888   0.09633   0.72890   0.00000  Uiso   1.00
H682   H     0.37112   0.23701   0.77110   0.00000  Uiso   1.00
C683   C     0.62417   0.16675   0.74957   0.00000  Uiso   1.00
C684   C     0.37583   0.16658   0.75042   0.00000  Uiso   1.00
C685   C     0.52720   0.02403   0.77655   0.00000  Uiso   1.00
C686   C     0.47280   0.30930   0.72345   0.00000  Uiso   1.00
C687   C     0.47280   0.02393   0.72345   0.00000  Uiso   1.00
C688   C     0.52720   0.30941   0.77655   0.00000  Uiso   1.00
H689   H     0.54895   0.04224   0.79779   0.00000  Uiso   1.00
H690   H     0.45105   0.29109   0.70221   0.00000  Uiso   1.00
H691   H     0.45104   0.04205   0.70222   0.00000  Uiso   1.00
H692   H     0.54896   0.29128   0.79778   0.00000  Uiso   1.00
N693   N     0.50000   0.28573   0.75000   0.00000  Uiso   1.00
N694   N     0.50000   0.04760   0.75000   0.00000  Uiso   1.00
I695   I     0.59218   0.13619   0.86918   0.00000  Uiso   1.00
I696   I     0.40782   0.19715   0.63082   0.00000  Uiso   1.00
C697   C     0.38049   0.15156   0.53782   0.00000  Uiso   1.00
H698   H     0.36184   0.13269   0.51244   0.00000  Uiso   1.00
H699   H     0.38405   0.12813   0.56662   0.00000  Uiso   1.00
H700   H     0.36253   0.18222   0.54704   0.00000  Uiso   1.00
C701   C     0.61951   0.18176   0.96218   0.00000  Uiso   1.00
H702   H     0.63817   0.20062   0.98757   0.00000  Uiso   1.00
H703   H     0.63747   0.15110   0.95295   0.00000  Uiso   1.00
H704   H     0.61596   0.20520   0.93339   0.00000  Uiso   1.00
O705   O     0.77226   0.20487   0.74999   0.00000  Uiso   1.00
O706   O     0.89441   0.12846   0.75000   0.00000  Uiso   1.00
O707   O     0.89441   0.20487   0.75000   0.00000  Uiso   1.00
O708   O     0.77226   0.12846   0.74999   0.00000  Uiso   1.00
C709   C     0.75331   0.16664   0.75038   0.00000  Uiso   1.00
C710   C     0.91335   0.16670   0.74962   0.00000  Uiso   1.00
O711   O     0.83333   0.20489   0.68392   0.00000  Uiso   1.00
O712   O     0.83334   0.12844   0.81607   0.00000  Uiso   1.00
O713   O     0.83334   0.20489   0.81607   0.00000  Uiso   1.00
O714   O     0.83333   0.12844   0.68392   0.00000  Uiso   1.00
C715   C     0.83234   0.16664   0.66355   0.00000  Uiso   1.00
C716   C     0.83433   0.16669   0.83645   0.00000  Uiso   1.00
Zn717  Zn    0.83333   0.21771   0.75000   0.00000  Uiso   1.00
Zn718  Zn    0.83333   0.11563   0.75000   0.00000  Uiso   1.00
C719   C     0.87356   0.16133   0.90720   0.00000  Uiso   1.00
C720   C     0.79310   0.17200   0.59280   0.00000  Uiso   1.00
C721   C     0.83572   0.16691   0.88409   0.00000  Uiso   1.00
C722   C     0.83095   0.16642   0.61591   0.00000  Uiso   1.00
C723   C     0.79812   0.17193   0.90583   0.00000  Uiso   1.00
C724   C     0.86855   0.16140   0.59417   0.00000  Uiso   1.00
C725   C     0.79691   0.16981   0.95188   0.00000  Uiso   1.00
C726   C     0.86976   0.16352   0.54812   0.00000  Uiso   1.00
C727   C     0.83438   0.16721   0.97658   0.00000  Uiso   1.00
C728   C     0.83229   0.16612   0.52342   0.00000  Uiso   1.00
C729   C     0.87373   0.16578   0.95439   0.00000  Uiso   1.00
C730   C     0.79294   0.16755   0.54561   0.00000  Uiso   1.00
C731   C     0.75841   0.16841   0.97303   0.00000  Uiso   1.00
C732   C     0.90826   0.16492   0.52697   0.00000  Uiso   1.00
C733   C     0.75578   0.16480   0.51943   0.00000  Uiso   1.00
C734   C     0.91089   0.16852   0.98057   0.00000  Uiso   1.00
H735   H     0.76945   0.17506   0.88648   0.00000  Uiso   1.00
H736   H     0.89721   0.15827   0.61352   0.00000  Uiso   1.00
H737   H     0.73005   0.16787   0.95297   0.00000  Uiso   1.00
H738   H     0.93662   0.16546   0.54703   0.00000  Uiso   1.00
C739   C     0.68793   0.12696   0.73872   0.00000  Uiso   1.00
C740   C     0.97874   0.20638   0.76127   0.00000  Uiso   1.00
C741   C     0.97859   0.12705   0.73829   0.00000  Uiso   1.00
C742   C     0.68808   0.20629   0.76171   0.00000  Uiso   1.00
H743   H     0.70417   0.09620   0.72952   0.00000  Uiso   1.00
H744   H     0.96249   0.23713   0.77048   0.00000  Uiso   1.00
H745   H     0.96221   0.09633   0.72890   0.00000  Uiso   1.00
H746   H     0.70446   0.23701   0.77110   0.00000  Uiso   1.00
C747   C     0.95750   0.16675   0.74957   0.00000  Uiso   1.00
C748   C     0.70916   0.16658   0.75042   0.00000  Uiso   1.00
C749   C     0.86054   0.02403   0.77655   0.00000  Uiso   1.00
C750   C     0.80613   0.30930   0.72345   0.00000  Uiso   1.00
C751   C     0.80613   0.02393   0.72345   0.00000  Uiso   1.00
C752   C     0.86054   0.30941   0.77655   0.00000  Uiso   1.00
H753   H     0.88228   0.04224   0.79779   0.00000  Uiso   1.00
H754   H     0.78438   0.29109   0.70221   0.00000  Uiso   1.00
H755   H     0.78438   0.04205   0.70222   0.00000  Uiso   1.00
H756   H     0.88229   0.29128   0.79778   0.00000  Uiso   1.00
N757   N     0.83333   0.28573   0.75000   0.00000  Uiso   1.00
N758   N     0.83333   0.04760   0.75000   0.00000  Uiso   1.00
I759   I     0.92552   0.13619   0.86918   0.00000  Uiso   1.00
I760   I     0.74115   0.19715   0.63082   0.00000  Uiso   1.00
C761   C     0.71383   0.15156   0.53782   0.00000  Uiso   1.00
H762   H     0.69517   0.13269   0.51244   0.00000  Uiso   1.00
H763   H     0.71738   0.12813   0.56662   0.00000  Uiso   1.00
H764   H     0.69586   0.18222   0.54704   0.00000  Uiso   1.00
C765   C     0.95285   0.18176   0.96218   0.00000  Uiso   1.00
H766   H     0.97151   0.20062   0.98757   0.00000  Uiso   1.00
H767   H     0.97080   0.15110   0.95295   0.00000  Uiso   1.00
H768   H     0.94929   0.20520   0.93339   0.00000  Uiso   1.00
O769   O     0.10559   0.53821   0.74999   0.00000  Uiso   1.00
O770   O     0.22774   0.46179   0.75000   0.00000  Uiso   1.00
O771   O     0.22774   0.53821   0.75000   0.00000  Uiso   1.00
O772   O     0.10559   0.46179   0.74999   0.00000  Uiso   1.00
C773   C     0.08665   0.49997   0.75038   0.00000  Uiso   1.00
C774   C     0.24669   0.50003   0.74962   0.00000  Uiso   1.00
O775   O     0.16666   0.53823   0.68392   0.00000  Uiso   1.00
O776   O     0.16667   0.46177   0.81607   0.00000  Uiso   1.00
O777   O     0.16667   0.53823   0.81607   0.00000  Uiso   1.00
O778   O     0.16666   0.46177   0.68392   0.00000  Uiso   1.00
C779   C     0.16567   0.49997   0.66355   0.00000  Uiso   1.00
C780   C     0.16766   0.50003   0.83645   0.00000  Uiso   1.00
Zn781  Zn    0.16667   0.55104   0.75000   0.00000  Uiso   1.00
Zn782  Zn    0.16667   0.44896   0.75000   0.00000  Uiso   1.00
C783   C     0.20690   0.49467   0.90720   0.00000  Uiso   1.00
C784   C     0.12644   0.50533   0.59280   0.00000  Uiso   1.00
C785   C     0.16906   0.50024   0.88409   0.00000  Uiso   1.00
C786   C     0.16428   0.49976   0.61591   0.00000  Uiso   1.00
C787   C     0.13145   0.50526   0.90583   0.00000  Uiso   1.00
C788   C     0.20188   0.49474   0.59417   0.00000  Uiso   1.00
C789   C     0.13025   0.50314   0.95188   0.00000  Uiso   1.00
C790   C     0.20309   0.49685   0.54812   0.00000  Uiso   1.00
C791   C     0.16771   0.50054   0.97658   0.00000  Uiso   1.00
C792   C     0.16562   0.49945   0.52342   0.00000  Uiso   1.00
C793   C     0.20706   0.49911   0.95439   0.00000  Uiso   1.00
C794   C     0.12627   0.50088   0.54561   0.00000  Uiso   1.00
C795   C     0.09174   0.50175   0.97303   0.00000  Uiso   1.00
C796   C     0.24159   0.49825   0.52697   0.00000  Uiso   1.00
C797   C     0.08911   0.49814   0.51943   0.00000  Uiso   1.00
C798   C     0.24422   0.50186   0.98057   0.00000  Uiso   1.00
H799   H     0.10279   0.50840   0.88648   0.00000  Uiso   1.00
H800   H     0.23055   0.49160   0.61352   0.00000  Uiso   1.00
H801   H     0.06338   0.50120   0.95297   0.00000  Uiso   1.00
H802   H     0.26995   0.49879   0.54703   0.00000  Uiso   1.00
C803   C     0.02126   0.46029   0.73872   0.00000  Uiso   1.00
C804   C     0.31207   0.53971   0.76127   0.00000  Uiso   1.00
C805   C     0.31192   0.46038   0.73829   0.00000  Uiso   1.00
C806   C     0.02141   0.53962   0.76171   0.00000  Uiso   1.00
H807   H     0.03751   0.42953   0.72952   0.00000  Uiso   1.00
H808   H     0.29583   0.57047   0.77048   0.00000  Uiso   1.00
H809   H     0.29554   0.42966   0.72890   0.00000  Uiso   1.00
H810   H     0.03779   0.57034   0.77110   0.00000  Uiso   1.00
C811   C     0.29084   0.50008   0.74957   0.00000  Uiso   1.00
C812   C     0.04250   0.49992   0.75042   0.00000  Uiso   1.00
C813   C     0.19387   0.35737   0.77655   0.00000  Uiso   1.00
C814   C     0.13946   0.64263   0.72345   0.00000  Uiso   1.00
C815   C     0.13946   0.35726   0.72345   0.00000  Uiso   1.00
C816   C     0.19387   0.64274   0.77655   0.00000  Uiso   1.00
H817   H     0.21562   0.37558   0.79779   0.00000  Uiso   1.00
H818   H     0.11772   0.62442   0.70221   0.00000  Uiso   1.00
H819   H     0.11771   0.37538   0.70222   0.00000  Uiso   1.00
H820   H     0.21562   0.62462   0.79778   0.00000  Uiso   1.00
N821   N     0.16667   0.61907   0.75000   0.00000  Uiso   1.00
N822   N     0.16667   0.38093   0.75000   0.00000  Uiso   1.00
I823   I     0.25885   0.46952   0.86918   0.00000  Uiso   1.00
I824   I     0.07449   0.53048   0.63082   0.00000  Uiso   1.00
C825   C     0.04716   0.48490   0.53782   0.00000  Uiso   1.00
H826   H     0.02851   0.46602   0.51244   0.00000  Uiso   1.00
H827   H     0.05072   0.46146   0.56662   0.00000  Uiso   1.00
H828   H     0.02920   0.51555   0.54704   0.00000  Uiso   1.00
C829   C     0.28618   0.51509   0.96218   0.00000  Uiso   1.00
H830   H     0.30484   0.53395   0.98757   0.00000  Uiso   1.00
H831   H     0.30413   0.48443   0.95295   0.00000  Uiso   1.00
H832   H     0.28262   0.53854   0.93339   0.00000  Uiso   1.00
O833   O     0.43892   0.53821   0.74999   0.00000  Uiso   1.00
O834   O     0.56108   0.46179   0.75000   0.00000  Uiso   1.00
O835   O     0.56108   0.53821   0.75000   0.00000  Uiso   1.00
O836   O     0.43892   0.46179   0.74999   0.00000  Uiso   1.00
C837   C     0.41998   0.49997   0.75038   0.00000  Uiso   1.00
C838   C     0.58002   0.50003   0.74962   0.00000  Uiso   1.00
O839   O     0.49999   0.53823   0.68392   0.00000  Uiso   1.00
O840   O     0.50001   0.46177   0.81607   0.00000  Uiso   1.00
O841   O     0.50001   0.53823   0.81607   0.00000  Uiso   1.00
O842   O     0.49999   0.46177   0.68392   0.00000  Uiso   1.00
C843   C     0.49901   0.49997   0.66355   0.00000  Uiso   1.00
C844   C     0.50099   0.50003   0.83645   0.00000  Uiso   1.00
Zn845  Zn    0.50000   0.55104   0.75000   0.00000  Uiso   1.00
Zn846  Zn    0.50000   0.44896   0.75000   0.00000  Uiso   1.00
C847   C     0.54023   0.49467   0.90720   0.00000  Uiso   1.00
C848   C     0.45977   0.50533   0.59280   0.00000  Uiso   1.00
C849   C     0.50239   0.50024   0.88409   0.00000  Uiso   1.00
C850   C     0.49761   0.49976   0.61591   0.00000  Uiso   1.00
C851   C     0.46478   0.50526   0.90583   0.00000  Uiso   1.00
C852   C     0.53522   0.49474   0.59417   0.00000  Uiso   1.00
C853   C     0.46358   0.50314   0.95188   0.00000  Uiso   1.00
C854   C     0.53642   0.49685   0.54812   0.00000  Uiso   1.00
C855   C     0.50105   0.50054   0.97658   0.00000  Uiso   1.00
C856   C     0.49896   0.49945   0.52342   0.00000  Uiso   1.00
C857   C     0.54040   0.49911   0.95439   0.00000  Uiso   1.00
C858   C     0.45961   0.50088   0.54561   0.00000  Uiso   1.00
C859   C     0.42507   0.50175   0.97303   0.00000  Uiso   1.00
C860   C     0.57493   0.49825   0.52697   0.00000  Uiso   1.00
C861   C     0.42245   0.49814   0.51943   0.00000  Uiso   1.00
C862   C     0.57755   0.50186   0.98057   0.00000  Uiso   1.00
H863   H     0.43612   0.50840   0.88648   0.00000  Uiso   1.00
H864   H     0.56388   0.49160   0.61352   0.00000  Uiso   1.00
H865   H     0.39672   0.50120   0.95297   0.00000  Uiso   1.00
H866   H     0.60329   0.49879   0.54703   0.00000  Uiso   1.00
C867   C     0.35459   0.46029   0.73872   0.00000  Uiso   1.00
C868   C     0.64541   0.53971   0.76127   0.00000  Uiso   1.00
C869   C     0.64525   0.46038   0.73829   0.00000  Uiso   1.00
C870   C     0.35475   0.53962   0.76171   0.00000  Uiso   1.00
H871   H     0.37084   0.42953   0.72952   0.00000  Uiso   1.00
H872   H     0.62916   0.57047   0.77048   0.00000  Uiso   1.00
H873   H     0.62888   0.42966   0.72890   0.00000  Uiso   1.00
H874   H     0.37112   0.57034   0.77110   0.00000  Uiso   1.00
C875   C     0.62417   0.50008   0.74957   0.00000  Uiso   1.00
C876   C     0.37583   0.49992   0.75042   0.00000  Uiso   1.00
C877   C     0.52720   0.35737   0.77655   0.00000  Uiso   1.00
C878   C     0.47280   0.64263   0.72345   0.00000  Uiso   1.00
C879   C     0.47280   0.35726   0.72345   0.00000  Uiso   1.00
C880   C     0.52720   0.64274   0.77655   0.00000  Uiso   1.00
H881   H     0.54895   0.37558   0.79779   0.00000  Uiso   1.00
H882   H     0.45105   0.62442   0.70221   0.00000  Uiso   1.00
H883   H     0.45104   0.37538   0.70222   0.00000  Uiso   1.00
H884   H     0.54896   0.62462   0.79778   0.00000  Uiso   1.00
N885   N     0.50000   0.61907   0.75000   0.00000  Uiso   1.00
N886   N     0.50000   0.38093   0.75000   0.00000  Uiso   1.00
I887   I     0.59218   0.46952   0.86918   0.00000  Uiso   1.00
I888   I     0.40782   0.53048   0.63082   0.00000  Uiso   1.00
C889   C     0.38049   0.48490   0.53782   0.00000  Uiso   1.00
H890   H     0.36184   0.46602   0.51244   0.00000  Uiso   1.00
H891   H     0.38405   0.46146   0.56662   0.00000  Uiso   1.00
H892   H     0.36253   0.51555   0.54704   0.00000  Uiso   1.00
C893   C     0.61951   0.51509   0.96218   0.00000  Uiso   1.00
H894   H     0.63817   0.53395   0.98757   0.00000  Uiso   1.00
H895   H     0.63747   0.48443   0.95295   0.00000  Uiso   1.00
H896   H     0.61596   0.53854   0.93339   0.00000  Uiso   1.00
O897   O     0.77226   0.53821   0.74999   0.00000  Uiso   1.00
O898   O     0.89441   0.46179   0.75000   0.00000  Uiso   1.00
O899   O     0.89441   0.53821   0.75000   0.00000  Uiso   1.00
O900   O     0.77226   0.46179   0.74999   0.00000  Uiso   1.00
C901   C     0.75331   0.49997   0.75038   0.00000  Uiso   1.00
C902   C     0.91335   0.50003   0.74962   0.00000  Uiso   1.00
O903   O     0.83333   0.53823   0.68392   0.00000  Uiso   1.00
O904   O     0.83334   0.46177   0.81607   0.00000  Uiso   1.00
O905   O     0.83334   0.53823   0.81607   0.00000  Uiso   1.00
O906   O     0.83333   0.46177   0.68392   0.00000  Uiso   1.00
C907   C     0.83234   0.49997   0.66355   0.00000  Uiso   1.00
C908   C     0.83433   0.50003   0.83645   0.00000  Uiso   1.00
Zn909  Zn    0.83333   0.55104   0.75000   0.00000  Uiso   1.00
Zn910  Zn    0.83333   0.44896   0.75000   0.00000  Uiso   1.00
C911   C     0.87356   0.49467   0.90720   0.00000  Uiso   1.00
C912   C     0.79310   0.50533   0.59280   0.00000  Uiso   1.00
C913   C     0.83572   0.50024   0.88409   0.00000  Uiso   1.00
C914   C     0.83095   0.49976   0.61591   0.00000  Uiso   1.00
C915   C     0.79812   0.50526   0.90583   0.00000  Uiso   1.00
C916   C     0.86855   0.49474   0.59417   0.00000  Uiso   1.00
C917   C     0.79691   0.50314   0.95188   0.00000  Uiso   1.00
C918   C     0.86976   0.49685   0.54812   0.00000  Uiso   1.00
C919   C     0.83438   0.50054   0.97658   0.00000  Uiso   1.00
C920   C     0.83229   0.49945   0.52342   0.00000  Uiso   1.00
C921   C     0.87373   0.49911   0.95439   0.00000  Uiso   1.00
C922   C     0.79294   0.50088   0.54561   0.00000  Uiso   1.00
C923   C     0.75841   0.50175   0.97303   0.00000  Uiso   1.00
C924   C     0.90826   0.49825   0.52697   0.00000  Uiso   1.00
C925   C     0.75578   0.49814   0.51943   0.00000  Uiso   1.00
C926   C     0.91089   0.50186   0.98057   0.00000  Uiso   1.00
H927   H     0.76945   0.50840   0.88648   0.00000  Uiso   1.00
H928   H     0.89721   0.49160   0.61352   0.00000  Uiso   1.00
H929   H     0.73005   0.50120   0.95297   0.00000  Uiso   1.00
H930   H     0.93662   0.49879   0.54703   0.00000  Uiso   1.00
C931   C     0.68793   0.46029   0.73872   0.00000  Uiso   1.00
C932   C     0.97874   0.53971   0.76127   0.00000  Uiso   1.00
C933   C     0.97859   0.46038   0.73829   0.00000  Uiso   1.00
C934   C     0.68808   0.53962   0.76171   0.00000  Uiso   1.00
H935   H     0.70417   0.42953   0.72952   0.00000  Uiso   1.00
H936   H     0.96249   0.57047   0.77048   0.00000  Uiso   1.00
H937   H     0.96221   0.42966   0.72890   0.00000  Uiso   1.00
H938   H     0.70446   0.57034   0.77110   0.00000  Uiso   1.00
C939   C     0.95750   0.50008   0.74957   0.00000  Uiso   1.00
C940   C     0.70916   0.49992   0.75042   0.00000  Uiso   1.00
C941   C     0.86054   0.35737   0.77655   0.00000  Uiso   1.00
C942   C     0.80613   0.64263   0.72345   0.00000  Uiso   1.00
C943   C     0.80613   0.35726   0.72345   0.00000  Uiso   1.00
C944   C     0.86054   0.64274   0.77655   0.00000  Uiso   1.00
H945   H     0.88228   0.37558   0.79779   0.00000  Uiso   1.00
H946   H     0.78438   0.62442   0.70221   0.00000  Uiso   1.00
H947   H     0.78438   0.37538   0.70222   0.00000  Uiso   1.00
H948   H     0.88229   0.62462   0.79778   0.00000  Uiso   1.00
N949   N     0.83333   0.61907   0.75000   0.00000  Uiso   1.00
N950   N     0.83333   0.38093   0.75000   0.00000  Uiso   1.00
I951   I     0.92552   0.46952   0.86918   0.00000  Uiso   1.00
I952   I     0.74115   0.53048   0.63082   0.00000  Uiso   1.00
C953   C     0.71383   0.48490   0.53782   0.00000  Uiso   1.00
H954   H     0.69517   0.46602   0.51244   0.00000  Uiso   1.00
H955   H     0.71738   0.46146   0.56662   0.00000  Uiso   1.00
H956   H     0.69586   0.51555   0.54704   0.00000  Uiso   1.00
C957   C     0.95285   0.51509   0.96218   0.00000  Uiso   1.00
H958   H     0.97151   0.53395   0.98757   0.00000  Uiso   1.00
H959   H     0.97080   0.48443   0.95295   0.00000  Uiso   1.00
H960   H     0.94929   0.53854   0.93339   0.00000  Uiso   1.00
O961   O     0.10559   0.87154   0.74999   0.00000  Uiso   1.00
O962   O     0.22774   0.79513   0.75000   0.00000  Uiso   1.00
O963   O     0.22774   0.87154   0.75000   0.00000  Uiso   1.00
O964   O     0.10559   0.79513   0.74999   0.00000  Uiso   1.00
C965   C     0.08665   0.83330   0.75038   0.00000  Uiso   1.00
C966   C     0.24669   0.83336   0.74962   0.00000  Uiso   1.00
O967   O     0.16666   0.87156   0.68392   0.00000  Uiso   1.00
O968   O     0.16667   0.79511   0.81607   0.00000  Uiso   1.00
O969   O     0.16667   0.87156   0.81607   0.00000  Uiso   1.00
O970   O     0.16666   0.79511   0.68392   0.00000  Uiso   1.00
C971   C     0.16567   0.83331   0.66355   0.00000  Uiso   1.00
C972   C     0.16766   0.83336   0.83645   0.00000  Uiso   1.00
Zn973  Zn    0.16667   0.88437   0.75000   0.00000  Uiso   1.00
Zn974  Zn    0.16667   0.78229   0.75000   0.00000  Uiso   1.00
C975   C     0.20690   0.82800   0.90720   0.00000  Uiso   1.00
C976   C     0.12644   0.83866   0.59280   0.00000  Uiso   1.00
C977   C     0.16906   0.83358   0.88409   0.00000  Uiso   1.00
C978   C     0.16428   0.83309   0.61591   0.00000  Uiso   1.00
C979   C     0.13145   0.83860   0.90583   0.00000  Uiso   1.00
C980   C     0.20188   0.82807   0.59417   0.00000  Uiso   1.00
C981   C     0.13025   0.83648   0.95188   0.00000  Uiso   1.00
C982   C     0.20309   0.83019   0.54812   0.00000  Uiso   1.00
C983   C     0.16771   0.83387   0.97658   0.00000  Uiso   1.00
C984   C     0.16562   0.83279   0.52342   0.00000  Uiso   1.00
C985   C     0.20706   0.83245   0.95439   0.00000  Uiso   1.00
C986   C     0.12627   0.83421   0.54561   0.00000  Uiso   1.00
C987   C     0.09174   0.83508   0.97303   0.00000  Uiso   1.00
C988   C     0.24159   0.83158   0.52697   0.00000  Uiso   1.00
C989   C     0.08911   0.83147   0.51943   0.00000  Uiso   1.00
C990   C     0.24422   0.83519   0.98057   0.00000  Uiso   1.00
H991   H     0.10279   0.84173   0.88648   0.00000  Uiso   1.00
H992   H     0.23055   0.82493   0.61352   0.00000  Uiso   1.00
H993   H     0.06338   0.83454   0.95297   0.00000  Uiso   1.00
H994   H     0.26995   0.83212   0.54703   0.00000  Uiso   1.00
C995   C     0.02126   0.79362   0.73872   0.00000  Uiso   1.00
C996   C     0.31207   0.87305   0.76127   0.00000  Uiso   1.00
C997   C     0.31192   0.79371   0.73829   0.00000  Uiso   1.00
C998   C     0.02141   0.87295   0.76171   0.00000  Uiso   1.00
H999   H     0.03751   0.76287   0.72952   0.00000  Uiso   1.00
H1000  H     0.29583   0.90380   0.77048   0.00000  Uiso   1.00
H1001  H     0.29554   0.76299   0.72890   0.00000  Uiso   1.00
H1002  H     0.03779   0.90367   0.77110   0.00000  Uiso   1.00
C1003  C     0.29084   0.83342   0.74957   0.00000  Uiso   1.00
C1004  C     0.04250   0.83325   0.75042   0.00000  Uiso   1.00
C1005  C     0.19387   0.69070   0.77655   0.00000  Uiso   1.00
C1006  C     0.13946   0.97597   0.72345   0.00000  Uiso   1.00
C1007  C     0.13946   0.69059   0.72345   0.00000  Uiso   1.00
C1008  C     0.19387   0.97608   0.77655   0.00000  Uiso   1.00
H1009  H     0.21562   0.70891   0.79779   0.00000  Uiso   1.00
H1010  H     0.11772   0.95776   0.70221   0.00000  Uiso   1.00
H1011  H     0.11771   0.70872   0.70222   0.00000  Uiso   1.00
H1012  H     0.21562   0.95795   0.79778   0.00000  Uiso   1.00
N1013  N     0.16667   0.95240   0.75000   0.00000  Uiso   1.00
N1014  N     0.16667   0.71427   0.75000   0.00000  Uiso   1.00
I1015  I     0.25885   0.80286   0.86918   0.00000  Uiso   1.00
I1016  I     0.07449   0.86381   0.63082   0.00000  Uiso   1.00
C1017  C     0.04716   0.81823   0.53782   0.00000  Uiso   1.00
H1018  H     0.02851   0.79936   0.51244   0.00000  Uiso   1.00
H1019  H     0.05072   0.79479   0.56662   0.00000  Uiso   1.00
H1020  H     0.02920   0.84889   0.54704   0.00000  Uiso   1.00
C1021  C     0.28618   0.84842   0.96218   0.00000  Uiso   1.00
H1022  H     0.30484   0.86729   0.98757   0.00000  Uiso   1.00
H1023  H     0.30413   0.81777   0.95295   0.00000  Uiso   1.00
H1024  H     0.28262   0.87187   0.93339   0.00000  Uiso   1.00
O1025  O     0.43892   0.87154   0.74999   0.00000  Uiso   1.00
O1026  O     0.56108   0.79513   0.75000   0.00000  Uiso   1.00
O1027  O     0.56108   0.87154   0.75000   0.00000  Uiso   1.00
O1028  O     0.43892   0.79513   0.74999   0.00000  Uiso   1.00
C1029  C     0.41998   0.83330   0.75038   0.00000  Uiso   1.00
C1030  C     0.58002   0.83336   0.74962   0.00000  Uiso   1.00
O1031  O     0.49999   0.87156   0.68392   0.00000  Uiso   1.00
O1032  O     0.50001   0.79511   0.81607   0.00000  Uiso   1.00
O1033  O     0.50001   0.87156   0.81607   0.00000  Uiso   1.00
O1034  O     0.49999   0.79511   0.68392   0.00000  Uiso   1.00
C1035  C     0.49901   0.83331   0.66355   0.00000  Uiso   1.00
C1036  C     0.50099   0.83336   0.83645   0.00000  Uiso   1.00
Zn1037 Zn    0.50000   0.88437   0.75000   0.00000  Uiso   1.00
Zn1038 Zn    0.50000   0.78229   0.75000   0.00000  Uiso   1.00
C1039  C     0.54023   0.82800   0.90720   0.00000  Uiso   1.00
C1040  C     0.45977   0.83866   0.59280   0.00000  Uiso   1.00
C1041  C     0.50239   0.83358   0.88409   0.00000  Uiso   1.00
C1042  C     0.49761   0.83309   0.61591   0.00000  Uiso   1.00
C1043  C     0.46478   0.83860   0.90583   0.00000  Uiso   1.00
C1044  C     0.53522   0.82807   0.59417   0.00000  Uiso   1.00
C1045  C     0.46358   0.83648   0.95188   0.00000  Uiso   1.00
C1046  C     0.53642   0.83019   0.54812   0.00000  Uiso   1.00
C1047  C     0.50105   0.83387   0.97658   0.00000  Uiso   1.00
C1048  C     0.49896   0.83279   0.52342   0.00000  Uiso   1.00
C1049  C     0.54040   0.83245   0.95439   0.00000  Uiso   1.00
C1050  C     0.45961   0.83421   0.54561   0.00000  Uiso   1.00
C1051  C     0.42507   0.83508   0.97303   0.00000  Uiso   1.00
C1052  C     0.57493   0.83158   0.52697   0.00000  Uiso   1.00
C1053  C     0.42245   0.83147   0.51943   0.00000  Uiso   1.00
C1054  C     0.57755   0.83519   0.98057   0.00000  Uiso   1.00
H1055  H     0.43612   0.84173   0.88648   0.00000  Uiso   1.00
H1056  H     0.56388   0.82493   0.61352   0.00000  Uiso   1.00
H1057  H     0.39672   0.83454   0.95297   0.00000  Uiso   1.00
H1058  H     0.60329   0.83212   0.54703   0.00000  Uiso   1.00
C1059  C     0.35459   0.79362   0.73872   0.00000  Uiso   1.00
C1060  C     0.64541   0.87305   0.76127   0.00000  Uiso   1.00
C1061  C     0.64525   0.79371   0.73829   0.00000  Uiso   1.00
C1062  C     0.35475   0.87295   0.76171   0.00000  Uiso   1.00
H1063  H     0.37084   0.76287   0.72952   0.00000  Uiso   1.00
H1064  H     0.62916   0.90380   0.77048   0.00000  Uiso   1.00
H1065  H     0.62888   0.76299   0.72890   0.00000  Uiso   1.00
H1066  H     0.37112   0.90367   0.77110   0.00000  Uiso   1.00
C1067  C     0.62417   0.83342   0.74957   0.00000  Uiso   1.00
C1068  C     0.37583   0.83325   0.75042   0.00000  Uiso   1.00
C1069  C     0.52720   0.69070   0.77655   0.00000  Uiso   1.00
C1070  C     0.47280   0.97597   0.72345   0.00000  Uiso   1.00
C1071  C     0.47280   0.69059   0.72345   0.00000  Uiso   1.00
C1072  C     0.52720   0.97608   0.77655   0.00000  Uiso   1.00
H1073  H     0.54895   0.70891   0.79779   0.00000  Uiso   1.00
H1074  H     0.45105   0.95776   0.70221   0.00000  Uiso   1.00
H1075  H     0.45104   0.70872   0.70222   0.00000  Uiso   1.00
H1076  H     0.54896   0.95795   0.79778   0.00000  Uiso   1.00
N1077  N     0.50000   0.95240   0.75000   0.00000  Uiso   1.00
N1078  N     0.50000   0.71427   0.75000   0.00000  Uiso   1.00
I1079  I     0.59218   0.80286   0.86918   0.00000  Uiso   1.00
I1080  I     0.40782   0.86381   0.63082   0.00000  Uiso   1.00
C1081  C     0.38049   0.81823   0.53782   0.00000  Uiso   1.00
H1082  H     0.36184   0.79936   0.51244   0.00000  Uiso   1.00
H1083  H     0.38405   0.79479   0.56662   0.00000  Uiso   1.00
H1084  H     0.36253   0.84889   0.54704   0.00000  Uiso   1.00
C1085  C     0.61951   0.84842   0.96218   0.00000  Uiso   1.00
H1086  H     0.63817   0.86729   0.98757   0.00000  Uiso   1.00
H1087  H     0.63747   0.81777   0.95295   0.00000  Uiso   1.00
H1088  H     0.61596   0.87187   0.93339   0.00000  Uiso   1.00
O1089  O     0.77226   0.87154   0.74999   0.00000  Uiso   1.00
O1090  O     0.89441   0.79513   0.75000   0.00000  Uiso   1.00
O1091  O     0.89441   0.87154   0.75000   0.00000  Uiso   1.00
O1092  O     0.77226   0.79513   0.74999   0.00000  Uiso   1.00
C1093  C     0.75331   0.83330   0.75038   0.00000  Uiso   1.00
C1094  C     0.91335   0.83336   0.74962   0.00000  Uiso   1.00
O1095  O     0.83333   0.87156   0.68392   0.00000  Uiso   1.00
O1096  O     0.83334   0.79511   0.81607   0.00000  Uiso   1.00
O1097  O     0.83334   0.87156   0.81607   0.00000  Uiso   1.00
O1098  O     0.83333   0.79511   0.68392   0.00000  Uiso   1.00
C1099  C     0.83234   0.83331   0.66355   0.00000  Uiso   1.00
C1100  C     0.83433   0.83336   0.83645   0.00000  Uiso   1.00
Zn1101 Zn    0.83333   0.88437   0.75000   0.00000  Uiso   1.00
Zn1102 Zn    0.83333   0.78229   0.75000   0.00000  Uiso   1.00
C1103  C     0.87356   0.82800   0.90720   0.00000  Uiso   1.00
C1104  C     0.79310   0.83866   0.59280   0.00000  Uiso   1.00
C1105  C     0.83572   0.83358   0.88409   0.00000  Uiso   1.00
C1106  C     0.83095   0.83309   0.61591   0.00000  Uiso   1.00
C1107  C     0.79812   0.83860   0.90583   0.00000  Uiso   1.00
C1108  C     0.86855   0.82807   0.59417   0.00000  Uiso   1.00
C1109  C     0.79691   0.83648   0.95188   0.00000  Uiso   1.00
C1110  C     0.86976   0.83019   0.54812   0.00000  Uiso   1.00
C1111  C     0.83438   0.83387   0.97658   0.00000  Uiso   1.00
C1112  C     0.83229   0.83279   0.52342   0.00000  Uiso   1.00
C1113  C     0.87373   0.83245   0.95439   0.00000  Uiso   1.00
C1114  C     0.79294   0.83421   0.54561   0.00000  Uiso   1.00
C1115  C     0.75841   0.83508   0.97303   0.00000  Uiso   1.00
C1116  C     0.90826   0.83158   0.52697   0.00000  Uiso   1.00
C1117  C     0.75578   0.83147   0.51943   0.00000  Uiso   1.00
C1118  C     0.91089   0.83519   0.98057   0.00000  Uiso   1.00
H1119  H     0.76945   0.84173   0.88648   0.00000  Uiso   1.00
H1120  H     0.89721   0.82493   0.61352   0.00000  Uiso   1.00
H1121  H     0.73005   0.83454   0.95297   0.00000  Uiso   1.00
H1122  H     0.93662   0.83212   0.54703   0.00000  Uiso   1.00
C1123  C     0.68793   0.79362   0.73872   0.00000  Uiso   1.00
C1124  C     0.97874   0.87305   0.76127   0.00000  Uiso   1.00
C1125  C     0.97859   0.79371   0.73829   0.00000  Uiso   1.00
C1126  C     0.68808   0.87295   0.76171   0.00000  Uiso   1.00
H1127  H     0.70417   0.76287   0.72952   0.00000  Uiso   1.00
H1128  H     0.96249   0.90380   0.77048   0.00000  Uiso   1.00
H1129  H     0.96221   0.76299   0.72890   0.00000  Uiso   1.00
H1130  H     0.70446   0.90367   0.77110   0.00000  Uiso   1.00
C1131  C     0.95750   0.83342   0.74957   0.00000  Uiso   1.00
C1132  C     0.70916   0.83325   0.75042   0.00000  Uiso   1.00
C1133  C     0.86054   0.69070   0.77655   0.00000  Uiso   1.00
C1134  C     0.80613   0.97597   0.72345   0.00000  Uiso   1.00
C1135  C     0.80613   0.69059   0.72345   0.00000  Uiso   1.00
C1136  C     0.86054   0.97608   0.77655   0.00000  Uiso   1.00
H1137  H     0.88228   0.70891   0.79779   0.00000  Uiso   1.00
H1138  H     0.78438   0.95776   0.70221   0.00000  Uiso   1.00
H1139  H     0.78438   0.70872   0.70222   0.00000  Uiso   1.00
H1140  H     0.88229   0.95795   0.79778   0.00000  Uiso   1.00
N1141  N     0.83333   0.95240   0.75000   0.00000  Uiso   1.00
N1142  N     0.83333   0.71427   0.75000   0.00000  Uiso   1.00
I1143  I     0.92552   0.80286   0.86918   0.00000  Uiso   1.00
I1144  I     0.74115   0.86381   0.63082   0.00000  Uiso   1.00
C1145  C     0.71383   0.81823   0.53782   0.00000  Uiso   1.00
H1146  H     0.69517   0.79936   0.51244   0.00000  Uiso   1.00
H1147  H     0.71738   0.79479   0.56662   0.00000  Uiso   1.00
H1148  H     0.69586   0.84889   0.54704   0.00000  Uiso   1.00
C1149  C     0.95285   0.84842   0.96218   0.00000  Uiso   1.00
H1150  H     0.97151   0.86729   0.98757   0.00000  Uiso   1.00
H1151  H     0.97080   0.81777   0.95295   0.00000  Uiso   1.00
H1152  H     0.94929   0.87187   0.93339   0.00000  Uiso   1.00
loop_
_geom_bond_atom_site_label_1
_geom_bond_atom_site_label_2
_geom_bond_distance
_geom_bond_site_symmetry_2
_ccdc_geom_bond_type
O1     C5      1.282   .     A
O1     Zn13    1.996   .     S
O2     C6      1.282   .     A
O2     Zn14    1.996   .     S
O3     Zn13    1.996   .     S
O3     C6      1.282   .     A
O4     Zn14    1.996   .     S
O4     C5      1.282   .     A
C5     C44     1.417   .     S
C6     C43     1.417   .     S
O7     Zn13    2.007   .     S
O7     C11     1.283   .     A
O8     C12     1.283   .     A
O8     Zn14    2.007   .     S
O9     C12     1.282   .     A
O9     Zn13    2.008   .     S
O10    C11     1.282   .     A
O10    Zn14    2.008   .     S
C11    C18     1.422   .     S
C12    C17     1.422   .     S
Zn13   N53     2.009   .     S
Zn14   N54     2.009   .     S
C15    C25     1.414   .     A
C15    C17     1.402   .     A
C15    I55     2.155   .     S
C16    I56     2.155   .     S
C16    C18     1.402   .     A
C16    C26     1.414   .     A
C17    C19     1.382   .     A
C18    C20     1.382   .     A
C19    H31     1.087   .     S
C19    C21     1.377   .     A
C20    C22     1.377   .     A
C20    H32     1.087   .     S
C21    C27     1.392   .     A
C21    C23     1.408   .     A
C22    C28     1.392   .     A
C22    C24     1.408   .     A
C23    C25     1.430   .     A
C23    C600    1.400   .     S
C24    C26     1.430   .     A
C24    C599    1.400   1_554 S
C25    C30     1.423   .     A
C26    C29     1.423   .     A
C27    H33     1.086   .     S
C27    C605    1.392   .     S
C28    H34     1.086   .     S
C28    C606    1.392   1_554 S
C29    C57     1.509   .     S
C29    C603    1.392   1_554 S
C30    C61     1.509   .     S
C30    C604    1.392   .     S
C35    H39     1.084   .     S
C35    C44     1.397   .     A
C35    C165    1.369   1_455 S
C36    H40     1.084   .     S
C36    C43     1.397   .     A
C36    C102    1.369   .     S
C37    C43     1.396   .     A
C37    H41     1.084   .     S
C37    C99     1.369   .     S
C38    C44     1.396   .     A
C38    H42     1.084   .     S
C38    C164    1.369   1_455 S
C45    H49     1.082   .     S
C45    N54     1.366   .     A
C45    C432    1.417   1_545 S
C46    H50     1.082   .     S
C46    N53     1.366   .     A
C46    C239    1.417   .     S
C47    N54     1.366   .     A
C47    H51     1.082   .     S
C47    C430    1.417   1_545 S
C48    N53     1.366   .     A
C48    H52     1.082   .     S
C48    C237    1.417   .     S
C57    H58     1.111   .     S
C57    H60     1.109   .     S
C57    H59     1.110   .     S
C61    H64     1.110   .     S
C61    H62     1.111   .     S
C61    H63     1.109   .     S
O65    C69     1.282   .     A
O65    Zn77    1.996   .     S
O66    C70     1.282   .     A
O66    Zn78    1.996   .     S
O67    Zn77    1.996   .     S
O67    C70     1.282   .     A
O68    Zn78    1.996   .     S
O68    C69     1.282   .     A
C69    C108    1.417   .     S
C70    C107    1.417   .     S
O71    Zn77    2.007   .     S
O71    C75     1.283   .     A
O72    C76     1.283   .     A
O72    Zn78    2.007   .     S
O73    C76     1.282   .     A
O73    Zn77    2.008   .     S
O74    C75     1.282   .     A
O74    Zn78    2.008   .     S
C75    C82     1.422   .     S
C76    C81     1.422   .     S
Zn77   N117    2.009   .     S
Zn78   N118    2.009   .     S
C79    C89     1.414   .     A
C79    C81     1.402   .     A
C79    I119    2.155   .     S
C80    I120    2.155   .     S
C80    C82     1.402   .     A
C80    C90     1.414   .     A
C81    C83     1.382   .     A
C82    C84     1.382   .     A
C83    H95     1.087   .     S
C83    C85     1.377   .     A
C84    C86     1.377   .     A
C84    H96     1.087   .     S
C85    C91     1.392   .     A
C85    C87     1.408   .     A
C86    C92     1.392   .     A
C86    C88     1.408   .     A
C87    C89     1.430   .     A
C87    C664    1.400   .     S
C88    C90     1.430   .     A
C88    C663    1.400   1_554 S
C89    C94     1.423   .     A
C90    C93     1.423   .     A
C91    H97     1.086   .     S
C91    C669    1.392   .     S
C92    H98     1.086   .     S
C92    C670    1.392   1_554 S
C93    C121    1.509   .     S
C93    C667    1.392   1_554 S
C94    C125    1.509   .     S
C94    C668    1.392   .     S
C99    H103    1.084   .     S
C99    C108    1.397   .     A
C100   H104    1.084   .     S
C100   C107    1.397   .     A
C100   C166    1.369   .     S
C101   C107    1.396   .     A
C101   H105    1.084   .     S
C101   C163    1.369   .     S
C102   C108    1.396   .     A
C102   H106    1.084   .     S
C109   H113    1.082   .     S
C109   N118    1.366   .     A
C109   C496    1.417   1_545 S
C110   H114    1.082   .     S
C110   N117    1.366   .     A
C110   C303    1.417   .     S
C111   N118    1.366   .     A
C111   H115    1.082   .     S
C111   C494    1.417   1_545 S
C112   N117    1.366   .     A
C112   H116    1.082   .     S
C112   C301    1.417   .     S
C121   H122    1.111   .     S
C121   H124    1.109   .     S
C121   H123    1.110   .     S
C125   H128    1.110   .     S
C125   H126    1.111   .     S
C125   H127    1.109   .     S
O129   C133    1.282   .     A
O129   Zn141   1.996   .     S
O130   C134    1.282   .     A
O130   Zn142   1.996   .     S
O131   Zn141   1.996   .     S
O131   C134    1.282   .     A
O132   Zn142   1.996   .     S
O132   C133    1.282   .     A
C133   C172    1.417   .     S
C134   C171    1.417   .     S
O135   Zn141   2.007   .     S
O135   C139    1.283   .     A
O136   C140    1.283   .     A
O136   Zn142   2.007   .     S
O137   C140    1.282   .     A
O137   Zn141   2.008   .     S
O138   C139    1.282   .     A
O138   Zn142   2.008   .     S
C139   C146    1.422   .     S
C140   C145    1.422   .     S
Zn141  N181    2.009   .     S
Zn142  N182    2.009   .     S
C143   C153    1.414   .     A
C143   C145    1.402   .     A
C143   I183    2.155   .     S
C144   I184    2.155   .     S
C144   C146    1.402   .     A
C144   C154    1.414   .     A
C145   C147    1.382   .     A
C146   C148    1.382   .     A
C147   H159    1.087   .     S
C147   C149    1.377   .     A
C148   C150    1.377   .     A
C148   H160    1.087   .     S
C149   C155    1.392   .     A
C149   C151    1.408   .     A
C150   C156    1.392   .     A
C150   C152    1.408   .     A
C151   C153    1.430   .     A
C151   C728    1.400   .     S
C152   C154    1.430   .     A
C152   C727    1.400   1_554 S
C153   C158    1.423   .     A
C154   C157    1.423   .     A
C155   H161    1.086   .     S
C155   C733    1.392   .     S
C156   H162    1.086   .     S
C156   C734    1.392   1_554 S
C157   C185    1.509   .     S
C157   C731    1.392   1_554 S
C158   C189    1.509   .     S
C158   C732    1.392   .     S
C163   H167    1.084   .     S
C163   C172    1.397   .     A
C164   H168    1.084   .     S
C164   C171    1.397   .     A
C164   C38     1.369   1_655 S
C165   C171    1.396   .     A
C165   H169    1.084   .     S
C165   C35     1.369   1_655 S
C166   C172    1.396   .     A
C166   H170    1.084   .     S
C173   H177    1.082   .     S
C173   N182    1.366   .     A
C173   C560    1.417   1_545 S
C174   H178    1.082   .     S
C174   N181    1.366   .     A
C174   C367    1.417   .     S
C175   N182    1.366   .     A
C175   H179    1.082   .     S
C175   C558    1.417   1_545 S
C176   N181    1.366   .     A
C176   H180    1.082   .     S
C176   C365    1.417   .     S
C185   H186    1.111   .     S
C185   H188    1.109   .     S
C185   H187    1.110   .     S
C189   H192    1.110   .     S
C189   H190    1.111   .     S
C189   H191    1.109   .     S
O193   C197    1.282   .     A
O193   Zn205   1.996   .     S
O194   C198    1.282   .     A
O194   Zn206   1.996   .     S
O195   Zn205   1.996   .     S
O195   C198    1.282   .     A
O196   Zn206   1.996   .     S
O196   C197    1.282   .     A
C197   C236    1.417   .     S
C198   C235    1.417   .     S
O199   Zn205   2.007   .     S
O199   C203    1.283   .     A
O200   C204    1.283   .     A
O200   Zn206   2.007   .     S
O201   C204    1.282   .     A
O201   Zn205   2.008   .     S
O202   C203    1.282   .     A
O202   Zn206   2.008   .     S
C203   C210    1.422   .     S
C204   C209    1.422   .     S
Zn205  N245    2.009   .     S
Zn206  N246    2.009   .     S
C207   C217    1.414   .     A
C207   C209    1.402   .     A
C207   I247    2.155   .     S
C208   I248    2.155   .     S
C208   C210    1.402   .     A
C208   C218    1.414   .     A
C209   C211    1.382   .     A
C210   C212    1.382   .     A
C211   H223    1.087   .     S
C211   C213    1.377   .     A
C212   C214    1.377   .     A
C212   H224    1.087   .     S
C213   C219    1.392   .     A
C213   C215    1.408   .     A
C214   C220    1.392   .     A
C214   C216    1.408   .     A
C215   C217    1.430   .     A
C215   C792    1.400   .     S
C216   C218    1.430   .     A
C216   C791    1.400   1_554 S
C217   C222    1.423   .     A
C218   C221    1.423   .     A
C219   H225    1.086   .     S
C219   C797    1.392   .     S
C220   H226    1.086   .     S
C220   C798    1.392   1_554 S
C221   C249    1.509   .     S
C221   C795    1.392   1_554 S
C222   C253    1.509   .     S
C222   C796    1.392   .     S
C227   H231    1.084   .     S
C227   C236    1.397   .     A
C227   C357    1.369   1_455 S
C228   H232    1.084   .     S
C228   C235    1.397   .     A
C228   C294    1.369   .     S
C229   C235    1.396   .     A
C229   H233    1.084   .     S
C229   C291    1.369   .     S
C230   C236    1.396   .     A
C230   H234    1.084   .     S
C230   C356    1.369   1_455 S
C237   H241    1.082   .     S
C237   N246    1.366   .     A
C238   H242    1.082   .     S
C238   N245    1.366   .     A
C238   C431    1.417   .     S
C239   N246    1.366   .     A
C239   H243    1.082   .     S
C240   N245    1.366   .     A
C240   H244    1.082   .     S
C240   C429    1.417   .     S
C249   H250    1.111   .     S
C249   H252    1.109   .     S
C249   H251    1.110   .     S
C253   H256    1.110   .     S
C253   H254    1.111   .     S
C253   H255    1.109   .     S
O257   C261    1.282   .     A
O257   Zn269   1.996   .     S
O258   C262    1.282   .     A
O258   Zn270   1.996   .     S
O259   Zn269   1.996   .     S
O259   C262    1.282   .     A
O260   Zn270   1.996   .     S
O260   C261    1.282   .     A
C261   C300    1.417   .     S
C262   C299    1.417   .     S
O263   Zn269   2.007   .     S
O263   C267    1.283   .     A
O264   C268    1.283   .     A
O264   Zn270   2.007   .     S
O265   C268    1.282   .     A
O265   Zn269   2.008   .     S
O266   C267    1.282   .     A
O266   Zn270   2.008   .     S
C267   C274    1.422   .     S
C268   C273    1.422   .     S
Zn269  N309    2.009   .     S
Zn270  N310    2.009   .     S
C271   C281    1.414   .     A
C271   C273    1.402   .     A
C271   I311    2.155   .     S
C272   I312    2.155   .     S
C272   C274    1.402   .     A
C272   C282    1.414   .     A
C273   C275    1.382   .     A
C274   C276    1.382   .     A
C275   H287    1.087   .     S
C275   C277    1.377   .     A
C276   C278    1.377   .     A
C276   H288    1.087   .     S
C277   C283    1.392   .     A
C277   C279    1.408   .     A
C278   C284    1.392   .     A
C278   C280    1.408   .     A
C279   C281    1.430   .     A
C279   C856    1.400   .     S
C280   C282    1.430   .     A
C280   C855    1.400   1_554 S
C281   C286    1.423   .     A
C282   C285    1.423   .     A
C283   H289    1.086   .     S
C283   C861    1.392   .     S
C284   H290    1.086   .     S
C284   C862    1.392   1_554 S
C285   C313    1.509   .     S
C285   C859    1.392   1_554 S
C286   C317    1.509   .     S
C286   C860    1.392   .     S
C291   H295    1.084   .     S
C291   C300    1.397   .     A
C292   H296    1.084   .     S
C292   C299    1.397   .     A
C292   C358    1.369   .     S
C293   C299    1.396   .     A
C293   H297    1.084   .     S
C293   C355    1.369   .     S
C294   C300    1.396   .     A
C294   H298    1.084   .     S
C301   H305    1.082   .     S
C301   N310    1.366   .     A
C302   H306    1.082   .     S
C302   N309    1.366   .     A
C302   C495    1.417   .     S
C303   N310    1.366   .     A
C303   H307    1.082   .     S
C304   N309    1.366   .     A
C304   H308    1.082   .     S
C304   C493    1.417   .     S
C313   H314    1.111   .     S
C313   H316    1.109   .     S
C313   H315    1.110   .     S
C317   H320    1.110   .     S
C317   H318    1.111   .     S
C317   H319    1.109   .     S
O321   C325    1.282   .     A
O321   Zn333   1.996   .     S
O322   C326    1.282   .     A
O322   Zn334   1.996   .     S
O323   Zn333   1.996   .     S
O323   C326    1.282   .     A
O324   Zn334   1.996   .     S
O324   C325    1.282   .     A
C325   C364    1.417   .     S
C326   C363    1.417   .     S
O327   Zn333   2.007   .     S
O327   C331    1.283   .     A
O328   C332    1.283   .     A
O328   Zn334   2.007   .     S
O329   C332    1.282   .     A
O329   Zn333   2.008   .     S
O330   C331    1.282   .     A
O330   Zn334   2.008   .     S
C331   C338    1.422   .     S
C332   C337    1.422   .     S
Zn333  N373    2.009   .     S
Zn334  N374    2.009   .     S
C335   C345    1.414   .     A
C335   C337    1.402   .     A
C335   I375    2.155   .     S
C336   I376    2.155   .     S
C336   C338    1.402   .     A
C336   C346    1.414   .     A
C337   C339    1.382   .     A
C338   C340    1.382   .     A
C339   H351    1.087   .     S
C339   C341    1.377   .     A
C340   C342    1.377   .     A
C340   H352    1.087   .     S
C341   C347    1.392   .     A
C341   C343    1.408   .     A
C342   C348    1.392   .     A
C342   C344    1.408   .     A
C343   C345    1.430   .     A
C343   C920    1.400   .     S
C344   C346    1.430   .     A
C344   C919    1.400   1_554 S
C345   C350    1.423   .     A
C346   C349    1.423   .     A
C347   H353    1.086   .     S
C347   C925    1.392   .     S
C348   H354    1.086   .     S
C348   C926    1.392   1_554 S
C349   C377    1.509   .     S
C349   C923    1.392   1_554 S
C350   C381    1.509   .     S
C350   C924    1.392   .     S
C355   H359    1.084   .     S
C355   C364    1.397   .     A
C356   H360    1.084   .     S
C356   C363    1.397   .     A
C356   C230    1.369   1_655 S
C357   C363    1.396   .     A
C357   H361    1.084   .     S
C357   C227    1.369   1_655 S
C358   C364    1.396   .     A
C358   H362    1.084   .     S
C365   H369    1.082   .     S
C365   N374    1.366   .     A
C366   H370    1.082   .     S
C366   N373    1.366   .     A
C366   C559    1.417   .     S
C367   N374    1.366   .     A
C367   H371    1.082   .     S
C368   N373    1.366   .     A
C368   H372    1.082   .     S
C368   C557    1.417   .     S
C377   H378    1.111   .     S
C377   H380    1.109   .     S
C377   H379    1.110   .     S
C381   H384    1.110   .     S
C381   H382    1.111   .     S
C381   H383    1.109   .     S
O385   C389    1.282   .     A
O385   Zn397   1.996   .     S
O386   C390    1.282   .     A
O386   Zn398   1.996   .     S
O387   Zn397   1.996   .     S
O387   C390    1.282   .     A
O388   Zn398   1.996   .     S
O388   C389    1.282   .     A
C389   C428    1.417   .     S
C390   C427    1.417   .     S
O391   Zn397   2.007   .     S
O391   C395    1.283   .     A
O392   C396    1.283   .     A
O392   Zn398   2.007   .     S
O393   C396    1.282   .     A
O393   Zn397   2.008   .     S
O394   C395    1.282   .     A
O394   Zn398   2.008   .     S
C395   C402    1.422   .     S
C396   C401    1.422   .     S
Zn397  N437    2.009   .     S
Zn398  N438    2.009   .     S
C399   C409    1.414   .     A
C399   C401    1.402   .     A
C399   I439    2.155   .     S
C400   I440    2.155   .     S
C400   C402    1.402   .     A
C400   C410    1.414   .     A
C401   C403    1.382   .     A
C402   C404    1.382   .     A
C403   H415    1.087   .     S
C403   C405    1.377   .     A
C404   C406    1.377   .     A
C404   H416    1.087   .     S
C405   C411    1.392   .     A
C405   C407    1.408   .     A
C406   C412    1.392   .     A
C406   C408    1.408   .     A
C407   C409    1.430   .     A
C407   C984    1.400   .     S
C408   C410    1.430   .     A
C408   C983    1.400   1_554 S
C409   C414    1.423   .     A
C410   C413    1.423   .     A
C411   H417    1.086   .     S
C411   C989    1.392   .     S
C412   H418    1.086   .     S
C412   C990    1.392   1_554 S
C413   C441    1.509   .     S
C413   C987    1.392   1_554 S
C414   C445    1.509   .     S
C414   C988    1.392   .     S
C419   H423    1.084   .     S
C419   C428    1.397   .     A
C419   C549    1.369   1_455 S
C420   H424    1.084   .     S
C420   C427    1.397   .     A
C420   C486    1.369   .     S
C421   C427    1.396   .     A
C421   H425    1.084   .     S
C421   C483    1.369   .     S
C422   C428    1.396   .     A
C422   H426    1.084   .     S
C422   C548    1.369   1_455 S
C429   H433    1.082   .     S
C429   N438    1.366   .     A
C430   H434    1.082   .     S
C430   N437    1.366   .     A
C430   C47     1.417   1_565 S
C431   N438    1.366   .     A
C431   H435    1.082   .     S
C432   N437    1.366   .     A
C432   H436    1.082   .     S
C432   C45     1.417   1_565 S
C441   H442    1.111   .     S
C441   H444    1.109   .     S
C441   H443    1.110   .     S
C445   H448    1.110   .     S
C445   H446    1.111   .     S
C445   H447    1.109   .     S
O449   C453    1.282   .     A
O449   Zn461   1.996   .     S
O450   C454    1.282   .     A
O450   Zn462   1.996   .     S
O451   Zn461   1.996   .     S
O451   C454    1.282   .     A
O452   Zn462   1.996   .     S
O452   C453    1.282   .     A
C453   C492    1.417   .     S
C454   C491    1.417   .     S
O455   Zn461   2.007   .     S
O455   C459    1.283   .     A
O456   C460    1.283   .     A
O456   Zn462   2.007   .     S
O457   C460    1.282   .     A
O457   Zn461   2.008   .     S
O458   C459    1.282   .     A
O458   Zn462   2.008   .     S
C459   C466    1.422   .     S
C460   C465    1.422   .     S
Zn461  N501    2.009   .     S
Zn462  N502    2.009   .     S
C463   C473    1.414   .     A
C463   C465    1.402   .     A
C463   I503    2.155   .     S
C464   I504    2.155   .     S
C464   C466    1.402   .     A
C464   C474    1.414   .     A
C465   C467    1.382   .     A
C466   C468    1.382   .     A
C467   H479    1.087   .     S
C467   C469    1.377   .     A
C468   C470    1.377   .     A
C468   H480    1.087   .     S
C469   C475    1.392   .     A
C469   C471    1.408   .     A
C470   C476    1.392   .     A
C470   C472    1.408   .     A
C471   C473    1.430   .     A
C471   C1048   1.400   .     S
C472   C474    1.430   .     A
C472   C1047   1.400   1_554 S
C473   C478    1.423   .     A
C474   C477    1.423   .     A
C475   H481    1.086   .     S
C475   C1053   1.392   .     S
C476   H482    1.086   .     S
C476   C1054   1.392   1_554 S
C477   C505    1.509   .     S
C477   C1051   1.392   1_554 S
C478   C509    1.509   .     S
C478   C1052   1.392   .     S
C483   H487    1.084   .     S
C483   C492    1.397   .     A
C484   H488    1.084   .     S
C484   C491    1.397   .     A
C484   C550    1.369   .     S
C485   C491    1.396   .     A
C485   H489    1.084   .     S
C485   C547    1.369   .     S
C486   C492    1.396   .     A
C486   H490    1.084   .     S
C493   H497    1.082   .     S
C493   N502    1.366   .     A
C494   H498    1.082   .     S
C494   N501    1.366   .     A
C494   C111    1.417   1_565 S
C495   N502    1.366   .     A
C495   H499    1.082   .     S
C496   N501    1.366   .     A
C496   H500    1.082   .     S
C496   C109    1.417   1_565 S
C505   H506    1.111   .     S
C505   H508    1.109   .     S
C505   H507    1.110   .     S
C509   H512    1.110   .     S
C509   H510    1.111   .     S
C509   H511    1.109   .     S
O513   C517    1.282   .     A
O513   Zn525   1.996   .     S
O514   C518    1.282   .     A
O514   Zn526   1.996   .     S
O515   Zn525   1.996   .     S
O515   C518    1.282   .     A
O516   Zn526   1.996   .     S
O516   C517    1.282   .     A
C517   C556    1.417   .     S
C518   C555    1.417   .     S
O519   Zn525   2.007   .     S
O519   C523    1.283   .     A
O520   C524    1.283   .     A
O520   Zn526   2.007   .     S
O521   C524    1.282   .     A
O521   Zn525   2.008   .     S
O522   C523    1.282   .     A
O522   Zn526   2.008   .     S
C523   C530    1.422   .     S
C524   C529    1.422   .     S
Zn525  N565    2.009   .     S
Zn526  N566    2.009   .     S
C527   C537    1.414   .     A
C527   C529    1.402   .     A
C527   I567    2.155   .     S
C528   I568    2.155   .     S
C528   C530    1.402   .     A
C528   C538    1.414   .     A
C529   C531    1.382   .     A
C530   C532    1.382   .     A
C531   H543    1.087   .     S
C531   C533    1.377   .     A
C532   C534    1.377   .     A
C532   H544    1.087   .     S
C533   C539    1.392   .     A
C533   C535    1.408   .     A
C534   C540    1.392   .     A
C534   C536    1.408   .     A
C535   C537    1.430   .     A
C535   C1112   1.400   .     S
C536   C538    1.430   .     A
C536   C1111   1.400   1_554 S
C537   C542    1.423   .     A
C538   C541    1.423   .     A
C539   H545    1.086   .     S
C539   C1117   1.392   .     S
C540   H546    1.086   .     S
C540   C1118   1.392   1_554 S
C541   C569    1.509   .     S
C541   C1115   1.392   1_554 S
C542   C573    1.509   .     S
C542   C1116   1.392   .     S
C547   H551    1.084   .     S
C547   C556    1.397   .     A
C548   H552    1.084   .     S
C548   C555    1.397   .     A
C548   C422    1.369   1_655 S
C549   C555    1.396   .     A
C549   H553    1.084   .     S
C549   C419    1.369   1_655 S
C550   C556    1.396   .     A
C550   H554    1.084   .     S
C557   H561    1.082   .     S
C557   N566    1.366   .     A
C558   H562    1.082   .     S
C558   N565    1.366   .     A
C558   C175    1.417   1_565 S
C559   N566    1.366   .     A
C559   H563    1.082   .     S
C560   N565    1.366   .     A
C560   H564    1.082   .     S
C560   C173    1.417   1_565 S
C569   H570    1.111   .     S
C569   H572    1.109   .     S
C569   H571    1.110   .     S
C573   H576    1.110   .     S
C573   H574    1.111   .     S
C573   H575    1.109   .     S
O577   C581    1.282   .     A
O577   Zn589   1.996   .     S
O578   C582    1.282   .     A
O578   Zn590   1.996   .     S
O579   Zn589   1.996   .     S
O579   C582    1.282   .     A
O580   Zn590   1.996   .     S
O580   C581    1.282   .     A
C581   C620    1.417   .     S
C582   C619    1.417   .     S
O583   Zn589   2.007   .     S
O583   C587    1.283   .     A
O584   C588    1.283   .     A
O584   Zn590   2.007   .     S
O585   C588    1.282   .     A
O585   Zn589   2.008   .     S
O586   C587    1.282   .     A
O586   Zn590   2.008   .     S
C587   C594    1.422   .     S
C588   C593    1.422   .     S
Zn589  N629    2.009   .     S
Zn590  N630    2.009   .     S
C591   C601    1.414   .     A
C591   C593    1.402   .     A
C591   I631    2.155   .     S
C592   I632    2.155   .     S
C592   C594    1.402   .     A
C592   C602    1.414   .     A
C593   C595    1.382   .     A
C594   C596    1.382   .     A
C595   H607    1.087   .     S
C595   C597    1.377   .     A
C596   C598    1.377   .     A
C596   H608    1.087   .     S
C597   C603    1.392   .     A
C597   C599    1.408   .     A
C598   C604    1.392   .     A
C598   C600    1.408   .     A
C599   C601    1.430   .     A
C599   C24     1.400   1_556 S
C600   C602    1.430   .     A
C601   C606    1.423   .     A
C602   C605    1.423   .     A
C603   H609    1.086   .     S
C603   C29     1.392   1_556 S
C604   H610    1.086   .     S
C605   C633    1.509   .     S
C606   C637    1.509   .     S
C606   C28     1.392   1_556 S
C611   H615    1.084   .     S
C611   C620    1.397   .     A
C611   C741    1.369   1_455 S
C612   H616    1.084   .     S
C612   C619    1.397   .     A
C612   C678    1.369   .     S
C613   C619    1.396   .     A
C613   H617    1.084   .     S
C613   C675    1.369   .     S
C614   C620    1.396   .     A
C614   H618    1.084   .     S
C614   C740    1.369   1_455 S
C621   H625    1.082   .     S
C621   N630    1.366   .     A
C621   C1008   1.417   1_545 S
C622   H626    1.082   .     S
C622   N629    1.366   .     A
C622   C815    1.417   .     S
C623   N630    1.366   .     A
C623   H627    1.082   .     S
C623   C1006   1.417   1_545 S
C624   N629    1.366   .     A
C624   H628    1.082   .     S
C624   C813    1.417   .     S
C633   H634    1.111   .     S
C633   H636    1.109   .     S
C633   H635    1.110   .     S
C637   H640    1.110   .     S
C637   H638    1.111   .     S
C637   H639    1.109   .     S
O641   C645    1.282   .     A
O641   Zn653   1.996   .     S
O642   C646    1.282   .     A
O642   Zn654   1.996   .     S
O643   Zn653   1.996   .     S
O643   C646    1.282   .     A
O644   Zn654   1.996   .     S
O644   C645    1.282   .     A
C645   C684    1.417   .     S
C646   C683    1.417   .     S
O647   Zn653   2.007   .     S
O647   C651    1.283   .     A
O648   C652    1.283   .     A
O648   Zn654   2.007   .     S
O649   C652    1.282   .     A
O649   Zn653   2.008   .     S
O650   C651    1.282   .     A
O650   Zn654   2.008   .     S
C651   C658    1.422   .     S
C652   C657    1.422   .     S
Zn653  N693    2.009   .     S
Zn654  N694    2.009   .     S
C655   C665    1.414   .     A
C655   C657    1.402   .     A
C655   I695    2.155   .     S
C656   I696    2.155   .     S
C656   C658    1.402   .     A
C656   C666    1.414   .     A
C657   C659    1.382   .     A
C658   C660    1.382   .     A
C659   H671    1.087   .     S
C659   C661    1.377   .     A
C660   C662    1.377   .     A
C660   H672    1.087   .     S
C661   C667    1.392   .     A
C661   C663    1.408   .     A
C662   C668    1.392   .     A
C662   C664    1.408   .     A
C663   C665    1.430   .     A
C663   C88     1.400   1_556 S
C664   C666    1.430   .     A
C665   C670    1.423   .     A
C666   C669    1.423   .     A
C667   H673    1.086   .     S
C667   C93     1.392   1_556 S
C668   H674    1.086   .     S
C669   C697    1.509   .     S
C670   C701    1.509   .     S
C670   C92     1.392   1_556 S
C675   H679    1.084   .     S
C675   C684    1.397   .     A
C676   H680    1.084   .     S
C676   C683    1.397   .     A
C676   C742    1.369   .     S
C677   C683    1.396   .     A
C677   H681    1.084   .     S
C677   C739    1.369   .     S
C678   C684    1.396   .     A
C678   H682    1.084   .     S
C685   H689    1.082   .     S
C685   N694    1.366   .     A
C685   C1072   1.417   1_545 S
C686   H690    1.082   .     S
C686   N693    1.366   .     A
C686   C879    1.417   .     S
C687   N694    1.366   .     A
C687   H691    1.082   .     S
C687   C1070   1.417   1_545 S
C688   N693    1.366   .     A
C688   H692    1.082   .     S
C688   C877    1.417   .     S
C697   H698    1.111   .     S
C697   H700    1.109   .     S
C697   H699    1.110   .     S
C701   H704    1.110   .     S
C701   H702    1.111   .     S
C701   H703    1.109   .     S
O705   C709    1.282   .     A
O705   Zn717   1.996   .     S
O706   C710    1.282   .     A
O706   Zn718   1.996   .     S
O707   Zn717   1.996   .     S
O707   C710    1.282   .     A
O708   Zn718   1.996   .     S
O708   C709    1.282   .     A
C709   C748    1.417   .     S
C710   C747    1.417   .     S
O711   Zn717   2.007   .     S
O711   C715    1.283   .     A
O712   C716    1.283   .     A
O712   Zn718   2.007   .     S
O713   C716    1.282   .     A
O713   Zn717   2.008   .     S
O714   C715    1.282   .     A
O714   Zn718   2.008   .     S
C715   C722    1.422   .     S
C716   C721    1.422   .     S
Zn717  N757    2.009   .     S
Zn718  N758    2.009   .     S
C719   C729    1.414   .     A
C719   C721    1.402   .     A
C719   I759    2.155   .     S
C720   I760    2.155   .     S
C720   C722    1.402   .     A
C720   C730    1.414   .     A
C721   C723    1.382   .     A
C722   C724    1.382   .     A
C723   H735    1.087   .     S
C723   C725    1.377   .     A
C724   C726    1.377   .     A
C724   H736    1.087   .     S
C725   C731    1.392   .     A
C725   C727    1.408   .     A
C726   C732    1.392   .     A
C726   C728    1.408   .     A
C727   C729    1.430   .     A
C727   C152    1.400   1_556 S
C728   C730    1.430   .     A
C729   C734    1.423   .     A
C730   C733    1.423   .     A
C731   H737    1.086   .     S
C731   C157    1.392   1_556 S
C732   H738    1.086   .     S
C733   C761    1.509   .     S
C734   C765    1.509   .     S
C734   C156    1.392   1_556 S
C739   H743    1.084   .     S
C739   C748    1.397   .     A
C740   H744    1.084   .     S
C740   C747    1.397   .     A
C740   C614    1.369   1_655 S
C741   C747    1.396   .     A
C741   H745    1.084   .     S
C741   C611    1.369   1_655 S
C742   C748    1.396   .     A
C742   H746    1.084   .     S
C749   H753    1.082   .     S
C749   N758    1.366   .     A
C749   C1136   1.417   1_545 S
C750   H754    1.082   .     S
C750   N757    1.366   .     A
C750   C943    1.417   .     S
C751   N758    1.366   .     A
C751   H755    1.082   .     S
C751   C1134   1.417   1_545 S
C752   N757    1.366   .     A
C752   H756    1.082   .     S
C752   C941    1.417   .     S
C761   H762    1.111   .     S
C761   H764    1.109   .     S
C761   H763    1.110   .     S
C765   H768    1.110   .     S
C765   H766    1.111   .     S
C765   H767    1.109   .     S
O769   C773    1.282   .     A
O769   Zn781   1.996   .     S
O770   C774    1.282   .     A
O770   Zn782   1.996   .     S
O771   Zn781   1.996   .     S
O771   C774    1.282   .     A
O772   Zn782   1.996   .     S
O772   C773    1.282   .     A
C773   C812    1.417   .     S
C774   C811    1.417   .     S
O775   Zn781   2.007   .     S
O775   C779    1.283   .     A
O776   C780    1.283   .     A
O776   Zn782   2.007   .     S
O777   C780    1.282   .     A
O777   Zn781   2.008   .     S
O778   C779    1.282   .     A
O778   Zn782   2.008   .     S
C779   C786    1.422   .     S
C780   C785    1.422   .     S
Zn781  N821    2.009   .     S
Zn782  N822    2.009   .     S
C783   C793    1.414   .     A
C783   C785    1.402   .     A
C783   I823    2.155   .     S
C784   I824    2.155   .     S
C784   C786    1.402   .     A
C784   C794    1.414   .     A
C785   C787    1.382   .     A
C786   C788    1.382   .     A
C787   H799    1.087   .     S
C787   C789    1.377   .     A
C788   C790    1.377   .     A
C788   H800    1.087   .     S
C789   C795    1.392   .     A
C789   C791    1.408   .     A
C790   C796    1.392   .     A
C790   C792    1.408   .     A
C791   C793    1.430   .     A
C791   C216    1.400   1_556 S
C792   C794    1.430   .     A
C793   C798    1.423   .     A
C794   C797    1.423   .     A
C795   H801    1.086   .     S
C795   C221    1.392   1_556 S
C796   H802    1.086   .     S
C797   C825    1.509   .     S
C798   C829    1.509   .     S
C798   C220    1.392   1_556 S
C803   H807    1.084   .     S
C803   C812    1.397   .     A
C803   C933    1.369   1_455 S
C804   H808    1.084   .     S
C804   C811    1.397   .     A
C804   C870    1.369   .     S
C805   C811    1.396   .     A
C805   H809    1.084   .     S
C805   C867    1.369   .     S
C806   C812    1.396   .     A
C806   H810    1.084   .     S
C806   C932    1.369   1_455 S
C813   H817    1.082   .     S
C813   N822    1.366   .     A
C814   H818    1.082   .     S
C814   N821    1.366   .     A
C814   C1007   1.417   .     S
C815   N822    1.366   .     A
C815   H819    1.082   .     S
C816   N821    1.366   .     A
C816   H820    1.082   .     S
C816   C1005   1.417   .     S
C825   H826    1.111   .     S
C825   H828    1.109   .     S
C825   H827    1.110   .     S
C829   H832    1.110   .     S
C829   H830    1.111   .     S
C829   H831    1.109   .     S
O833   C837    1.282   .     A
O833   Zn845   1.996   .     S
O834   C838    1.282   .     A
O834   Zn846   1.996   .     S
O835   Zn845   1.996   .     S
O835   C838    1.282   .     A
O836   Zn846   1.996   .     S
O836   C837    1.282   .     A
C837   C876    1.417   .     S
C838   C875    1.417   .     S
O839   Zn845   2.007   .     S
O839   C843    1.283   .     A
O840   C844    1.283   .     A
O840   Zn846   2.007   .     S
O841   C844    1.282   .     A
O841   Zn845   2.008   .     S
O842   C843    1.282   .     A
O842   Zn846   2.008   .     S
C843   C850    1.422   .     S
C844   C849    1.422   .     S
Zn845  N885    2.009   .     S
Zn846  N886    2.009   .     S
C847   C857    1.414   .     A
C847   C849    1.402   .     A
C847   I887    2.155   .     S
C848   I888    2.155   .     S
C848   C850    1.402   .     A
C848   C858    1.414   .     A
C849   C851    1.382   .     A
C850   C852    1.382   .     A
C851   H863    1.087   .     S
C851   C853    1.377   .     A
C852   C854    1.377   .     A
C852   H864    1.087   .     S
C853   C859    1.392   .     A
C853   C855    1.408   .     A
C854   C860    1.392   .     A
C854   C856    1.408   .     A
C855   C857    1.430   .     A
C855   C280    1.400   1_556 S
C856   C858    1.430   .     A
C857   C862    1.423   .     A
C858   C861    1.423   .     A
C859   H865    1.086   .     S
C859   C285    1.392   1_556 S
C860   H866    1.086   .     S
C861   C889    1.509   .     S
C862   C893    1.509   .     S
C862   C284    1.392   1_556 S
C867   H871    1.084   .     S
C867   C876    1.397   .     A
C868   H872    1.084   .     S
C868   C875    1.397   .     A
C868   C934    1.369   .     S
C869   C875    1.396   .     A
C869   H873    1.084   .     S
C869   C931    1.369   .     S
C870   C876    1.396   .     A
C870   H874    1.084   .     S
C877   H881    1.082   .     S
C877   N886    1.366   .     A
C878   H882    1.082   .     S
C878   N885    1.366   .     A
C878   C1071   1.417   .     S
C879   N886    1.366   .     A
C879   H883    1.082   .     S
C880   N885    1.366   .     A
C880   H884    1.082   .     S
C880   C1069   1.417   .     S
C889   H890    1.111   .     S
C889   H892    1.109   .     S
C889   H891    1.110   .     S
C893   H896    1.110   .     S
C893   H894    1.111   .     S
C893   H895    1.109   .     S
O897   C901    1.282   .     A
O897   Zn909   1.996   .     S
O898   C902    1.282   .     A
O898   Zn910   1.996   .     S
O899   Zn909   1.996   .     S
O899   C902    1.282   .     A
O900   Zn910   1.996   .     S
O900   C901    1.282   .     A
C901   C940    1.417   .     S
C902   C939    1.417   .     S
O903   Zn909   2.007   .     S
O903   C907    1.283   .     A
O904   C908    1.283   .     A
O904   Zn910   2.007   .     S
O905   C908    1.282   .     A
O905   Zn909   2.008   .     S
O906   C907    1.282   .     A
O906   Zn910   2.008   .     S
C907   C914    1.422   .     S
C908   C913    1.422   .     S
Zn909  N949    2.009   .     S
Zn910  N950    2.009   .     S
C911   C921    1.414   .     A
C911   C913    1.402   .     A
C911   I951    2.155   .     S
C912   I952    2.155   .     S
C912   C914    1.402   .     A
C912   C922    1.414   .     A
C913   C915    1.382   .     A
C914   C916    1.382   .     A
C915   H927    1.087   .     S
C915   C917    1.377   .     A
C916   C918    1.377   .     A
C916   H928    1.087   .     S
C917   C923    1.392   .     A
C917   C919    1.408   .     A
C918   C924    1.392   .     A
C918   C920    1.408   .     A
C919   C921    1.430   .     A
C919   C344    1.400   1_556 S
C920   C922    1.430   .     A
C921   C926    1.423   .     A
C922   C925    1.423   .     A
C923   H929    1.086   .     S
C923   C349    1.392   1_556 S
C924   H930    1.086   .     S
C925   C953    1.509   .     S
C926   C957    1.509   .     S
C926   C348    1.392   1_556 S
C931   H935    1.084   .     S
C931   C940    1.397   .     A
C932   H936    1.084   .     S
C932   C939    1.397   .     A
C932   C806    1.369   1_655 S
C933   C939    1.396   .     A
C933   H937    1.084   .     S
C933   C803    1.369   1_655 S
C934   C940    1.396   .     A
C934   H938    1.084   .     S
C941   H945    1.082   .     S
C941   N950    1.366   .     A
C942   H946    1.082   .     S
C942   N949    1.366   .     A
C942   C1135   1.417   .     S
C943   N950    1.366   .     A
C943   H947    1.082   .     S
C944   N949    1.366   .     A
C944   H948    1.082   .     S
C944   C1133   1.417   .     S
C953   H954    1.111   .     S
C953   H956    1.109   .     S
C953   H955    1.110   .     S
C957   H960    1.110   .     S
C957   H958    1.111   .     S
C957   H959    1.109   .     S
O961   C965    1.282   .     A
O961   Zn973   1.996   .     S
O962   C966    1.282   .     A
O962   Zn974   1.996   .     S
O963   Zn973   1.996   .     S
O963   C966    1.282   .     A
O964   Zn974   1.996   .     S
O964   C965    1.282   .     A
C965   C1004   1.417   .     S
C966   C1003   1.417   .     S
O967   Zn973   2.007   .     S
O967   C971    1.283   .     A
O968   C972    1.283   .     A
O968   Zn974   2.007   .     S
O969   C972    1.282   .     A
O969   Zn973   2.008   .     S
O970   C971    1.282   .     A
O970   Zn974   2.008   .     S
C971   C978    1.422   .     S
C972   C977    1.422   .     S
Zn973  N1013   2.009   .     S
Zn974  N1014   2.009   .     S
C975   C985    1.414   .     A
C975   C977    1.402   .     A
C975   I1015   2.155   .     S
C976   I1016   2.155   .     S
C976   C978    1.402   .     A
C976   C986    1.414   .     A
C977   C979    1.382   .     A
C978   C980    1.382   .     A
C979   H991    1.087   .     S
C979   C981    1.377   .     A
C980   C982    1.377   .     A
C980   H992    1.087   .     S
C981   C987    1.392   .     A
C981   C983    1.408   .     A
C982   C988    1.392   .     A
C982   C984    1.408   .     A
C983   C985    1.430   .     A
C983   C408    1.400   1_556 S
C984   C986    1.430   .     A
C985   C990    1.423   .     A
C986   C989    1.423   .     A
C987   H993    1.086   .     S
C987   C413    1.392   1_556 S
C988   H994    1.086   .     S
C989   C1017   1.509   .     S
C990   C1021   1.509   .     S
C990   C412    1.392   1_556 S
C995   H999    1.084   .     S
C995   C1004   1.397   .     A
C995   C1125   1.369   1_455 S
C996   H1000   1.084   .     S
C996   C1003   1.397   .     A
C996   C1062   1.369   .     S
C997   C1003   1.396   .     A
C997   H1001   1.084   .     S
C997   C1059   1.369   .     S
C998   C1004   1.396   .     A
C998   H1002   1.084   .     S
C998   C1124   1.369   1_455 S
C1005  H1009   1.082   .     S
C1005  N1014   1.366   .     A
C1006  H1010   1.082   .     S
C1006  N1013   1.366   .     A
C1006  C623    1.417   1_565 S
C1007  N1014   1.366   .     A
C1007  H1011   1.082   .     S
C1008  N1013   1.366   .     A
C1008  H1012   1.082   .     S
C1008  C621    1.417   1_565 S
C1017  H1018   1.111   .     S
C1017  H1020   1.109   .     S
C1017  H1019   1.110   .     S
C1021  H1024   1.110   .     S
C1021  H1022   1.111   .     S
C1021  H1023   1.109   .     S
O1025  C1029   1.282   .     A
O1025  Zn1037  1.996   .     S
O1026  C1030   1.282   .     A
O1026  Zn1038  1.996   .     S
O1027  Zn1037  1.996   .     S
O1027  C1030   1.282   .     A
O1028  Zn1038  1.996   .     S
O1028  C1029   1.282   .     A
C1029  C1068   1.417   .     S
C1030  C1067   1.417   .     S
O1031  Zn1037  2.007   .     S
O1031  C1035   1.283   .     A
O1032  C1036   1.283   .     A
O1032  Zn1038  2.007   .     S
O1033  C1036   1.282   .     A
O1033  Zn1037  2.008   .     S
O1034  C1035   1.282   .     A
O1034  Zn1038  2.008   .     S
C1035  C1042   1.422   .     S
C1036  C1041   1.422   .     S
Zn1037 N1077   2.009   .     S
Zn1038 N1078   2.009   .     S
C1039  C1049   1.414   .     A
C1039  C1041   1.402   .     A
C1039  I1079   2.155   .     S
C1040  I1080   2.155   .     S
C1040  C1042   1.402   .     A
C1040  C1050   1.414   .     A
C1041  C1043   1.382   .     A
C1042  C1044   1.382   .     A
C1043  H1055   1.087   .     S
C1043  C1045   1.377   .     A
C1044  C1046   1.377   .     A
C1044  H1056   1.087   .     S
C1045  C1051   1.392   .     A
C1045  C1047   1.408   .     A
C1046  C1052   1.392   .     A
C1046  C1048   1.408   .     A
C1047  C1049   1.430   .     A
C1047  C472    1.400   1_556 S
C1048  C1050   1.430   .     A
C1049  C1054   1.423   .     A
C1050  C1053   1.423   .     A
C1051  H1057   1.086   .     S
C1051  C477    1.392   1_556 S
C1052  H1058   1.086   .     S
C1053  C1081   1.509   .     S
C1054  C1085   1.509   .     S
C1054  C476    1.392   1_556 S
C1059  H1063   1.084   .     S
C1059  C1068   1.397   .     A
C1060  H1064   1.084   .     S
C1060  C1067   1.397   .     A
C1060  C1126   1.369   .     S
C1061  C1067   1.396   .     A
C1061  H1065   1.084   .     S
C1061  C1123   1.369   .     S
C1062  C1068   1.396   .     A
C1062  H1066   1.084   .     S
C1069  H1073   1.082   .     S
C1069  N1078   1.366   .     A
C1070  H1074   1.082   .     S
C1070  N1077   1.366   .     A
C1070  C687    1.417   1_565 S
C1071  N1078   1.366   .     A
C1071  H1075   1.082   .     S
C1072  N1077   1.366   .     A
C1072  H1076   1.082   .     S
C1072  C685    1.417   1_565 S
C1081  H1082   1.111   .     S
C1081  H1084   1.109   .     S
C1081  H1083   1.110   .     S
C1085  H1088   1.110   .     S
C1085  H1086   1.111   .     S
C1085  H1087   1.109   .     S
O1089  C1093   1.282   .     A
O1089  Zn1101  1.996   .     S
O1090  C1094   1.282   .     A
O1090  Zn1102  1.996   .     S
O1091  Zn1101  1.996   .     S
O1091  C1094   1.282   .     A
O1092  Zn1102  1.996   .     S
O1092  C1093   1.282   .     A
C1093  C1132   1.417   .     S
C1094  C1131   1.417   .     S
O1095  Zn1101  2.007   .     S
O1095  C1099   1.283   .     A
O1096  C1100   1.283   .     A
O1096  Zn1102  2.007   .     S
O1097  C1100   1.282   .     A
O1097  Zn1101  2.008   .     S
O1098  C1099   1.282   .     A
O1098  Zn1102  2.008   .     S
C1099  C1106   1.422   .     S
C1100  C1105   1.422   .     S
Zn1101 N1141   2.009   .     S
Zn1102 N1142   2.009   .     S
C1103  C1113   1.414   .     A
C1103  C1105   1.402   .     A
C1103  I1143   2.155   .     S
C1104  I1144   2.155   .     S
C1104  C1106   1.402   .     A
C1104  C1114   1.414   .     A
C1105  C1107   1.382   .     A
C1106  C1108   1.382   .     A
C1107  H1119   1.087   .     S
C1107  C1109   1.377   .     A
C1108  C1110   1.377   .     A
C1108  H1120   1.087   .     S
C1109  C1115   1.392   .     A
C1109  C1111   1.408   .     A
C1110  C1116   1.392   .     A
C1110  C1112   1.408   .     A
C1111  C1113   1.430   .     A
C1111  C536    1.400   1_556 S
C1112  C1114   1.430   .     A
C1113  C1118   1.423   .     A
C1114  C1117   1.423   .     A
C1115  H1121   1.086   .     S
C1115  C541    1.392   1_556 S
C1116  H1122   1.086   .     S
C1117  C1145   1.509   .     S
C1118  C1149   1.509   .     S
C1118  C540    1.392   1_556 S
C1123  H1127   1.084   .     S
C1123  C1132   1.397   .     A
C1124  H1128   1.084   .     S
C1124  C1131   1.397   .     A
C1124  C998    1.369   1_655 S
C1125  C1131   1.396   .     A
C1125  H1129   1.084   .     S
C1125  C995    1.369   1_655 S
C1126  C1132   1.396   .     A
C1126  H1130   1.084   .     S
C1133  H1137   1.082   .     S
C1133  N1142   1.366   .     A
C1134  H1138   1.082   .     S
C1134  N1141   1.366   .     A
C1134  C751    1.417   1_565 S
C1135  N1142   1.366   .     A
C1135  H1139   1.082   .     S
C1136  N1141   1.366   .     A
C1136  H1140   1.082   .     S
C1136  C749    1.417   1_565 S
C1145  H1146   1.111   .     S
C1145  H1148   1.109   .     S
C1145  H1147   1.110   .     S
C1149  H1152   1.110   .     S
C1149  H1150   1.111   .     S
C1149  H1151   1.109   .     S
