data_str_m2_o10_o17_pcu_sym.210
_audit_creation_date              2020-01-03
_audit_creation_method            'Materials Studio'
_symmetry_space_group_name_H-M    'P1'
_symmetry_Int_Tables_number       1
_symmetry_cell_setting            triclinic
loop_
_symmetry_equiv_pos_as_xyz
  x,y,z
_cell_length_a                    30.0690
_cell_length_b                    26.2018
_cell_length_c                    22.2891
_cell_angle_alpha                 101.9025
_cell_angle_beta                  94.1606
_cell_angle_gamma                 92.5026
loop_
_atom_site_label
_atom_site_type_symbol
_atom_site_fract_x
_atom_site_fract_y
_atom_site_fract_z
_atom_site_U_iso_or_equiv
_atom_site_adp_type
_atom_site_occupancy
C1     C     0.24761   0.06693   0.15198   0.00000  Uiso   1.00
C2     C     0.25259   0.26639   0.18136   0.00000  Uiso   1.00
C3     C     0.02010   0.08113   0.10050   0.00000  Uiso   1.00
C4     C     0.48002   0.25235   0.23026   0.00000  Uiso   1.00
C5     C     0.23923   0.01219   0.14664   0.00000  Uiso   1.00
C6     C     0.26137   0.32107   0.18662   0.00000  Uiso   1.00
C7     C     0.16462   0.16815   0.16768   0.00000  Uiso   1.00
C8     C     0.33536   0.16496   0.16559   0.00000  Uiso   1.00
C9     C     0.40939   0.20427   0.20083   0.00000  Uiso   1.00
C10    C     0.09055   0.12942   0.13029   0.00000  Uiso   1.00
C11    C     0.38347   0.16269   0.16399   0.00000  Uiso   1.00
C12    C     0.11644   0.17001   0.16895   0.00000  Uiso   1.00
C13    C     0.40350   0.12105   0.12657   0.00000  Uiso   1.00
C14    C     0.09632   0.21050   0.20768   0.00000  Uiso   1.00
C15    C     0.45087   0.11981   0.13124   0.00000  Uiso   1.00
C16    C     0.04909   0.21269   0.20129   0.00000  Uiso   1.00
C17    C     0.47650   0.16491   0.16549   0.00000  Uiso   1.00
C18    C     0.02339   0.16805   0.16621   0.00000  Uiso   1.00
C19    C     0.45537   0.20693   0.19961   0.00000  Uiso   1.00
C20    C     0.04458   0.12645   0.13155   0.00000  Uiso   1.00
C21    C     0.47390   0.07576   0.10311   0.00000  Uiso   1.00
C22    C     0.02624   0.25704   0.22860   0.00000  Uiso   1.00
Cu23   Cu    0.25501   0.17246   0.22813   0.00000  Uiso   1.00
Cu24   Cu    0.24500   0.16087   0.10521   0.00000  Uiso   1.00
H25    H     0.39328   0.23626   0.22822   0.00000  Uiso   1.00
H26    H     0.10663   0.09821   0.10176   0.00000  Uiso   1.00
H27    H     0.03770   0.04829   0.07763   0.00000  Uiso   1.00
H28    H     0.46270   0.28571   0.25244   0.00000  Uiso   1.00
H29    H     0.21511   0.12639   0.31633   0.00000  Uiso   1.00
H30    H     0.28484   0.20699   0.01702   0.00000  Uiso   1.00
N31    N     0.23745   0.15214   0.01284   0.00000  Uiso   1.00
N32    N     0.26256   0.18119   0.32049   0.00000  Uiso   1.00
O33    O     0.25326   0.09538   0.20659   0.00000  Uiso   1.00
O34    O     0.24675   0.23796   0.12674   0.00000  Uiso   1.00
O35    O     0.24480   0.08559   0.10279   0.00000  Uiso   1.00
O36    O     0.25520   0.24774   0.23055   0.00000  Uiso   1.00
O37    O     0.18936   0.17155   0.21857   0.00000  Uiso   1.00
O38    O     0.31065   0.16179   0.11476   0.00000  Uiso   1.00
O39    O     0.18090   0.16176   0.11477   0.00000  Uiso   1.00
O40    O     0.31910   0.17157   0.21857   0.00000  Uiso   1.00
C41    C     0.37557   0.08260   0.07882   0.00000  Uiso   1.00
H42    H     0.38656   0.07142   0.03286   0.00000  Uiso   1.00
O43    O     0.34130   0.06158   0.09081   0.00000  Uiso   1.00
C44    C     0.12448   0.24594   0.25802   0.00000  Uiso   1.00
H45    H     0.15673   0.26205   0.24959   0.00000  Uiso   1.00
O46    O     0.11240   0.25566   0.31007   0.00000  Uiso   1.00
C47    C     0.45251   0.02202   0.08392   0.00000  Uiso   1.00
H48    H     0.42334   0.01086   0.10523   0.00000  Uiso   1.00
O49    O     0.46811   0.32232   0.04547   0.00000  Uiso   1.00
C50    C     0.04736   0.31069   0.24870   0.00000  Uiso   1.00
H51    H     0.03450   0.00461   0.28607   0.00000  Uiso   1.00
O52    O     0.07714   0.32608   0.22115   0.00000  Uiso   1.00
S53    S     0.19355   0.31646   0.09275   0.00000  Uiso   1.00
O54    O     0.21125   0.28420   0.03670   0.00000  Uiso   1.00
O55    O     0.16361   0.28240   0.12137   0.00000  Uiso   1.00
O56    O     0.16361   0.02992   0.07101   0.00000  Uiso   1.00
H57    H     0.13466   0.01208   0.05246   0.00000  Uiso   1.00
S58    S     0.30643   0.01704   0.24160   0.00000  Uiso   1.00
O59    O     0.33406   0.30920   0.26098   0.00000  Uiso   1.00
O60    O     0.33622   0.05254   0.21477   0.00000  Uiso   1.00
O61    O     0.28499   0.05135   0.30403   0.00000  Uiso   1.00
H62    H     0.30462   0.08369   0.31678   0.00000  Uiso   1.00
C63    C     0.74761   0.06693   0.15198   0.00000  Uiso   1.00
C64    C     0.75259   0.26639   0.18136   0.00000  Uiso   1.00
C65    C     0.52010   0.08113   0.10050   0.00000  Uiso   1.00
C66    C     0.98002   0.25235   0.23026   0.00000  Uiso   1.00
C67    C     0.73923   0.01219   0.14664   0.00000  Uiso   1.00
C68    C     0.76137   0.32107   0.18662   0.00000  Uiso   1.00
C69    C     0.66462   0.16815   0.16768   0.00000  Uiso   1.00
C70    C     0.83536   0.16496   0.16559   0.00000  Uiso   1.00
C71    C     0.90939   0.20427   0.20083   0.00000  Uiso   1.00
C72    C     0.59055   0.12942   0.13029   0.00000  Uiso   1.00
C73    C     0.88347   0.16269   0.16399   0.00000  Uiso   1.00
C74    C     0.61644   0.17001   0.16895   0.00000  Uiso   1.00
C75    C     0.90350   0.12105   0.12657   0.00000  Uiso   1.00
C76    C     0.59632   0.21050   0.20768   0.00000  Uiso   1.00
C77    C     0.95087   0.11981   0.13124   0.00000  Uiso   1.00
C78    C     0.54909   0.21269   0.20129   0.00000  Uiso   1.00
C79    C     0.97650   0.16491   0.16549   0.00000  Uiso   1.00
C80    C     0.52339   0.16805   0.16621   0.00000  Uiso   1.00
C81    C     0.95537   0.20693   0.19961   0.00000  Uiso   1.00
C82    C     0.54458   0.12645   0.13155   0.00000  Uiso   1.00
C83    C     0.97390   0.07576   0.10311   0.00000  Uiso   1.00
C84    C     0.52624   0.25704   0.22860   0.00000  Uiso   1.00
Cu85   Cu    0.75501   0.17246   0.22813   0.00000  Uiso   1.00
Cu86   Cu    0.74500   0.16087   0.10521   0.00000  Uiso   1.00
H87    H     0.89328   0.23626   0.22822   0.00000  Uiso   1.00
H88    H     0.60663   0.09821   0.10176   0.00000  Uiso   1.00
H89    H     0.53770   0.04829   0.07763   0.00000  Uiso   1.00
H90    H     0.96270   0.28571   0.25244   0.00000  Uiso   1.00
H91    H     0.71511   0.12639   0.31633   0.00000  Uiso   1.00
H92    H     0.78484   0.20699   0.01702   0.00000  Uiso   1.00
N93    N     0.73745   0.15214   0.01284   0.00000  Uiso   1.00
N94    N     0.76256   0.18119   0.32049   0.00000  Uiso   1.00
O95    O     0.75326   0.09538   0.20659   0.00000  Uiso   1.00
O96    O     0.74675   0.23796   0.12674   0.00000  Uiso   1.00
O97    O     0.74480   0.08559   0.10279   0.00000  Uiso   1.00
O98    O     0.75520   0.24774   0.23055   0.00000  Uiso   1.00
O99    O     0.68936   0.17155   0.21857   0.00000  Uiso   1.00
O100   O     0.81065   0.16179   0.11476   0.00000  Uiso   1.00
O101   O     0.68090   0.16176   0.11477   0.00000  Uiso   1.00
O102   O     0.81910   0.17157   0.21857   0.00000  Uiso   1.00
C103   C     0.87557   0.08260   0.07882   0.00000  Uiso   1.00
H104   H     0.88656   0.07142   0.03286   0.00000  Uiso   1.00
O105   O     0.84130   0.06158   0.09081   0.00000  Uiso   1.00
C106   C     0.62448   0.24594   0.25802   0.00000  Uiso   1.00
H107   H     0.65673   0.26205   0.24959   0.00000  Uiso   1.00
O108   O     0.61240   0.25566   0.31007   0.00000  Uiso   1.00
C109   C     0.95251   0.02202   0.08392   0.00000  Uiso   1.00
H110   H     0.92334   0.01086   0.10523   0.00000  Uiso   1.00
O111   O     0.96811   0.32232   0.04547   0.00000  Uiso   1.00
C112   C     0.54736   0.31069   0.24870   0.00000  Uiso   1.00
H113   H     0.53450   0.00461   0.28607   0.00000  Uiso   1.00
O114   O     0.57714   0.32608   0.22115   0.00000  Uiso   1.00
S115   S     0.69355   0.31646   0.09275   0.00000  Uiso   1.00
O116   O     0.71125   0.28420   0.03670   0.00000  Uiso   1.00
O117   O     0.66361   0.28240   0.12137   0.00000  Uiso   1.00
O118   O     0.66361   0.02992   0.07101   0.00000  Uiso   1.00
H119   H     0.63466   0.01208   0.05246   0.00000  Uiso   1.00
S120   S     0.80643   0.01704   0.24160   0.00000  Uiso   1.00
O121   O     0.83406   0.30920   0.26098   0.00000  Uiso   1.00
O122   O     0.83622   0.05254   0.21477   0.00000  Uiso   1.00
O123   O     0.78499   0.05135   0.30403   0.00000  Uiso   1.00
H124   H     0.80462   0.08369   0.31678   0.00000  Uiso   1.00
C125   C     0.24761   0.40026   0.15198   0.00000  Uiso   1.00
C126   C     0.25259   0.59972   0.18136   0.00000  Uiso   1.00
C127   C     0.02010   0.41446   0.10050   0.00000  Uiso   1.00
C128   C     0.48002   0.58569   0.23026   0.00000  Uiso   1.00
C129   C     0.23923   0.34553   0.14664   0.00000  Uiso   1.00
C130   C     0.26137   0.65440   0.18662   0.00000  Uiso   1.00
C131   C     0.16462   0.50149   0.16768   0.00000  Uiso   1.00
C132   C     0.33536   0.49829   0.16559   0.00000  Uiso   1.00
C133   C     0.40939   0.53760   0.20083   0.00000  Uiso   1.00
C134   C     0.09055   0.46275   0.13029   0.00000  Uiso   1.00
C135   C     0.38347   0.49602   0.16399   0.00000  Uiso   1.00
C136   C     0.11644   0.50334   0.16895   0.00000  Uiso   1.00
C137   C     0.40350   0.45438   0.12657   0.00000  Uiso   1.00
C138   C     0.09632   0.54383   0.20768   0.00000  Uiso   1.00
C139   C     0.45087   0.45314   0.13124   0.00000  Uiso   1.00
C140   C     0.04909   0.54602   0.20129   0.00000  Uiso   1.00
C141   C     0.47650   0.49825   0.16549   0.00000  Uiso   1.00
C142   C     0.02339   0.50138   0.16621   0.00000  Uiso   1.00
C143   C     0.45537   0.54026   0.19961   0.00000  Uiso   1.00
C144   C     0.04458   0.45979   0.13155   0.00000  Uiso   1.00
C145   C     0.47390   0.40909   0.10311   0.00000  Uiso   1.00
C146   C     0.02624   0.59037   0.22860   0.00000  Uiso   1.00
Cu147  Cu    0.25501   0.50579   0.22813   0.00000  Uiso   1.00
Cu148  Cu    0.24500   0.49421   0.10521   0.00000  Uiso   1.00
H149   H     0.39328   0.56959   0.22822   0.00000  Uiso   1.00
H150   H     0.10663   0.43155   0.10176   0.00000  Uiso   1.00
H151   H     0.03770   0.38162   0.07763   0.00000  Uiso   1.00
H152   H     0.46270   0.61904   0.25244   0.00000  Uiso   1.00
H153   H     0.21511   0.45972   0.31633   0.00000  Uiso   1.00
H154   H     0.28484   0.54032   0.01702   0.00000  Uiso   1.00
N155   N     0.23745   0.48547   0.01284   0.00000  Uiso   1.00
N156   N     0.26256   0.51453   0.32049   0.00000  Uiso   1.00
O157   O     0.25326   0.42871   0.20659   0.00000  Uiso   1.00
O158   O     0.24675   0.57129   0.12674   0.00000  Uiso   1.00
O159   O     0.24480   0.41892   0.10279   0.00000  Uiso   1.00
O160   O     0.25520   0.58108   0.23055   0.00000  Uiso   1.00
O161   O     0.18936   0.50488   0.21857   0.00000  Uiso   1.00
O162   O     0.31065   0.49512   0.11476   0.00000  Uiso   1.00
O163   O     0.18090   0.49510   0.11477   0.00000  Uiso   1.00
O164   O     0.31910   0.50490   0.21857   0.00000  Uiso   1.00
C165   C     0.37557   0.41593   0.07882   0.00000  Uiso   1.00
H166   H     0.38656   0.40475   0.03286   0.00000  Uiso   1.00
O167   O     0.34130   0.39491   0.09081   0.00000  Uiso   1.00
C168   C     0.12448   0.57927   0.25802   0.00000  Uiso   1.00
H169   H     0.15673   0.59538   0.24959   0.00000  Uiso   1.00
O170   O     0.11240   0.58900   0.31007   0.00000  Uiso   1.00
C171   C     0.45251   0.35535   0.08392   0.00000  Uiso   1.00
H172   H     0.42334   0.34419   0.10523   0.00000  Uiso   1.00
O173   O     0.46811   0.65565   0.04547   0.00000  Uiso   1.00
C174   C     0.04736   0.64402   0.24870   0.00000  Uiso   1.00
H175   H     0.03450   0.33794   0.28607   0.00000  Uiso   1.00
O176   O     0.07714   0.65941   0.22115   0.00000  Uiso   1.00
S177   S     0.19355   0.64979   0.09275   0.00000  Uiso   1.00
O178   O     0.21125   0.61753   0.03670   0.00000  Uiso   1.00
O179   O     0.16361   0.61573   0.12137   0.00000  Uiso   1.00
O180   O     0.16361   0.36326   0.07101   0.00000  Uiso   1.00
H181   H     0.13466   0.34542   0.05246   0.00000  Uiso   1.00
S182   S     0.30643   0.35037   0.24160   0.00000  Uiso   1.00
O183   O     0.33406   0.64254   0.26098   0.00000  Uiso   1.00
O184   O     0.33622   0.38588   0.21477   0.00000  Uiso   1.00
O185   O     0.28499   0.38468   0.30403   0.00000  Uiso   1.00
H186   H     0.30462   0.41703   0.31678   0.00000  Uiso   1.00
C187   C     0.74761   0.40026   0.15198   0.00000  Uiso   1.00
C188   C     0.75259   0.59972   0.18136   0.00000  Uiso   1.00
C189   C     0.52010   0.41446   0.10050   0.00000  Uiso   1.00
C190   C     0.98002   0.58569   0.23026   0.00000  Uiso   1.00
C191   C     0.73923   0.34553   0.14664   0.00000  Uiso   1.00
C192   C     0.76137   0.65440   0.18662   0.00000  Uiso   1.00
C193   C     0.66462   0.50149   0.16768   0.00000  Uiso   1.00
C194   C     0.83536   0.49829   0.16559   0.00000  Uiso   1.00
C195   C     0.90939   0.53760   0.20083   0.00000  Uiso   1.00
C196   C     0.59055   0.46275   0.13029   0.00000  Uiso   1.00
C197   C     0.88347   0.49602   0.16399   0.00000  Uiso   1.00
C198   C     0.61644   0.50334   0.16895   0.00000  Uiso   1.00
C199   C     0.90350   0.45438   0.12657   0.00000  Uiso   1.00
C200   C     0.59632   0.54383   0.20768   0.00000  Uiso   1.00
C201   C     0.95087   0.45314   0.13124   0.00000  Uiso   1.00
C202   C     0.54909   0.54602   0.20129   0.00000  Uiso   1.00
C203   C     0.97650   0.49825   0.16549   0.00000  Uiso   1.00
C204   C     0.52339   0.50138   0.16621   0.00000  Uiso   1.00
C205   C     0.95537   0.54026   0.19961   0.00000  Uiso   1.00
C206   C     0.54458   0.45979   0.13155   0.00000  Uiso   1.00
C207   C     0.97390   0.40909   0.10311   0.00000  Uiso   1.00
C208   C     0.52624   0.59037   0.22860   0.00000  Uiso   1.00
Cu209  Cu    0.75501   0.50579   0.22813   0.00000  Uiso   1.00
Cu210  Cu    0.74500   0.49421   0.10521   0.00000  Uiso   1.00
H211   H     0.89328   0.56959   0.22822   0.00000  Uiso   1.00
H212   H     0.60663   0.43155   0.10176   0.00000  Uiso   1.00
H213   H     0.53770   0.38162   0.07763   0.00000  Uiso   1.00
H214   H     0.96270   0.61904   0.25244   0.00000  Uiso   1.00
H215   H     0.71511   0.45972   0.31633   0.00000  Uiso   1.00
H216   H     0.78484   0.54032   0.01702   0.00000  Uiso   1.00
N217   N     0.73745   0.48547   0.01284   0.00000  Uiso   1.00
N218   N     0.76256   0.51453   0.32049   0.00000  Uiso   1.00
O219   O     0.75326   0.42871   0.20659   0.00000  Uiso   1.00
O220   O     0.74675   0.57129   0.12674   0.00000  Uiso   1.00
O221   O     0.74480   0.41892   0.10279   0.00000  Uiso   1.00
O222   O     0.75520   0.58108   0.23055   0.00000  Uiso   1.00
O223   O     0.68936   0.50488   0.21857   0.00000  Uiso   1.00
O224   O     0.81065   0.49512   0.11476   0.00000  Uiso   1.00
O225   O     0.68090   0.49510   0.11477   0.00000  Uiso   1.00
O226   O     0.81910   0.50490   0.21857   0.00000  Uiso   1.00
C227   C     0.87557   0.41593   0.07882   0.00000  Uiso   1.00
H228   H     0.88656   0.40475   0.03286   0.00000  Uiso   1.00
O229   O     0.84130   0.39491   0.09081   0.00000  Uiso   1.00
C230   C     0.62448   0.57927   0.25802   0.00000  Uiso   1.00
H231   H     0.65673   0.59538   0.24959   0.00000  Uiso   1.00
O232   O     0.61240   0.58900   0.31007   0.00000  Uiso   1.00
C233   C     0.95251   0.35535   0.08392   0.00000  Uiso   1.00
H234   H     0.92334   0.34419   0.10523   0.00000  Uiso   1.00
O235   O     0.96811   0.65565   0.04547   0.00000  Uiso   1.00
C236   C     0.54736   0.64402   0.24870   0.00000  Uiso   1.00
H237   H     0.53450   0.33794   0.28607   0.00000  Uiso   1.00
O238   O     0.57714   0.65941   0.22115   0.00000  Uiso   1.00
S239   S     0.69355   0.64979   0.09275   0.00000  Uiso   1.00
O240   O     0.71125   0.61753   0.03670   0.00000  Uiso   1.00
O241   O     0.66361   0.61573   0.12137   0.00000  Uiso   1.00
O242   O     0.66361   0.36326   0.07101   0.00000  Uiso   1.00
H243   H     0.63466   0.34542   0.05246   0.00000  Uiso   1.00
S244   S     0.80643   0.35037   0.24160   0.00000  Uiso   1.00
O245   O     0.83406   0.64254   0.26098   0.00000  Uiso   1.00
O246   O     0.83622   0.38588   0.21477   0.00000  Uiso   1.00
O247   O     0.78499   0.38468   0.30403   0.00000  Uiso   1.00
H248   H     0.80462   0.41703   0.31678   0.00000  Uiso   1.00
C249   C     0.24761   0.73359   0.15198   0.00000  Uiso   1.00
C250   C     0.25259   0.93306   0.18136   0.00000  Uiso   1.00
C251   C     0.02010   0.74779   0.10050   0.00000  Uiso   1.00
C252   C     0.48002   0.91902   0.23026   0.00000  Uiso   1.00
C253   C     0.23923   0.67886   0.14664   0.00000  Uiso   1.00
C254   C     0.26137   0.98774   0.18662   0.00000  Uiso   1.00
C255   C     0.16462   0.83482   0.16768   0.00000  Uiso   1.00
C256   C     0.33536   0.83162   0.16559   0.00000  Uiso   1.00
C257   C     0.40939   0.87094   0.20083   0.00000  Uiso   1.00
C258   C     0.09055   0.79609   0.13029   0.00000  Uiso   1.00
C259   C     0.38347   0.82935   0.16399   0.00000  Uiso   1.00
C260   C     0.11644   0.83667   0.16895   0.00000  Uiso   1.00
C261   C     0.40350   0.78771   0.12657   0.00000  Uiso   1.00
C262   C     0.09632   0.87717   0.20768   0.00000  Uiso   1.00
C263   C     0.45087   0.78648   0.13124   0.00000  Uiso   1.00
C264   C     0.04909   0.87936   0.20129   0.00000  Uiso   1.00
C265   C     0.47650   0.83158   0.16549   0.00000  Uiso   1.00
C266   C     0.02339   0.83471   0.16621   0.00000  Uiso   1.00
C267   C     0.45537   0.87359   0.19961   0.00000  Uiso   1.00
C268   C     0.04458   0.79312   0.13155   0.00000  Uiso   1.00
C269   C     0.47390   0.74243   0.10311   0.00000  Uiso   1.00
C270   C     0.02624   0.92370   0.22860   0.00000  Uiso   1.00
Cu271  Cu    0.25501   0.83913   0.22813   0.00000  Uiso   1.00
Cu272  Cu    0.24500   0.82754   0.10521   0.00000  Uiso   1.00
H273   H     0.39328   0.90292   0.22822   0.00000  Uiso   1.00
H274   H     0.10663   0.76488   0.10176   0.00000  Uiso   1.00
H275   H     0.03770   0.71496   0.07763   0.00000  Uiso   1.00
H276   H     0.46270   0.95237   0.25244   0.00000  Uiso   1.00
H277   H     0.21511   0.79306   0.31633   0.00000  Uiso   1.00
H278   H     0.28484   0.87366   0.01702   0.00000  Uiso   1.00
N279   N     0.23745   0.81881   0.01284   0.00000  Uiso   1.00
N280   N     0.26256   0.84786   0.32049   0.00000  Uiso   1.00
O281   O     0.25326   0.76204   0.20659   0.00000  Uiso   1.00
O282   O     0.24675   0.90462   0.12674   0.00000  Uiso   1.00
O283   O     0.24480   0.75226   0.10279   0.00000  Uiso   1.00
O284   O     0.25520   0.91441   0.23055   0.00000  Uiso   1.00
O285   O     0.18936   0.83821   0.21857   0.00000  Uiso   1.00
O286   O     0.31065   0.82845   0.11476   0.00000  Uiso   1.00
O287   O     0.18090   0.82843   0.11477   0.00000  Uiso   1.00
O288   O     0.31910   0.83824   0.21857   0.00000  Uiso   1.00
C289   C     0.37557   0.74926   0.07882   0.00000  Uiso   1.00
H290   H     0.38656   0.73808   0.03286   0.00000  Uiso   1.00
O291   O     0.34130   0.72824   0.09081   0.00000  Uiso   1.00
C292   C     0.12448   0.91260   0.25802   0.00000  Uiso   1.00
H293   H     0.15673   0.92871   0.24959   0.00000  Uiso   1.00
O294   O     0.11240   0.92233   0.31007   0.00000  Uiso   1.00
C295   C     0.45251   0.68869   0.08392   0.00000  Uiso   1.00
H296   H     0.42334   0.67753   0.10523   0.00000  Uiso   1.00
O297   O     0.46811   0.98899   0.04547   0.00000  Uiso   1.00
C298   C     0.04736   0.97736   0.24870   0.00000  Uiso   1.00
H299   H     0.03450   0.67127   0.28607   0.00000  Uiso   1.00
O300   O     0.07714   0.99274   0.22115   0.00000  Uiso   1.00
S301   S     0.19355   0.98313   0.09275   0.00000  Uiso   1.00
O302   O     0.21125   0.95087   0.03670   0.00000  Uiso   1.00
O303   O     0.16361   0.94907   0.12137   0.00000  Uiso   1.00
O304   O     0.16361   0.69659   0.07101   0.00000  Uiso   1.00
H305   H     0.13466   0.67875   0.05246   0.00000  Uiso   1.00
S306   S     0.30643   0.68370   0.24160   0.00000  Uiso   1.00
O307   O     0.33406   0.97587   0.26098   0.00000  Uiso   1.00
O308   O     0.33622   0.71921   0.21477   0.00000  Uiso   1.00
O309   O     0.28499   0.71801   0.30403   0.00000  Uiso   1.00
H310   H     0.30462   0.75036   0.31678   0.00000  Uiso   1.00
C311   C     0.74761   0.73359   0.15198   0.00000  Uiso   1.00
C312   C     0.75259   0.93306   0.18136   0.00000  Uiso   1.00
C313   C     0.52010   0.74779   0.10050   0.00000  Uiso   1.00
C314   C     0.98002   0.91902   0.23026   0.00000  Uiso   1.00
C315   C     0.73923   0.67886   0.14664   0.00000  Uiso   1.00
C316   C     0.76137   0.98774   0.18662   0.00000  Uiso   1.00
C317   C     0.66462   0.83482   0.16768   0.00000  Uiso   1.00
C318   C     0.83536   0.83162   0.16559   0.00000  Uiso   1.00
C319   C     0.90939   0.87094   0.20083   0.00000  Uiso   1.00
C320   C     0.59055   0.79609   0.13029   0.00000  Uiso   1.00
C321   C     0.88347   0.82935   0.16399   0.00000  Uiso   1.00
C322   C     0.61644   0.83667   0.16895   0.00000  Uiso   1.00
C323   C     0.90350   0.78771   0.12657   0.00000  Uiso   1.00
C324   C     0.59632   0.87717   0.20768   0.00000  Uiso   1.00
C325   C     0.95087   0.78648   0.13124   0.00000  Uiso   1.00
C326   C     0.54909   0.87936   0.20129   0.00000  Uiso   1.00
C327   C     0.97650   0.83158   0.16549   0.00000  Uiso   1.00
C328   C     0.52339   0.83471   0.16621   0.00000  Uiso   1.00
C329   C     0.95537   0.87359   0.19961   0.00000  Uiso   1.00
C330   C     0.54458   0.79312   0.13155   0.00000  Uiso   1.00
C331   C     0.97390   0.74243   0.10311   0.00000  Uiso   1.00
C332   C     0.52624   0.92370   0.22860   0.00000  Uiso   1.00
Cu333  Cu    0.75501   0.83913   0.22813   0.00000  Uiso   1.00
Cu334  Cu    0.74500   0.82754   0.10521   0.00000  Uiso   1.00
H335   H     0.89328   0.90292   0.22822   0.00000  Uiso   1.00
H336   H     0.60663   0.76488   0.10176   0.00000  Uiso   1.00
H337   H     0.53770   0.71496   0.07763   0.00000  Uiso   1.00
H338   H     0.96270   0.95237   0.25244   0.00000  Uiso   1.00
H339   H     0.71511   0.79306   0.31633   0.00000  Uiso   1.00
H340   H     0.78484   0.87366   0.01702   0.00000  Uiso   1.00
N341   N     0.73745   0.81881   0.01284   0.00000  Uiso   1.00
N342   N     0.76256   0.84786   0.32049   0.00000  Uiso   1.00
O343   O     0.75326   0.76204   0.20659   0.00000  Uiso   1.00
O344   O     0.74675   0.90462   0.12674   0.00000  Uiso   1.00
O345   O     0.74480   0.75226   0.10279   0.00000  Uiso   1.00
O346   O     0.75520   0.91441   0.23055   0.00000  Uiso   1.00
O347   O     0.68936   0.83821   0.21857   0.00000  Uiso   1.00
O348   O     0.81065   0.82845   0.11476   0.00000  Uiso   1.00
O349   O     0.68090   0.82843   0.11477   0.00000  Uiso   1.00
O350   O     0.81910   0.83824   0.21857   0.00000  Uiso   1.00
C351   C     0.87557   0.74926   0.07882   0.00000  Uiso   1.00
H352   H     0.88656   0.73808   0.03286   0.00000  Uiso   1.00
O353   O     0.84130   0.72824   0.09081   0.00000  Uiso   1.00
C354   C     0.62448   0.91260   0.25802   0.00000  Uiso   1.00
H355   H     0.65673   0.92871   0.24959   0.00000  Uiso   1.00
O356   O     0.61240   0.92233   0.31007   0.00000  Uiso   1.00
C357   C     0.95251   0.68869   0.08392   0.00000  Uiso   1.00
H358   H     0.92334   0.67753   0.10523   0.00000  Uiso   1.00
O359   O     0.96811   0.98899   0.04547   0.00000  Uiso   1.00
C360   C     0.54736   0.97736   0.24870   0.00000  Uiso   1.00
H361   H     0.53450   0.67127   0.28607   0.00000  Uiso   1.00
O362   O     0.57714   0.99274   0.22115   0.00000  Uiso   1.00
S363   S     0.69355   0.98313   0.09275   0.00000  Uiso   1.00
O364   O     0.71125   0.95087   0.03670   0.00000  Uiso   1.00
O365   O     0.66361   0.94907   0.12137   0.00000  Uiso   1.00
O366   O     0.66361   0.69659   0.07101   0.00000  Uiso   1.00
H367   H     0.63466   0.67875   0.05246   0.00000  Uiso   1.00
S368   S     0.80643   0.68370   0.24160   0.00000  Uiso   1.00
O369   O     0.83406   0.97587   0.26098   0.00000  Uiso   1.00
O370   O     0.83622   0.71921   0.21477   0.00000  Uiso   1.00
O371   O     0.78499   0.71801   0.30403   0.00000  Uiso   1.00
H372   H     0.80462   0.75036   0.31678   0.00000  Uiso   1.00
C373   C     0.24761   0.06693   0.48531   0.00000  Uiso   1.00
C374   C     0.25259   0.26639   0.51469   0.00000  Uiso   1.00
C375   C     0.02010   0.08113   0.43383   0.00000  Uiso   1.00
C376   C     0.48002   0.25235   0.56360   0.00000  Uiso   1.00
C377   C     0.23923   0.01219   0.47997   0.00000  Uiso   1.00
C378   C     0.26137   0.32107   0.51996   0.00000  Uiso   1.00
C379   C     0.16462   0.16815   0.50101   0.00000  Uiso   1.00
C380   C     0.33536   0.16496   0.49892   0.00000  Uiso   1.00
C381   C     0.40939   0.20427   0.53416   0.00000  Uiso   1.00
C382   C     0.09055   0.12942   0.46362   0.00000  Uiso   1.00
C383   C     0.38347   0.16269   0.49732   0.00000  Uiso   1.00
C384   C     0.11644   0.17001   0.50228   0.00000  Uiso   1.00
C385   C     0.40350   0.12105   0.45991   0.00000  Uiso   1.00
C386   C     0.09632   0.21050   0.54101   0.00000  Uiso   1.00
C387   C     0.45087   0.11981   0.46457   0.00000  Uiso   1.00
C388   C     0.04909   0.21269   0.53462   0.00000  Uiso   1.00
C389   C     0.47650   0.16491   0.49883   0.00000  Uiso   1.00
C390   C     0.02339   0.16805   0.49955   0.00000  Uiso   1.00
C391   C     0.45537   0.20693   0.53294   0.00000  Uiso   1.00
C392   C     0.04458   0.12645   0.46488   0.00000  Uiso   1.00
C393   C     0.47390   0.07576   0.43644   0.00000  Uiso   1.00
C394   C     0.02624   0.25704   0.56193   0.00000  Uiso   1.00
Cu395  Cu    0.25501   0.17246   0.56146   0.00000  Uiso   1.00
Cu396  Cu    0.24500   0.16087   0.43854   0.00000  Uiso   1.00
H397   H     0.39328   0.23626   0.56155   0.00000  Uiso   1.00
H398   H     0.10663   0.09821   0.43510   0.00000  Uiso   1.00
H399   H     0.03770   0.04829   0.41096   0.00000  Uiso   1.00
H400   H     0.46270   0.28571   0.58577   0.00000  Uiso   1.00
H401   H     0.21511   0.12639   0.64966   0.00000  Uiso   1.00
H402   H     0.28484   0.20699   0.35035   0.00000  Uiso   1.00
N403   N     0.23745   0.15214   0.34617   0.00000  Uiso   1.00
N404   N     0.26256   0.18119   0.65383   0.00000  Uiso   1.00
O405   O     0.25326   0.09538   0.53992   0.00000  Uiso   1.00
O406   O     0.24675   0.23796   0.46008   0.00000  Uiso   1.00
O407   O     0.24480   0.08559   0.43612   0.00000  Uiso   1.00
O408   O     0.25520   0.24774   0.56388   0.00000  Uiso   1.00
O409   O     0.18936   0.17155   0.55191   0.00000  Uiso   1.00
O410   O     0.31065   0.16179   0.44809   0.00000  Uiso   1.00
O411   O     0.18090   0.16176   0.44810   0.00000  Uiso   1.00
O412   O     0.31910   0.17157   0.55190   0.00000  Uiso   1.00
C413   C     0.37557   0.08260   0.41215   0.00000  Uiso   1.00
H414   H     0.38656   0.07142   0.36619   0.00000  Uiso   1.00
O415   O     0.34130   0.06158   0.42415   0.00000  Uiso   1.00
C416   C     0.12448   0.24594   0.59136   0.00000  Uiso   1.00
H417   H     0.15673   0.26205   0.58293   0.00000  Uiso   1.00
O418   O     0.11240   0.25566   0.64340   0.00000  Uiso   1.00
C419   C     0.45251   0.02202   0.41726   0.00000  Uiso   1.00
H420   H     0.42334   0.01086   0.43856   0.00000  Uiso   1.00
O421   O     0.46811   0.32232   0.37881   0.00000  Uiso   1.00
C422   C     0.04736   0.31069   0.58203   0.00000  Uiso   1.00
H423   H     0.03450   0.00461   0.61940   0.00000  Uiso   1.00
O424   O     0.07714   0.32608   0.55448   0.00000  Uiso   1.00
S425   S     0.19355   0.31646   0.42609   0.00000  Uiso   1.00
O426   O     0.21125   0.28420   0.37003   0.00000  Uiso   1.00
O427   O     0.16361   0.28240   0.45470   0.00000  Uiso   1.00
O428   O     0.16361   0.02992   0.40434   0.00000  Uiso   1.00
H429   H     0.13466   0.01208   0.38579   0.00000  Uiso   1.00
S430   S     0.30643   0.01704   0.57493   0.00000  Uiso   1.00
O431   O     0.33406   0.30920   0.59431   0.00000  Uiso   1.00
O432   O     0.33622   0.05254   0.54810   0.00000  Uiso   1.00
O433   O     0.28499   0.05135   0.63736   0.00000  Uiso   1.00
H434   H     0.30462   0.08369   0.65011   0.00000  Uiso   1.00
C435   C     0.74761   0.06693   0.48531   0.00000  Uiso   1.00
C436   C     0.75259   0.26639   0.51469   0.00000  Uiso   1.00
C437   C     0.52010   0.08113   0.43383   0.00000  Uiso   1.00
C438   C     0.98002   0.25235   0.56360   0.00000  Uiso   1.00
C439   C     0.73923   0.01219   0.47997   0.00000  Uiso   1.00
C440   C     0.76137   0.32107   0.51996   0.00000  Uiso   1.00
C441   C     0.66462   0.16815   0.50101   0.00000  Uiso   1.00
C442   C     0.83536   0.16496   0.49892   0.00000  Uiso   1.00
C443   C     0.90939   0.20427   0.53416   0.00000  Uiso   1.00
C444   C     0.59055   0.12942   0.46362   0.00000  Uiso   1.00
C445   C     0.88347   0.16269   0.49732   0.00000  Uiso   1.00
C446   C     0.61644   0.17001   0.50228   0.00000  Uiso   1.00
C447   C     0.90350   0.12105   0.45991   0.00000  Uiso   1.00
C448   C     0.59632   0.21050   0.54101   0.00000  Uiso   1.00
C449   C     0.95087   0.11981   0.46457   0.00000  Uiso   1.00
C450   C     0.54909   0.21269   0.53462   0.00000  Uiso   1.00
C451   C     0.97650   0.16491   0.49883   0.00000  Uiso   1.00
C452   C     0.52339   0.16805   0.49955   0.00000  Uiso   1.00
C453   C     0.95537   0.20693   0.53294   0.00000  Uiso   1.00
C454   C     0.54458   0.12645   0.46488   0.00000  Uiso   1.00
C455   C     0.97390   0.07576   0.43644   0.00000  Uiso   1.00
C456   C     0.52624   0.25704   0.56193   0.00000  Uiso   1.00
Cu457  Cu    0.75501   0.17246   0.56146   0.00000  Uiso   1.00
Cu458  Cu    0.74500   0.16087   0.43854   0.00000  Uiso   1.00
H459   H     0.89328   0.23626   0.56155   0.00000  Uiso   1.00
H460   H     0.60663   0.09821   0.43510   0.00000  Uiso   1.00
H461   H     0.53770   0.04829   0.41096   0.00000  Uiso   1.00
H462   H     0.96270   0.28571   0.58577   0.00000  Uiso   1.00
H463   H     0.71511   0.12639   0.64966   0.00000  Uiso   1.00
H464   H     0.78484   0.20699   0.35035   0.00000  Uiso   1.00
N465   N     0.73745   0.15214   0.34617   0.00000  Uiso   1.00
N466   N     0.76256   0.18119   0.65383   0.00000  Uiso   1.00
O467   O     0.75326   0.09538   0.53992   0.00000  Uiso   1.00
O468   O     0.74675   0.23796   0.46008   0.00000  Uiso   1.00
O469   O     0.74480   0.08559   0.43612   0.00000  Uiso   1.00
O470   O     0.75520   0.24774   0.56388   0.00000  Uiso   1.00
O471   O     0.68936   0.17155   0.55191   0.00000  Uiso   1.00
O472   O     0.81065   0.16179   0.44809   0.00000  Uiso   1.00
O473   O     0.68090   0.16176   0.44810   0.00000  Uiso   1.00
O474   O     0.81910   0.17157   0.55190   0.00000  Uiso   1.00
C475   C     0.87557   0.08260   0.41215   0.00000  Uiso   1.00
H476   H     0.88656   0.07142   0.36619   0.00000  Uiso   1.00
O477   O     0.84130   0.06158   0.42415   0.00000  Uiso   1.00
C478   C     0.62448   0.24594   0.59136   0.00000  Uiso   1.00
H479   H     0.65673   0.26205   0.58293   0.00000  Uiso   1.00
O480   O     0.61240   0.25566   0.64340   0.00000  Uiso   1.00
C481   C     0.95251   0.02202   0.41726   0.00000  Uiso   1.00
H482   H     0.92334   0.01086   0.43856   0.00000  Uiso   1.00
O483   O     0.96811   0.32232   0.37881   0.00000  Uiso   1.00
C484   C     0.54736   0.31069   0.58203   0.00000  Uiso   1.00
H485   H     0.53450   0.00461   0.61940   0.00000  Uiso   1.00
O486   O     0.57714   0.32608   0.55448   0.00000  Uiso   1.00
S487   S     0.69355   0.31646   0.42609   0.00000  Uiso   1.00
O488   O     0.71125   0.28420   0.37003   0.00000  Uiso   1.00
O489   O     0.66361   0.28240   0.45470   0.00000  Uiso   1.00
O490   O     0.66361   0.02992   0.40434   0.00000  Uiso   1.00
H491   H     0.63466   0.01208   0.38579   0.00000  Uiso   1.00
S492   S     0.80643   0.01704   0.57493   0.00000  Uiso   1.00
O493   O     0.83406   0.30920   0.59431   0.00000  Uiso   1.00
O494   O     0.83622   0.05254   0.54810   0.00000  Uiso   1.00
O495   O     0.78499   0.05135   0.63736   0.00000  Uiso   1.00
H496   H     0.80462   0.08369   0.65011   0.00000  Uiso   1.00
C497   C     0.24761   0.40026   0.48531   0.00000  Uiso   1.00
C498   C     0.25259   0.59972   0.51469   0.00000  Uiso   1.00
C499   C     0.02010   0.41446   0.43383   0.00000  Uiso   1.00
C500   C     0.48002   0.58569   0.56360   0.00000  Uiso   1.00
C501   C     0.23923   0.34553   0.47997   0.00000  Uiso   1.00
C502   C     0.26137   0.65440   0.51996   0.00000  Uiso   1.00
C503   C     0.16462   0.50149   0.50101   0.00000  Uiso   1.00
C504   C     0.33536   0.49829   0.49892   0.00000  Uiso   1.00
C505   C     0.40939   0.53760   0.53416   0.00000  Uiso   1.00
C506   C     0.09055   0.46275   0.46362   0.00000  Uiso   1.00
C507   C     0.38347   0.49602   0.49732   0.00000  Uiso   1.00
C508   C     0.11644   0.50334   0.50228   0.00000  Uiso   1.00
C509   C     0.40350   0.45438   0.45991   0.00000  Uiso   1.00
C510   C     0.09632   0.54383   0.54101   0.00000  Uiso   1.00
C511   C     0.45087   0.45314   0.46457   0.00000  Uiso   1.00
C512   C     0.04909   0.54602   0.53462   0.00000  Uiso   1.00
C513   C     0.47650   0.49825   0.49883   0.00000  Uiso   1.00
C514   C     0.02339   0.50138   0.49955   0.00000  Uiso   1.00
C515   C     0.45537   0.54026   0.53294   0.00000  Uiso   1.00
C516   C     0.04458   0.45979   0.46488   0.00000  Uiso   1.00
C517   C     0.47390   0.40909   0.43644   0.00000  Uiso   1.00
C518   C     0.02624   0.59037   0.56193   0.00000  Uiso   1.00
Cu519  Cu    0.25501   0.50579   0.56146   0.00000  Uiso   1.00
Cu520  Cu    0.24500   0.49421   0.43854   0.00000  Uiso   1.00
H521   H     0.39328   0.56959   0.56155   0.00000  Uiso   1.00
H522   H     0.10663   0.43155   0.43510   0.00000  Uiso   1.00
H523   H     0.03770   0.38162   0.41096   0.00000  Uiso   1.00
H524   H     0.46270   0.61904   0.58577   0.00000  Uiso   1.00
H525   H     0.21511   0.45972   0.64966   0.00000  Uiso   1.00
H526   H     0.28484   0.54032   0.35035   0.00000  Uiso   1.00
N527   N     0.23745   0.48547   0.34617   0.00000  Uiso   1.00
N528   N     0.26256   0.51453   0.65383   0.00000  Uiso   1.00
O529   O     0.25326   0.42871   0.53992   0.00000  Uiso   1.00
O530   O     0.24675   0.57129   0.46008   0.00000  Uiso   1.00
O531   O     0.24480   0.41892   0.43612   0.00000  Uiso   1.00
O532   O     0.25520   0.58108   0.56388   0.00000  Uiso   1.00
O533   O     0.18936   0.50488   0.55191   0.00000  Uiso   1.00
O534   O     0.31065   0.49512   0.44809   0.00000  Uiso   1.00
O535   O     0.18090   0.49510   0.44810   0.00000  Uiso   1.00
O536   O     0.31910   0.50490   0.55190   0.00000  Uiso   1.00
C537   C     0.37557   0.41593   0.41215   0.00000  Uiso   1.00
H538   H     0.38656   0.40475   0.36619   0.00000  Uiso   1.00
O539   O     0.34130   0.39491   0.42415   0.00000  Uiso   1.00
C540   C     0.12448   0.57927   0.59136   0.00000  Uiso   1.00
H541   H     0.15673   0.59538   0.58293   0.00000  Uiso   1.00
O542   O     0.11240   0.58900   0.64340   0.00000  Uiso   1.00
C543   C     0.45251   0.35535   0.41726   0.00000  Uiso   1.00
H544   H     0.42334   0.34419   0.43856   0.00000  Uiso   1.00
O545   O     0.46811   0.65565   0.37881   0.00000  Uiso   1.00
C546   C     0.04736   0.64402   0.58203   0.00000  Uiso   1.00
H547   H     0.03450   0.33794   0.61940   0.00000  Uiso   1.00
O548   O     0.07714   0.65941   0.55448   0.00000  Uiso   1.00
S549   S     0.19355   0.64979   0.42609   0.00000  Uiso   1.00
O550   O     0.21125   0.61753   0.37003   0.00000  Uiso   1.00
O551   O     0.16361   0.61573   0.45470   0.00000  Uiso   1.00
O552   O     0.16361   0.36326   0.40434   0.00000  Uiso   1.00
H553   H     0.13466   0.34542   0.38579   0.00000  Uiso   1.00
S554   S     0.30643   0.35037   0.57493   0.00000  Uiso   1.00
O555   O     0.33406   0.64254   0.59431   0.00000  Uiso   1.00
O556   O     0.33622   0.38588   0.54810   0.00000  Uiso   1.00
O557   O     0.28499   0.38468   0.63736   0.00000  Uiso   1.00
H558   H     0.30462   0.41703   0.65011   0.00000  Uiso   1.00
C559   C     0.74761   0.40026   0.48531   0.00000  Uiso   1.00
C560   C     0.75259   0.59972   0.51469   0.00000  Uiso   1.00
C561   C     0.52010   0.41446   0.43383   0.00000  Uiso   1.00
C562   C     0.98002   0.58569   0.56360   0.00000  Uiso   1.00
C563   C     0.73923   0.34553   0.47997   0.00000  Uiso   1.00
C564   C     0.76137   0.65440   0.51996   0.00000  Uiso   1.00
C565   C     0.66462   0.50149   0.50101   0.00000  Uiso   1.00
C566   C     0.83536   0.49829   0.49892   0.00000  Uiso   1.00
C567   C     0.90939   0.53760   0.53416   0.00000  Uiso   1.00
C568   C     0.59055   0.46275   0.46362   0.00000  Uiso   1.00
C569   C     0.88347   0.49602   0.49732   0.00000  Uiso   1.00
C570   C     0.61644   0.50334   0.50228   0.00000  Uiso   1.00
C571   C     0.90350   0.45438   0.45991   0.00000  Uiso   1.00
C572   C     0.59632   0.54383   0.54101   0.00000  Uiso   1.00
C573   C     0.95087   0.45314   0.46457   0.00000  Uiso   1.00
C574   C     0.54909   0.54602   0.53462   0.00000  Uiso   1.00
C575   C     0.97650   0.49825   0.49883   0.00000  Uiso   1.00
C576   C     0.52339   0.50138   0.49955   0.00000  Uiso   1.00
C577   C     0.95537   0.54026   0.53294   0.00000  Uiso   1.00
C578   C     0.54458   0.45979   0.46488   0.00000  Uiso   1.00
C579   C     0.97390   0.40909   0.43644   0.00000  Uiso   1.00
C580   C     0.52624   0.59037   0.56193   0.00000  Uiso   1.00
Cu581  Cu    0.75501   0.50579   0.56146   0.00000  Uiso   1.00
Cu582  Cu    0.74500   0.49421   0.43854   0.00000  Uiso   1.00
H583   H     0.89328   0.56959   0.56155   0.00000  Uiso   1.00
H584   H     0.60663   0.43155   0.43510   0.00000  Uiso   1.00
H585   H     0.53770   0.38162   0.41096   0.00000  Uiso   1.00
H586   H     0.96270   0.61904   0.58577   0.00000  Uiso   1.00
H587   H     0.71511   0.45972   0.64966   0.00000  Uiso   1.00
H588   H     0.78484   0.54032   0.35035   0.00000  Uiso   1.00
N589   N     0.73745   0.48547   0.34617   0.00000  Uiso   1.00
N590   N     0.76256   0.51453   0.65383   0.00000  Uiso   1.00
O591   O     0.75326   0.42871   0.53992   0.00000  Uiso   1.00
O592   O     0.74675   0.57129   0.46008   0.00000  Uiso   1.00
O593   O     0.74480   0.41892   0.43612   0.00000  Uiso   1.00
O594   O     0.75520   0.58108   0.56388   0.00000  Uiso   1.00
O595   O     0.68936   0.50488   0.55191   0.00000  Uiso   1.00
O596   O     0.81065   0.49512   0.44809   0.00000  Uiso   1.00
O597   O     0.68090   0.49510   0.44810   0.00000  Uiso   1.00
O598   O     0.81910   0.50490   0.55190   0.00000  Uiso   1.00
C599   C     0.87557   0.41593   0.41215   0.00000  Uiso   1.00
H600   H     0.88656   0.40475   0.36619   0.00000  Uiso   1.00
O601   O     0.84130   0.39491   0.42415   0.00000  Uiso   1.00
C602   C     0.62448   0.57927   0.59136   0.00000  Uiso   1.00
H603   H     0.65673   0.59538   0.58293   0.00000  Uiso   1.00
O604   O     0.61240   0.58900   0.64340   0.00000  Uiso   1.00
C605   C     0.95251   0.35535   0.41726   0.00000  Uiso   1.00
H606   H     0.92334   0.34419   0.43856   0.00000  Uiso   1.00
O607   O     0.96811   0.65565   0.37881   0.00000  Uiso   1.00
C608   C     0.54736   0.64402   0.58203   0.00000  Uiso   1.00
H609   H     0.53450   0.33794   0.61940   0.00000  Uiso   1.00
O610   O     0.57714   0.65941   0.55448   0.00000  Uiso   1.00
S611   S     0.69355   0.64979   0.42609   0.00000  Uiso   1.00
O612   O     0.71125   0.61753   0.37003   0.00000  Uiso   1.00
O613   O     0.66361   0.61573   0.45470   0.00000  Uiso   1.00
O614   O     0.66361   0.36326   0.40434   0.00000  Uiso   1.00
H615   H     0.63466   0.34542   0.38579   0.00000  Uiso   1.00
S616   S     0.80643   0.35037   0.57493   0.00000  Uiso   1.00
O617   O     0.83406   0.64254   0.59431   0.00000  Uiso   1.00
O618   O     0.83622   0.38588   0.54810   0.00000  Uiso   1.00
O619   O     0.78499   0.38468   0.63736   0.00000  Uiso   1.00
H620   H     0.80462   0.41703   0.65011   0.00000  Uiso   1.00
C621   C     0.24761   0.73359   0.48531   0.00000  Uiso   1.00
C622   C     0.25259   0.93306   0.51469   0.00000  Uiso   1.00
C623   C     0.02010   0.74779   0.43383   0.00000  Uiso   1.00
C624   C     0.48002   0.91902   0.56360   0.00000  Uiso   1.00
C625   C     0.23923   0.67886   0.47997   0.00000  Uiso   1.00
C626   C     0.26137   0.98774   0.51996   0.00000  Uiso   1.00
C627   C     0.16462   0.83482   0.50101   0.00000  Uiso   1.00
C628   C     0.33536   0.83162   0.49892   0.00000  Uiso   1.00
C629   C     0.40939   0.87094   0.53416   0.00000  Uiso   1.00
C630   C     0.09055   0.79609   0.46362   0.00000  Uiso   1.00
C631   C     0.38347   0.82935   0.49732   0.00000  Uiso   1.00
C632   C     0.11644   0.83667   0.50228   0.00000  Uiso   1.00
C633   C     0.40350   0.78771   0.45991   0.00000  Uiso   1.00
C634   C     0.09632   0.87717   0.54101   0.00000  Uiso   1.00
C635   C     0.45087   0.78648   0.46457   0.00000  Uiso   1.00
C636   C     0.04909   0.87936   0.53462   0.00000  Uiso   1.00
C637   C     0.47650   0.83158   0.49883   0.00000  Uiso   1.00
C638   C     0.02339   0.83471   0.49955   0.00000  Uiso   1.00
C639   C     0.45537   0.87359   0.53294   0.00000  Uiso   1.00
C640   C     0.04458   0.79312   0.46488   0.00000  Uiso   1.00
C641   C     0.47390   0.74243   0.43644   0.00000  Uiso   1.00
C642   C     0.02624   0.92370   0.56193   0.00000  Uiso   1.00
Cu643  Cu    0.25501   0.83913   0.56146   0.00000  Uiso   1.00
Cu644  Cu    0.24500   0.82754   0.43854   0.00000  Uiso   1.00
H645   H     0.39328   0.90292   0.56155   0.00000  Uiso   1.00
H646   H     0.10663   0.76488   0.43510   0.00000  Uiso   1.00
H647   H     0.03770   0.71496   0.41096   0.00000  Uiso   1.00
H648   H     0.46270   0.95237   0.58577   0.00000  Uiso   1.00
H649   H     0.21511   0.79306   0.64966   0.00000  Uiso   1.00
H650   H     0.28484   0.87366   0.35035   0.00000  Uiso   1.00
N651   N     0.23745   0.81881   0.34617   0.00000  Uiso   1.00
N652   N     0.26256   0.84786   0.65383   0.00000  Uiso   1.00
O653   O     0.25326   0.76204   0.53992   0.00000  Uiso   1.00
O654   O     0.24675   0.90462   0.46008   0.00000  Uiso   1.00
O655   O     0.24480   0.75226   0.43612   0.00000  Uiso   1.00
O656   O     0.25520   0.91441   0.56388   0.00000  Uiso   1.00
O657   O     0.18936   0.83821   0.55191   0.00000  Uiso   1.00
O658   O     0.31065   0.82845   0.44809   0.00000  Uiso   1.00
O659   O     0.18090   0.82843   0.44810   0.00000  Uiso   1.00
O660   O     0.31910   0.83824   0.55190   0.00000  Uiso   1.00
C661   C     0.37557   0.74926   0.41215   0.00000  Uiso   1.00
H662   H     0.38656   0.73808   0.36619   0.00000  Uiso   1.00
O663   O     0.34130   0.72824   0.42415   0.00000  Uiso   1.00
C664   C     0.12448   0.91260   0.59136   0.00000  Uiso   1.00
H665   H     0.15673   0.92871   0.58293   0.00000  Uiso   1.00
O666   O     0.11240   0.92233   0.64340   0.00000  Uiso   1.00
C667   C     0.45251   0.68869   0.41726   0.00000  Uiso   1.00
H668   H     0.42334   0.67753   0.43856   0.00000  Uiso   1.00
O669   O     0.46811   0.98899   0.37881   0.00000  Uiso   1.00
C670   C     0.04736   0.97736   0.58203   0.00000  Uiso   1.00
H671   H     0.03450   0.67127   0.61940   0.00000  Uiso   1.00
O672   O     0.07714   0.99274   0.55448   0.00000  Uiso   1.00
S673   S     0.19355   0.98313   0.42609   0.00000  Uiso   1.00
O674   O     0.21125   0.95087   0.37003   0.00000  Uiso   1.00
O675   O     0.16361   0.94907   0.45470   0.00000  Uiso   1.00
O676   O     0.16361   0.69659   0.40434   0.00000  Uiso   1.00
H677   H     0.13466   0.67875   0.38579   0.00000  Uiso   1.00
S678   S     0.30643   0.68370   0.57493   0.00000  Uiso   1.00
O679   O     0.33406   0.97587   0.59431   0.00000  Uiso   1.00
O680   O     0.33622   0.71921   0.54810   0.00000  Uiso   1.00
O681   O     0.28499   0.71801   0.63736   0.00000  Uiso   1.00
H682   H     0.30462   0.75036   0.65011   0.00000  Uiso   1.00
C683   C     0.74761   0.73359   0.48531   0.00000  Uiso   1.00
C684   C     0.75259   0.93306   0.51469   0.00000  Uiso   1.00
C685   C     0.52010   0.74779   0.43383   0.00000  Uiso   1.00
C686   C     0.98002   0.91902   0.56360   0.00000  Uiso   1.00
C687   C     0.73923   0.67886   0.47997   0.00000  Uiso   1.00
C688   C     0.76137   0.98774   0.51996   0.00000  Uiso   1.00
C689   C     0.66462   0.83482   0.50101   0.00000  Uiso   1.00
C690   C     0.83536   0.83162   0.49892   0.00000  Uiso   1.00
C691   C     0.90939   0.87094   0.53416   0.00000  Uiso   1.00
C692   C     0.59055   0.79609   0.46362   0.00000  Uiso   1.00
C693   C     0.88347   0.82935   0.49732   0.00000  Uiso   1.00
C694   C     0.61644   0.83667   0.50228   0.00000  Uiso   1.00
C695   C     0.90350   0.78771   0.45991   0.00000  Uiso   1.00
C696   C     0.59632   0.87717   0.54101   0.00000  Uiso   1.00
C697   C     0.95087   0.78648   0.46457   0.00000  Uiso   1.00
C698   C     0.54909   0.87936   0.53462   0.00000  Uiso   1.00
C699   C     0.97650   0.83158   0.49883   0.00000  Uiso   1.00
C700   C     0.52339   0.83471   0.49955   0.00000  Uiso   1.00
C701   C     0.95537   0.87359   0.53294   0.00000  Uiso   1.00
C702   C     0.54458   0.79312   0.46488   0.00000  Uiso   1.00
C703   C     0.97390   0.74243   0.43644   0.00000  Uiso   1.00
C704   C     0.52624   0.92370   0.56193   0.00000  Uiso   1.00
Cu705  Cu    0.75501   0.83913   0.56146   0.00000  Uiso   1.00
Cu706  Cu    0.74500   0.82754   0.43854   0.00000  Uiso   1.00
H707   H     0.89328   0.90292   0.56155   0.00000  Uiso   1.00
H708   H     0.60663   0.76488   0.43510   0.00000  Uiso   1.00
H709   H     0.53770   0.71496   0.41096   0.00000  Uiso   1.00
H710   H     0.96270   0.95237   0.58577   0.00000  Uiso   1.00
H711   H     0.71511   0.79306   0.64966   0.00000  Uiso   1.00
H712   H     0.78484   0.87366   0.35035   0.00000  Uiso   1.00
N713   N     0.73745   0.81881   0.34617   0.00000  Uiso   1.00
N714   N     0.76256   0.84786   0.65383   0.00000  Uiso   1.00
O715   O     0.75326   0.76204   0.53992   0.00000  Uiso   1.00
O716   O     0.74675   0.90462   0.46008   0.00000  Uiso   1.00
O717   O     0.74480   0.75226   0.43612   0.00000  Uiso   1.00
O718   O     0.75520   0.91441   0.56388   0.00000  Uiso   1.00
O719   O     0.68936   0.83821   0.55191   0.00000  Uiso   1.00
O720   O     0.81065   0.82845   0.44809   0.00000  Uiso   1.00
O721   O     0.68090   0.82843   0.44810   0.00000  Uiso   1.00
O722   O     0.81910   0.83824   0.55190   0.00000  Uiso   1.00
C723   C     0.87557   0.74926   0.41215   0.00000  Uiso   1.00
H724   H     0.88656   0.73808   0.36619   0.00000  Uiso   1.00
O725   O     0.84130   0.72824   0.42415   0.00000  Uiso   1.00
C726   C     0.62448   0.91260   0.59136   0.00000  Uiso   1.00
H727   H     0.65673   0.92871   0.58293   0.00000  Uiso   1.00
O728   O     0.61240   0.92233   0.64340   0.00000  Uiso   1.00
C729   C     0.95251   0.68869   0.41726   0.00000  Uiso   1.00
H730   H     0.92334   0.67753   0.43856   0.00000  Uiso   1.00
O731   O     0.96811   0.98899   0.37881   0.00000  Uiso   1.00
C732   C     0.54736   0.97736   0.58203   0.00000  Uiso   1.00
H733   H     0.53450   0.67127   0.61940   0.00000  Uiso   1.00
O734   O     0.57714   0.99274   0.55448   0.00000  Uiso   1.00
S735   S     0.69355   0.98313   0.42609   0.00000  Uiso   1.00
O736   O     0.71125   0.95087   0.37003   0.00000  Uiso   1.00
O737   O     0.66361   0.94907   0.45470   0.00000  Uiso   1.00
O738   O     0.66361   0.69659   0.40434   0.00000  Uiso   1.00
H739   H     0.63466   0.67875   0.38579   0.00000  Uiso   1.00
S740   S     0.80643   0.68370   0.57493   0.00000  Uiso   1.00
O741   O     0.83406   0.97587   0.59431   0.00000  Uiso   1.00
O742   O     0.83622   0.71921   0.54810   0.00000  Uiso   1.00
O743   O     0.78499   0.71801   0.63736   0.00000  Uiso   1.00
H744   H     0.80462   0.75036   0.65011   0.00000  Uiso   1.00
C745   C     0.24761   0.06693   0.81865   0.00000  Uiso   1.00
C746   C     0.25259   0.26639   0.84802   0.00000  Uiso   1.00
C747   C     0.02010   0.08113   0.76716   0.00000  Uiso   1.00
C748   C     0.48002   0.25235   0.89693   0.00000  Uiso   1.00
C749   C     0.23923   0.01219   0.81330   0.00000  Uiso   1.00
C750   C     0.26137   0.32107   0.85329   0.00000  Uiso   1.00
C751   C     0.16462   0.16815   0.83434   0.00000  Uiso   1.00
C752   C     0.33536   0.16496   0.83225   0.00000  Uiso   1.00
C753   C     0.40939   0.20427   0.86750   0.00000  Uiso   1.00
C754   C     0.09055   0.12942   0.79695   0.00000  Uiso   1.00
C755   C     0.38347   0.16269   0.83066   0.00000  Uiso   1.00
C756   C     0.11644   0.17001   0.83562   0.00000  Uiso   1.00
C757   C     0.40350   0.12105   0.79324   0.00000  Uiso   1.00
C758   C     0.09632   0.21050   0.87434   0.00000  Uiso   1.00
C759   C     0.45087   0.11981   0.79790   0.00000  Uiso   1.00
C760   C     0.04909   0.21269   0.86795   0.00000  Uiso   1.00
C761   C     0.47650   0.16491   0.83216   0.00000  Uiso   1.00
C762   C     0.02339   0.16805   0.83288   0.00000  Uiso   1.00
C763   C     0.45537   0.20693   0.86628   0.00000  Uiso   1.00
C764   C     0.04458   0.12645   0.79822   0.00000  Uiso   1.00
C765   C     0.47390   0.07576   0.76978   0.00000  Uiso   1.00
C766   C     0.02624   0.25704   0.89526   0.00000  Uiso   1.00
Cu767  Cu    0.25501   0.17246   0.89479   0.00000  Uiso   1.00
Cu768  Cu    0.24500   0.16087   0.77187   0.00000  Uiso   1.00
H769   H     0.39328   0.23626   0.89488   0.00000  Uiso   1.00
H770   H     0.10663   0.09821   0.76843   0.00000  Uiso   1.00
H771   H     0.03770   0.04829   0.74429   0.00000  Uiso   1.00
H772   H     0.46270   0.28571   0.91911   0.00000  Uiso   1.00
H773   H     0.21511   0.12639   0.98299   0.00000  Uiso   1.00
H774   H     0.28484   0.20699   0.68368   0.00000  Uiso   1.00
N775   N     0.23745   0.15214   0.67951   0.00000  Uiso   1.00
N776   N     0.26256   0.18119   0.98716   0.00000  Uiso   1.00
O777   O     0.25326   0.09538   0.87326   0.00000  Uiso   1.00
O778   O     0.24675   0.23796   0.79341   0.00000  Uiso   1.00
O779   O     0.24480   0.08559   0.76945   0.00000  Uiso   1.00
O780   O     0.25520   0.24774   0.89721   0.00000  Uiso   1.00
O781   O     0.18936   0.17155   0.88524   0.00000  Uiso   1.00
O782   O     0.31065   0.16179   0.78143   0.00000  Uiso   1.00
O783   O     0.18090   0.16176   0.78143   0.00000  Uiso   1.00
O784   O     0.31910   0.17157   0.88523   0.00000  Uiso   1.00
C785   C     0.37557   0.08260   0.74549   0.00000  Uiso   1.00
H786   H     0.38656   0.07142   0.69952   0.00000  Uiso   1.00
O787   O     0.34130   0.06158   0.75748   0.00000  Uiso   1.00
C788   C     0.12448   0.24594   0.92469   0.00000  Uiso   1.00
H789   H     0.15673   0.26205   0.91626   0.00000  Uiso   1.00
O790   O     0.11240   0.25566   0.97674   0.00000  Uiso   1.00
C791   C     0.45251   0.02202   0.75059   0.00000  Uiso   1.00
H792   H     0.42334   0.01086   0.77189   0.00000  Uiso   1.00
O793   O     0.46811   0.32232   0.71214   0.00000  Uiso   1.00
C794   C     0.04736   0.31069   0.91536   0.00000  Uiso   1.00
H795   H     0.03450   0.00461   0.95274   0.00000  Uiso   1.00
O796   O     0.07714   0.32608   0.88782   0.00000  Uiso   1.00
S797   S     0.19355   0.31646   0.75942   0.00000  Uiso   1.00
O798   O     0.21125   0.28420   0.70337   0.00000  Uiso   1.00
O799   O     0.16361   0.28240   0.78803   0.00000  Uiso   1.00
O800   O     0.16361   0.02992   0.73768   0.00000  Uiso   1.00
H801   H     0.13466   0.01208   0.71912   0.00000  Uiso   1.00
S802   S     0.30643   0.01704   0.90826   0.00000  Uiso   1.00
O803   O     0.33406   0.30920   0.92765   0.00000  Uiso   1.00
O804   O     0.33622   0.05254   0.88144   0.00000  Uiso   1.00
O805   O     0.28499   0.05135   0.97069   0.00000  Uiso   1.00
H806   H     0.30462   0.08369   0.98344   0.00000  Uiso   1.00
C807   C     0.74761   0.06693   0.81865   0.00000  Uiso   1.00
C808   C     0.75259   0.26639   0.84802   0.00000  Uiso   1.00
C809   C     0.52010   0.08113   0.76716   0.00000  Uiso   1.00
C810   C     0.98002   0.25235   0.89693   0.00000  Uiso   1.00
C811   C     0.73923   0.01219   0.81330   0.00000  Uiso   1.00
C812   C     0.76137   0.32107   0.85329   0.00000  Uiso   1.00
C813   C     0.66462   0.16815   0.83434   0.00000  Uiso   1.00
C814   C     0.83536   0.16496   0.83225   0.00000  Uiso   1.00
C815   C     0.90939   0.20427   0.86750   0.00000  Uiso   1.00
C816   C     0.59055   0.12942   0.79695   0.00000  Uiso   1.00
C817   C     0.88347   0.16269   0.83066   0.00000  Uiso   1.00
C818   C     0.61644   0.17001   0.83562   0.00000  Uiso   1.00
C819   C     0.90350   0.12105   0.79324   0.00000  Uiso   1.00
C820   C     0.59632   0.21050   0.87434   0.00000  Uiso   1.00
C821   C     0.95087   0.11981   0.79790   0.00000  Uiso   1.00
C822   C     0.54909   0.21269   0.86795   0.00000  Uiso   1.00
C823   C     0.97650   0.16491   0.83216   0.00000  Uiso   1.00
C824   C     0.52339   0.16805   0.83288   0.00000  Uiso   1.00
C825   C     0.95537   0.20693   0.86628   0.00000  Uiso   1.00
C826   C     0.54458   0.12645   0.79822   0.00000  Uiso   1.00
C827   C     0.97390   0.07576   0.76978   0.00000  Uiso   1.00
C828   C     0.52624   0.25704   0.89526   0.00000  Uiso   1.00
Cu829  Cu    0.75501   0.17246   0.89479   0.00000  Uiso   1.00
Cu830  Cu    0.74500   0.16087   0.77187   0.00000  Uiso   1.00
H831   H     0.89328   0.23626   0.89488   0.00000  Uiso   1.00
H832   H     0.60663   0.09821   0.76843   0.00000  Uiso   1.00
H833   H     0.53770   0.04829   0.74429   0.00000  Uiso   1.00
H834   H     0.96270   0.28571   0.91911   0.00000  Uiso   1.00
H835   H     0.71511   0.12639   0.98299   0.00000  Uiso   1.00
H836   H     0.78484   0.20699   0.68368   0.00000  Uiso   1.00
N837   N     0.73745   0.15214   0.67951   0.00000  Uiso   1.00
N838   N     0.76256   0.18119   0.98716   0.00000  Uiso   1.00
O839   O     0.75326   0.09538   0.87326   0.00000  Uiso   1.00
O840   O     0.74675   0.23796   0.79341   0.00000  Uiso   1.00
O841   O     0.74480   0.08559   0.76945   0.00000  Uiso   1.00
O842   O     0.75520   0.24774   0.89721   0.00000  Uiso   1.00
O843   O     0.68936   0.17155   0.88524   0.00000  Uiso   1.00
O844   O     0.81065   0.16179   0.78143   0.00000  Uiso   1.00
O845   O     0.68090   0.16176   0.78143   0.00000  Uiso   1.00
O846   O     0.81910   0.17157   0.88523   0.00000  Uiso   1.00
C847   C     0.87557   0.08260   0.74549   0.00000  Uiso   1.00
H848   H     0.88656   0.07142   0.69952   0.00000  Uiso   1.00
O849   O     0.84130   0.06158   0.75748   0.00000  Uiso   1.00
C850   C     0.62448   0.24594   0.92469   0.00000  Uiso   1.00
H851   H     0.65673   0.26205   0.91626   0.00000  Uiso   1.00
O852   O     0.61240   0.25566   0.97674   0.00000  Uiso   1.00
C853   C     0.95251   0.02202   0.75059   0.00000  Uiso   1.00
H854   H     0.92334   0.01086   0.77189   0.00000  Uiso   1.00
O855   O     0.96811   0.32232   0.71214   0.00000  Uiso   1.00
C856   C     0.54736   0.31069   0.91536   0.00000  Uiso   1.00
H857   H     0.53450   0.00461   0.95274   0.00000  Uiso   1.00
O858   O     0.57714   0.32608   0.88782   0.00000  Uiso   1.00
S859   S     0.69355   0.31646   0.75942   0.00000  Uiso   1.00
O860   O     0.71125   0.28420   0.70337   0.00000  Uiso   1.00
O861   O     0.66361   0.28240   0.78803   0.00000  Uiso   1.00
O862   O     0.66361   0.02992   0.73768   0.00000  Uiso   1.00
H863   H     0.63466   0.01208   0.71912   0.00000  Uiso   1.00
S864   S     0.80643   0.01704   0.90826   0.00000  Uiso   1.00
O865   O     0.83406   0.30920   0.92765   0.00000  Uiso   1.00
O866   O     0.83622   0.05254   0.88144   0.00000  Uiso   1.00
O867   O     0.78499   0.05135   0.97069   0.00000  Uiso   1.00
H868   H     0.80462   0.08369   0.98344   0.00000  Uiso   1.00
C869   C     0.24761   0.40026   0.81865   0.00000  Uiso   1.00
C870   C     0.25259   0.59972   0.84802   0.00000  Uiso   1.00
C871   C     0.02010   0.41446   0.76716   0.00000  Uiso   1.00
C872   C     0.48002   0.58569   0.89693   0.00000  Uiso   1.00
C873   C     0.23923   0.34553   0.81330   0.00000  Uiso   1.00
C874   C     0.26137   0.65440   0.85329   0.00000  Uiso   1.00
C875   C     0.16462   0.50149   0.83434   0.00000  Uiso   1.00
C876   C     0.33536   0.49829   0.83225   0.00000  Uiso   1.00
C877   C     0.40939   0.53760   0.86750   0.00000  Uiso   1.00
C878   C     0.09055   0.46275   0.79695   0.00000  Uiso   1.00
C879   C     0.38347   0.49602   0.83066   0.00000  Uiso   1.00
C880   C     0.11644   0.50334   0.83562   0.00000  Uiso   1.00
C881   C     0.40350   0.45438   0.79324   0.00000  Uiso   1.00
C882   C     0.09632   0.54383   0.87434   0.00000  Uiso   1.00
C883   C     0.45087   0.45314   0.79790   0.00000  Uiso   1.00
C884   C     0.04909   0.54602   0.86795   0.00000  Uiso   1.00
C885   C     0.47650   0.49825   0.83216   0.00000  Uiso   1.00
C886   C     0.02339   0.50138   0.83288   0.00000  Uiso   1.00
C887   C     0.45537   0.54026   0.86628   0.00000  Uiso   1.00
C888   C     0.04458   0.45979   0.79822   0.00000  Uiso   1.00
C889   C     0.47390   0.40909   0.76978   0.00000  Uiso   1.00
C890   C     0.02624   0.59037   0.89526   0.00000  Uiso   1.00
Cu891  Cu    0.25501   0.50579   0.89479   0.00000  Uiso   1.00
Cu892  Cu    0.24500   0.49421   0.77187   0.00000  Uiso   1.00
H893   H     0.39328   0.56959   0.89488   0.00000  Uiso   1.00
H894   H     0.10663   0.43155   0.76843   0.00000  Uiso   1.00
H895   H     0.03770   0.38162   0.74429   0.00000  Uiso   1.00
H896   H     0.46270   0.61904   0.91911   0.00000  Uiso   1.00
H897   H     0.21511   0.45972   0.98299   0.00000  Uiso   1.00
H898   H     0.28484   0.54032   0.68368   0.00000  Uiso   1.00
N899   N     0.23745   0.48547   0.67951   0.00000  Uiso   1.00
N900   N     0.26256   0.51453   0.98716   0.00000  Uiso   1.00
O901   O     0.25326   0.42871   0.87326   0.00000  Uiso   1.00
O902   O     0.24675   0.57129   0.79341   0.00000  Uiso   1.00
O903   O     0.24480   0.41892   0.76945   0.00000  Uiso   1.00
O904   O     0.25520   0.58108   0.89721   0.00000  Uiso   1.00
O905   O     0.18936   0.50488   0.88524   0.00000  Uiso   1.00
O906   O     0.31065   0.49512   0.78143   0.00000  Uiso   1.00
O907   O     0.18090   0.49510   0.78143   0.00000  Uiso   1.00
O908   O     0.31910   0.50490   0.88523   0.00000  Uiso   1.00
C909   C     0.37557   0.41593   0.74549   0.00000  Uiso   1.00
H910   H     0.38656   0.40475   0.69952   0.00000  Uiso   1.00
O911   O     0.34130   0.39491   0.75748   0.00000  Uiso   1.00
C912   C     0.12448   0.57927   0.92469   0.00000  Uiso   1.00
H913   H     0.15673   0.59538   0.91626   0.00000  Uiso   1.00
O914   O     0.11240   0.58900   0.97674   0.00000  Uiso   1.00
C915   C     0.45251   0.35535   0.75059   0.00000  Uiso   1.00
H916   H     0.42334   0.34419   0.77189   0.00000  Uiso   1.00
O917   O     0.46811   0.65565   0.71214   0.00000  Uiso   1.00
C918   C     0.04736   0.64402   0.91536   0.00000  Uiso   1.00
H919   H     0.03450   0.33794   0.95274   0.00000  Uiso   1.00
O920   O     0.07714   0.65941   0.88782   0.00000  Uiso   1.00
S921   S     0.19355   0.64979   0.75942   0.00000  Uiso   1.00
O922   O     0.21125   0.61753   0.70337   0.00000  Uiso   1.00
O923   O     0.16361   0.61573   0.78803   0.00000  Uiso   1.00
O924   O     0.16361   0.36326   0.73768   0.00000  Uiso   1.00
H925   H     0.13466   0.34542   0.71912   0.00000  Uiso   1.00
S926   S     0.30643   0.35037   0.90826   0.00000  Uiso   1.00
O927   O     0.33406   0.64254   0.92765   0.00000  Uiso   1.00
O928   O     0.33622   0.38588   0.88144   0.00000  Uiso   1.00
O929   O     0.28499   0.38468   0.97069   0.00000  Uiso   1.00
H930   H     0.30462   0.41703   0.98344   0.00000  Uiso   1.00
C931   C     0.74761   0.40026   0.81865   0.00000  Uiso   1.00
C932   C     0.75259   0.59972   0.84802   0.00000  Uiso   1.00
C933   C     0.52010   0.41446   0.76716   0.00000  Uiso   1.00
C934   C     0.98002   0.58569   0.89693   0.00000  Uiso   1.00
C935   C     0.73923   0.34553   0.81330   0.00000  Uiso   1.00
C936   C     0.76137   0.65440   0.85329   0.00000  Uiso   1.00
C937   C     0.66462   0.50149   0.83434   0.00000  Uiso   1.00
C938   C     0.83536   0.49829   0.83225   0.00000  Uiso   1.00
C939   C     0.90939   0.53760   0.86750   0.00000  Uiso   1.00
C940   C     0.59055   0.46275   0.79695   0.00000  Uiso   1.00
C941   C     0.88347   0.49602   0.83066   0.00000  Uiso   1.00
C942   C     0.61644   0.50334   0.83562   0.00000  Uiso   1.00
C943   C     0.90350   0.45438   0.79324   0.00000  Uiso   1.00
C944   C     0.59632   0.54383   0.87434   0.00000  Uiso   1.00
C945   C     0.95087   0.45314   0.79790   0.00000  Uiso   1.00
C946   C     0.54909   0.54602   0.86795   0.00000  Uiso   1.00
C947   C     0.97650   0.49825   0.83216   0.00000  Uiso   1.00
C948   C     0.52339   0.50138   0.83288   0.00000  Uiso   1.00
C949   C     0.95537   0.54026   0.86628   0.00000  Uiso   1.00
C950   C     0.54458   0.45979   0.79822   0.00000  Uiso   1.00
C951   C     0.97390   0.40909   0.76978   0.00000  Uiso   1.00
C952   C     0.52624   0.59037   0.89526   0.00000  Uiso   1.00
Cu953  Cu    0.75501   0.50579   0.89479   0.00000  Uiso   1.00
Cu954  Cu    0.74500   0.49421   0.77187   0.00000  Uiso   1.00
H955   H     0.89328   0.56959   0.89488   0.00000  Uiso   1.00
H956   H     0.60663   0.43155   0.76843   0.00000  Uiso   1.00
H957   H     0.53770   0.38162   0.74429   0.00000  Uiso   1.00
H958   H     0.96270   0.61904   0.91911   0.00000  Uiso   1.00
H959   H     0.71511   0.45972   0.98299   0.00000  Uiso   1.00
H960   H     0.78484   0.54032   0.68368   0.00000  Uiso   1.00
N961   N     0.73745   0.48547   0.67951   0.00000  Uiso   1.00
N962   N     0.76256   0.51453   0.98716   0.00000  Uiso   1.00
O963   O     0.75326   0.42871   0.87326   0.00000  Uiso   1.00
O964   O     0.74675   0.57129   0.79341   0.00000  Uiso   1.00
O965   O     0.74480   0.41892   0.76945   0.00000  Uiso   1.00
O966   O     0.75520   0.58108   0.89721   0.00000  Uiso   1.00
O967   O     0.68936   0.50488   0.88524   0.00000  Uiso   1.00
O968   O     0.81065   0.49512   0.78143   0.00000  Uiso   1.00
O969   O     0.68090   0.49510   0.78143   0.00000  Uiso   1.00
O970   O     0.81910   0.50490   0.88523   0.00000  Uiso   1.00
C971   C     0.87557   0.41593   0.74549   0.00000  Uiso   1.00
H972   H     0.88656   0.40475   0.69952   0.00000  Uiso   1.00
O973   O     0.84130   0.39491   0.75748   0.00000  Uiso   1.00
C974   C     0.62448   0.57927   0.92469   0.00000  Uiso   1.00
H975   H     0.65673   0.59538   0.91626   0.00000  Uiso   1.00
O976   O     0.61240   0.58900   0.97674   0.00000  Uiso   1.00
C977   C     0.95251   0.35535   0.75059   0.00000  Uiso   1.00
H978   H     0.92334   0.34419   0.77189   0.00000  Uiso   1.00
O979   O     0.96811   0.65565   0.71214   0.00000  Uiso   1.00
C980   C     0.54736   0.64402   0.91536   0.00000  Uiso   1.00
H981   H     0.53450   0.33794   0.95274   0.00000  Uiso   1.00
O982   O     0.57714   0.65941   0.88782   0.00000  Uiso   1.00
S983   S     0.69355   0.64979   0.75942   0.00000  Uiso   1.00
O984   O     0.71125   0.61753   0.70337   0.00000  Uiso   1.00
O985   O     0.66361   0.61573   0.78803   0.00000  Uiso   1.00
O986   O     0.66361   0.36326   0.73768   0.00000  Uiso   1.00
H987   H     0.63466   0.34542   0.71912   0.00000  Uiso   1.00
S988   S     0.80643   0.35037   0.90826   0.00000  Uiso   1.00
O989   O     0.83406   0.64254   0.92765   0.00000  Uiso   1.00
O990   O     0.83622   0.38588   0.88144   0.00000  Uiso   1.00
O991   O     0.78499   0.38468   0.97069   0.00000  Uiso   1.00
H992   H     0.80462   0.41703   0.98344   0.00000  Uiso   1.00
C993   C     0.24761   0.73359   0.81865   0.00000  Uiso   1.00
C994   C     0.25259   0.93306   0.84802   0.00000  Uiso   1.00
C995   C     0.02010   0.74779   0.76716   0.00000  Uiso   1.00
C996   C     0.48002   0.91902   0.89693   0.00000  Uiso   1.00
C997   C     0.23923   0.67886   0.81330   0.00000  Uiso   1.00
C998   C     0.26137   0.98774   0.85329   0.00000  Uiso   1.00
C999   C     0.16462   0.83482   0.83434   0.00000  Uiso   1.00
C1000  C     0.33536   0.83162   0.83225   0.00000  Uiso   1.00
C1001  C     0.40939   0.87094   0.86750   0.00000  Uiso   1.00
C1002  C     0.09055   0.79609   0.79695   0.00000  Uiso   1.00
C1003  C     0.38347   0.82935   0.83066   0.00000  Uiso   1.00
C1004  C     0.11644   0.83667   0.83562   0.00000  Uiso   1.00
C1005  C     0.40350   0.78771   0.79324   0.00000  Uiso   1.00
C1006  C     0.09632   0.87717   0.87434   0.00000  Uiso   1.00
C1007  C     0.45087   0.78648   0.79790   0.00000  Uiso   1.00
C1008  C     0.04909   0.87936   0.86795   0.00000  Uiso   1.00
C1009  C     0.47650   0.83158   0.83216   0.00000  Uiso   1.00
C1010  C     0.02339   0.83471   0.83288   0.00000  Uiso   1.00
C1011  C     0.45537   0.87359   0.86628   0.00000  Uiso   1.00
C1012  C     0.04458   0.79312   0.79822   0.00000  Uiso   1.00
C1013  C     0.47390   0.74243   0.76978   0.00000  Uiso   1.00
C1014  C     0.02624   0.92370   0.89526   0.00000  Uiso   1.00
Cu1015 Cu    0.25501   0.83913   0.89479   0.00000  Uiso   1.00
Cu1016 Cu    0.24500   0.82754   0.77187   0.00000  Uiso   1.00
H1017  H     0.39328   0.90292   0.89488   0.00000  Uiso   1.00
H1018  H     0.10663   0.76488   0.76843   0.00000  Uiso   1.00
H1019  H     0.03770   0.71496   0.74429   0.00000  Uiso   1.00
H1020  H     0.46270   0.95237   0.91911   0.00000  Uiso   1.00
H1021  H     0.21511   0.79306   0.98299   0.00000  Uiso   1.00
H1022  H     0.28484   0.87366   0.68368   0.00000  Uiso   1.00
N1023  N     0.23745   0.81881   0.67951   0.00000  Uiso   1.00
N1024  N     0.26256   0.84786   0.98716   0.00000  Uiso   1.00
O1025  O     0.25326   0.76204   0.87326   0.00000  Uiso   1.00
O1026  O     0.24675   0.90462   0.79341   0.00000  Uiso   1.00
O1027  O     0.24480   0.75226   0.76945   0.00000  Uiso   1.00
O1028  O     0.25520   0.91441   0.89721   0.00000  Uiso   1.00
O1029  O     0.18936   0.83821   0.88524   0.00000  Uiso   1.00
O1030  O     0.31065   0.82845   0.78143   0.00000  Uiso   1.00
O1031  O     0.18090   0.82843   0.78143   0.00000  Uiso   1.00
O1032  O     0.31910   0.83824   0.88523   0.00000  Uiso   1.00
C1033  C     0.37557   0.74926   0.74549   0.00000  Uiso   1.00
H1034  H     0.38656   0.73808   0.69952   0.00000  Uiso   1.00
O1035  O     0.34130   0.72824   0.75748   0.00000  Uiso   1.00
C1036  C     0.12448   0.91260   0.92469   0.00000  Uiso   1.00
H1037  H     0.15673   0.92871   0.91626   0.00000  Uiso   1.00
O1038  O     0.11240   0.92233   0.97674   0.00000  Uiso   1.00
C1039  C     0.45251   0.68869   0.75059   0.00000  Uiso   1.00
H1040  H     0.42334   0.67753   0.77189   0.00000  Uiso   1.00
O1041  O     0.46811   0.98899   0.71214   0.00000  Uiso   1.00
C1042  C     0.04736   0.97736   0.91536   0.00000  Uiso   1.00
H1043  H     0.03450   0.67127   0.95274   0.00000  Uiso   1.00
O1044  O     0.07714   0.99274   0.88782   0.00000  Uiso   1.00
S1045  S     0.19355   0.98313   0.75942   0.00000  Uiso   1.00
O1046  O     0.21125   0.95087   0.70337   0.00000  Uiso   1.00
O1047  O     0.16361   0.94907   0.78803   0.00000  Uiso   1.00
O1048  O     0.16361   0.69659   0.73768   0.00000  Uiso   1.00
H1049  H     0.13466   0.67875   0.71912   0.00000  Uiso   1.00
S1050  S     0.30643   0.68370   0.90826   0.00000  Uiso   1.00
O1051  O     0.33406   0.97587   0.92765   0.00000  Uiso   1.00
O1052  O     0.33622   0.71921   0.88144   0.00000  Uiso   1.00
O1053  O     0.28499   0.71801   0.97069   0.00000  Uiso   1.00
H1054  H     0.30462   0.75036   0.98344   0.00000  Uiso   1.00
C1055  C     0.74761   0.73359   0.81865   0.00000  Uiso   1.00
C1056  C     0.75259   0.93306   0.84802   0.00000  Uiso   1.00
C1057  C     0.52010   0.74779   0.76716   0.00000  Uiso   1.00
C1058  C     0.98002   0.91902   0.89693   0.00000  Uiso   1.00
C1059  C     0.73923   0.67886   0.81330   0.00000  Uiso   1.00
C1060  C     0.76137   0.98774   0.85329   0.00000  Uiso   1.00
C1061  C     0.66462   0.83482   0.83434   0.00000  Uiso   1.00
C1062  C     0.83536   0.83162   0.83225   0.00000  Uiso   1.00
C1063  C     0.90939   0.87094   0.86750   0.00000  Uiso   1.00
C1064  C     0.59055   0.79609   0.79695   0.00000  Uiso   1.00
C1065  C     0.88347   0.82935   0.83066   0.00000  Uiso   1.00
C1066  C     0.61644   0.83667   0.83562   0.00000  Uiso   1.00
C1067  C     0.90350   0.78771   0.79324   0.00000  Uiso   1.00
C1068  C     0.59632   0.87717   0.87434   0.00000  Uiso   1.00
C1069  C     0.95087   0.78648   0.79790   0.00000  Uiso   1.00
C1070  C     0.54909   0.87936   0.86795   0.00000  Uiso   1.00
C1071  C     0.97650   0.83158   0.83216   0.00000  Uiso   1.00
C1072  C     0.52339   0.83471   0.83288   0.00000  Uiso   1.00
C1073  C     0.95537   0.87359   0.86628   0.00000  Uiso   1.00
C1074  C     0.54458   0.79312   0.79822   0.00000  Uiso   1.00
C1075  C     0.97390   0.74243   0.76978   0.00000  Uiso   1.00
C1076  C     0.52624   0.92370   0.89526   0.00000  Uiso   1.00
Cu1077 Cu    0.75501   0.83913   0.89479   0.00000  Uiso   1.00
Cu1078 Cu    0.74500   0.82754   0.77187   0.00000  Uiso   1.00
H1079  H     0.89328   0.90292   0.89488   0.00000  Uiso   1.00
H1080  H     0.60663   0.76488   0.76843   0.00000  Uiso   1.00
H1081  H     0.53770   0.71496   0.74429   0.00000  Uiso   1.00
H1082  H     0.96270   0.95237   0.91911   0.00000  Uiso   1.00
H1083  H     0.71511   0.79306   0.98299   0.00000  Uiso   1.00
H1084  H     0.78484   0.87366   0.68368   0.00000  Uiso   1.00
N1085  N     0.73745   0.81881   0.67951   0.00000  Uiso   1.00
N1086  N     0.76256   0.84786   0.98716   0.00000  Uiso   1.00
O1087  O     0.75326   0.76204   0.87326   0.00000  Uiso   1.00
O1088  O     0.74675   0.90462   0.79341   0.00000  Uiso   1.00
O1089  O     0.74480   0.75226   0.76945   0.00000  Uiso   1.00
O1090  O     0.75520   0.91441   0.89721   0.00000  Uiso   1.00
O1091  O     0.68936   0.83821   0.88524   0.00000  Uiso   1.00
O1092  O     0.81065   0.82845   0.78143   0.00000  Uiso   1.00
O1093  O     0.68090   0.82843   0.78143   0.00000  Uiso   1.00
O1094  O     0.81910   0.83824   0.88523   0.00000  Uiso   1.00
C1095  C     0.87557   0.74926   0.74549   0.00000  Uiso   1.00
H1096  H     0.88656   0.73808   0.69952   0.00000  Uiso   1.00
O1097  O     0.84130   0.72824   0.75748   0.00000  Uiso   1.00
C1098  C     0.62448   0.91260   0.92469   0.00000  Uiso   1.00
H1099  H     0.65673   0.92871   0.91626   0.00000  Uiso   1.00
O1100  O     0.61240   0.92233   0.97674   0.00000  Uiso   1.00
C1101  C     0.95251   0.68869   0.75059   0.00000  Uiso   1.00
H1102  H     0.92334   0.67753   0.77189   0.00000  Uiso   1.00
O1103  O     0.96811   0.98899   0.71214   0.00000  Uiso   1.00
C1104  C     0.54736   0.97736   0.91536   0.00000  Uiso   1.00
H1105  H     0.53450   0.67127   0.95274   0.00000  Uiso   1.00
O1106  O     0.57714   0.99274   0.88782   0.00000  Uiso   1.00
S1107  S     0.69355   0.98313   0.75942   0.00000  Uiso   1.00
O1108  O     0.71125   0.95087   0.70337   0.00000  Uiso   1.00
O1109  O     0.66361   0.94907   0.78803   0.00000  Uiso   1.00
O1110  O     0.66361   0.69659   0.73768   0.00000  Uiso   1.00
H1111  H     0.63466   0.67875   0.71912   0.00000  Uiso   1.00
S1112  S     0.80643   0.68370   0.90826   0.00000  Uiso   1.00
O1113  O     0.83406   0.97587   0.92765   0.00000  Uiso   1.00
O1114  O     0.83622   0.71921   0.88144   0.00000  Uiso   1.00
O1115  O     0.78499   0.71801   0.97069   0.00000  Uiso   1.00
H1116  H     0.80462   0.75036   0.98344   0.00000  Uiso   1.00
loop_
_geom_bond_atom_site_label_1
_geom_bond_atom_site_label_2
_geom_bond_distance
_geom_bond_site_symmetry_2
_ccdc_geom_bond_type
C1     C5      1.424   .     S
C1     O33     1.285   .     A
C1     O35     1.288   .     A
C2     C6      1.424   .     S
C2     O36     1.288   .     A
C2     O34     1.285   .     A
C3     H27     1.085   .     S
C3     C20     1.394   .     A
C3     C83     1.397   1_455 S
C4     C19     1.395   .     A
C4     H28     1.085   .     S
C4     C84     1.394   .     S
C5     C254    1.355   1_545 S
C5     S301    1.789   1_545 S
C6     C129    1.355   .     S
C6     S182    1.791   .     S
C7     O37     1.296   .     A
C7     C12     1.454   .     S
C7     O39     1.292   .     A
C8     O38     1.295   .     A
C8     C11     1.453   .     S
C8     O40     1.292   .     A
C9     H25     1.085   .     S
C9     C11     1.390   .     A
C9     C19     1.384   .     A
C10    H26     1.082   .     S
C10    C12     1.390   .     A
C10    C20     1.384   .     A
C11    C13     1.415   .     A
C12    C14     1.411   .     A
C13    C41     1.486   .     S
C13    C15     1.423   .     A
C14    C44     1.484   .     S
C14    C16     1.422   .     A
C15    C21     1.428   .     A
C15    C17     1.427   .     A
C16    C18     1.426   .     A
C16    C22     1.425   .     A
C17    C19     1.407   .     A
C17    C80     1.407   .     S
C18    C20     1.406   .     A
C18    C79     1.407   1_455 S
C21    C47     1.487   .     S
C21    C65     1.397   .     S
C22    C50     1.484   .     S
C22    C66     1.394   1_455 S
Cu23   Cu24    2.687   .     S
Cu23   N32     2.019   .     S
Cu23   O40     1.955   .     S
Cu23   O36     1.962   .     S
Cu23   O37     1.969   .     S
Cu23   O33     1.975   .     S
Cu24   O38     1.969   .     S
Cu24   N31     2.019   .     S
Cu24   O35     1.962   .     S
Cu24   O39     1.955   .     S
Cu24   O34     1.975   .     S
H29    N403    1.029   .     S
H30    N776    1.029   1_554 S
N31    H773    1.029   1_554 S
N31    N776    1.292   1_554 S
N32    N403    1.292   .     S
N32    H402    1.029   .     S
C41    H42     1.085   .     S
C41    O43     1.220   .     D
C44    O46     1.221   .     D
C44    H45     1.085   .     S
C47    H48     1.084   .     S
C47    O297    1.221   1_545 S
O49    C171    1.221   .     S
C50    O52     1.221   .     D
C50    H175    1.086   .     S
H51    C298    1.086   1_545 S
S53    O54     1.503   .     D
S53    O55     1.504   .     D
S53    C129    1.789   .     S
S53    O180    1.681   .     S
O56    H57     0.990   .     S
O56    S301    1.681   1_545 S
S58    O61     1.681   .     S
S58    O60     1.503   .     D
S58    C254    1.791   1_545 S
S58    O307    1.503   1_545 S
O59    S182    1.503   .     S
O61    H62     0.990   .     S
C63    C67     1.424   .     S
C63    O95     1.285   .     A
C63    O97     1.288   .     A
C64    C68     1.424   .     S
C64    O98     1.288   .     A
C64    O96     1.285   .     A
C65    H89     1.085   .     S
C65    C82     1.394   .     A
C66    C81     1.395   .     A
C66    H90     1.085   .     S
C66    C22     1.394   1_655 S
C67    C316    1.355   1_545 S
C67    S363    1.789   1_545 S
C68    C191    1.355   .     S
C68    S244    1.791   .     S
C69    O99     1.296   .     A
C69    C74     1.454   .     S
C69    O101    1.292   .     A
C70    O100    1.295   .     A
C70    C73     1.453   .     S
C70    O102    1.292   .     A
C71    H87     1.085   .     S
C71    C73     1.390   .     A
C71    C81     1.384   .     A
C72    H88     1.082   .     S
C72    C74     1.390   .     A
C72    C82     1.384   .     A
C73    C75     1.415   .     A
C74    C76     1.411   .     A
C75    C103    1.486   .     S
C75    C77     1.423   .     A
C76    C106    1.484   .     S
C76    C78     1.422   .     A
C77    C83     1.428   .     A
C77    C79     1.427   .     A
C78    C80     1.426   .     A
C78    C84     1.425   .     A
C79    C81     1.407   .     A
C79    C18     1.407   1_655 S
C80    C82     1.406   .     A
C83    C109    1.487   .     S
C83    C3      1.397   1_655 S
C84    C112    1.484   .     S
Cu85   Cu86    2.687   .     S
Cu85   N94     2.019   .     S
Cu85   O102    1.955   .     S
Cu85   O98     1.962   .     S
Cu85   O99     1.969   .     S
Cu85   O95     1.975   .     S
Cu86   O100    1.969   .     S
Cu86   N93     2.019   .     S
Cu86   O97     1.962   .     S
Cu86   O101    1.955   .     S
Cu86   O96     1.975   .     S
H91    N465    1.029   .     S
H92    N838    1.029   1_554 S
N93    H835    1.029   1_554 S
N93    N838    1.292   1_554 S
N94    N465    1.292   .     S
N94    H464    1.029   .     S
C103   H104    1.085   .     S
C103   O105    1.220   .     D
C106   O108    1.221   .     D
C106   H107    1.085   .     S
C109   H110    1.084   .     S
C109   O359    1.221   1_545 S
O111   C233    1.221   .     S
C112   O114    1.221   .     D
C112   H237    1.086   .     S
H113   C360    1.086   1_545 S
S115   O116    1.503   .     D
S115   O117    1.504   .     D
S115   C191    1.789   .     S
S115   O242    1.681   .     S
O118   H119    0.990   .     S
O118   S363    1.681   1_545 S
S120   O123    1.681   .     S
S120   O122    1.503   .     D
S120   C316    1.791   1_545 S
S120   O369    1.503   1_545 S
O121   S244    1.503   .     S
O123   H124    0.990   .     S
C125   C129    1.424   .     S
C125   O157    1.285   .     A
C125   O159    1.288   .     A
C126   C130    1.424   .     S
C126   O160    1.288   .     A
C126   O158    1.285   .     A
C127   H151    1.085   .     S
C127   C144    1.394   .     A
C127   C207    1.397   1_455 S
C128   C143    1.395   .     A
C128   H152    1.085   .     S
C128   C208    1.394   .     S
C130   C253    1.355   .     S
C130   S306    1.791   .     S
C131   O161    1.296   .     A
C131   C136    1.454   .     S
C131   O163    1.292   .     A
C132   O162    1.295   .     A
C132   C135    1.453   .     S
C132   O164    1.292   .     A
C133   H149    1.085   .     S
C133   C135    1.390   .     A
C133   C143    1.384   .     A
C134   H150    1.082   .     S
C134   C136    1.390   .     A
C134   C144    1.384   .     A
C135   C137    1.415   .     A
C136   C138    1.411   .     A
C137   C165    1.486   .     S
C137   C139    1.423   .     A
C138   C168    1.484   .     S
C138   C140    1.422   .     A
C139   C145    1.428   .     A
C139   C141    1.427   .     A
C140   C142    1.426   .     A
C140   C146    1.425   .     A
C141   C143    1.407   .     A
C141   C204    1.407   .     S
C142   C144    1.406   .     A
C142   C203    1.407   1_455 S
C145   C171    1.487   .     S
C145   C189    1.397   .     S
C146   C174    1.484   .     S
C146   C190    1.394   1_455 S
Cu147  Cu148   2.687   .     S
Cu147  N156    2.019   .     S
Cu147  O164    1.955   .     S
Cu147  O160    1.962   .     S
Cu147  O161    1.969   .     S
Cu147  O157    1.975   .     S
Cu148  O162    1.969   .     S
Cu148  N155    2.019   .     S
Cu148  O159    1.962   .     S
Cu148  O163    1.955   .     S
Cu148  O158    1.975   .     S
H153   N527    1.029   .     S
H154   N900    1.029   1_554 S
N155   H897    1.029   1_554 S
N155   N900    1.292   1_554 S
N156   N527    1.292   .     S
N156   H526    1.029   .     S
C165   H166    1.085   .     S
C165   O167    1.220   .     D
C168   O170    1.221   .     D
C168   H169    1.085   .     S
C171   H172    1.084   .     S
O173   C295    1.221   .     S
C174   O176    1.221   .     D
C174   H299    1.086   .     S
S177   O178    1.503   .     D
S177   O179    1.504   .     D
S177   C253    1.789   .     S
S177   O304    1.681   .     S
O180   H181    0.990   .     S
S182   O185    1.681   .     S
S182   O184    1.503   .     D
O183   S306    1.503   .     S
O185   H186    0.990   .     S
C187   C191    1.424   .     S
C187   O219    1.285   .     A
C187   O221    1.288   .     A
C188   C192    1.424   .     S
C188   O222    1.288   .     A
C188   O220    1.285   .     A
C189   H213    1.085   .     S
C189   C206    1.394   .     A
C190   C205    1.395   .     A
C190   H214    1.085   .     S
C190   C146    1.394   1_655 S
C192   C315    1.355   .     S
C192   S368    1.791   .     S
C193   O223    1.296   .     A
C193   C198    1.454   .     S
C193   O225    1.292   .     A
C194   O224    1.295   .     A
C194   C197    1.453   .     S
C194   O226    1.292   .     A
C195   H211    1.085   .     S
C195   C197    1.390   .     A
C195   C205    1.384   .     A
C196   H212    1.082   .     S
C196   C198    1.390   .     A
C196   C206    1.384   .     A
C197   C199    1.415   .     A
C198   C200    1.411   .     A
C199   C227    1.486   .     S
C199   C201    1.423   .     A
C200   C230    1.484   .     S
C200   C202    1.422   .     A
C201   C207    1.428   .     A
C201   C203    1.427   .     A
C202   C204    1.426   .     A
C202   C208    1.425   .     A
C203   C205    1.407   .     A
C203   C142    1.407   1_655 S
C204   C206    1.406   .     A
C207   C233    1.487   .     S
C207   C127    1.397   1_655 S
C208   C236    1.484   .     S
Cu209  Cu210   2.687   .     S
Cu209  N218    2.019   .     S
Cu209  O226    1.955   .     S
Cu209  O222    1.962   .     S
Cu209  O223    1.969   .     S
Cu209  O219    1.975   .     S
Cu210  O224    1.969   .     S
Cu210  N217    2.019   .     S
Cu210  O221    1.962   .     S
Cu210  O225    1.955   .     S
Cu210  O220    1.975   .     S
H215   N589    1.029   .     S
H216   N962    1.029   1_554 S
N217   H959    1.029   1_554 S
N217   N962    1.292   1_554 S
N218   N589    1.292   .     S
N218   H588    1.029   .     S
C227   H228    1.085   .     S
C227   O229    1.220   .     D
C230   O232    1.221   .     D
C230   H231    1.085   .     S
C233   H234    1.084   .     S
O235   C357    1.221   .     S
C236   O238    1.221   .     D
C236   H361    1.086   .     S
S239   O240    1.503   .     D
S239   O241    1.504   .     D
S239   C315    1.789   .     S
S239   O366    1.681   .     S
O242   H243    0.990   .     S
S244   O247    1.681   .     S
S244   O246    1.503   .     D
O245   S368    1.503   .     S
O247   H248    0.990   .     S
C249   C253    1.424   .     S
C249   O281    1.285   .     A
C249   O283    1.288   .     A
C250   C254    1.424   .     S
C250   O284    1.288   .     A
C250   O282    1.285   .     A
C251   H275    1.085   .     S
C251   C268    1.394   .     A
C251   C331    1.397   1_455 S
C252   C267    1.395   .     A
C252   H276    1.085   .     S
C252   C332    1.394   .     S
C254   C5      1.355   1_565 S
C254   S58     1.791   1_565 S
C255   O285    1.296   .     A
C255   C260    1.454   .     S
C255   O287    1.292   .     A
C256   O286    1.295   .     A
C256   C259    1.453   .     S
C256   O288    1.292   .     A
C257   H273    1.085   .     S
C257   C259    1.390   .     A
C257   C267    1.384   .     A
C258   H274    1.082   .     S
C258   C260    1.390   .     A
C258   C268    1.384   .     A
C259   C261    1.415   .     A
C260   C262    1.411   .     A
C261   C289    1.486   .     S
C261   C263    1.423   .     A
C262   C292    1.484   .     S
C262   C264    1.422   .     A
C263   C269    1.428   .     A
C263   C265    1.427   .     A
C264   C266    1.426   .     A
C264   C270    1.425   .     A
C265   C267    1.407   .     A
C265   C328    1.407   .     S
C266   C268    1.406   .     A
C266   C327    1.407   1_455 S
C269   C295    1.487   .     S
C269   C313    1.397   .     S
C270   C298    1.484   .     S
C270   C314    1.394   1_455 S
Cu271  Cu272   2.687   .     S
Cu271  N280    2.019   .     S
Cu271  O288    1.955   .     S
Cu271  O284    1.962   .     S
Cu271  O285    1.969   .     S
Cu271  O281    1.975   .     S
Cu272  O286    1.969   .     S
Cu272  N279    2.019   .     S
Cu272  O283    1.962   .     S
Cu272  O287    1.955   .     S
Cu272  O282    1.975   .     S
H277   N651    1.029   .     S
H278   N1024   1.029   1_554 S
N279   H1021   1.029   1_554 S
N279   N1024   1.292   1_554 S
N280   N651    1.292   .     S
N280   H650    1.029   .     S
C289   H290    1.085   .     S
C289   O291    1.220   .     D
C292   O294    1.221   .     D
C292   H293    1.085   .     S
C295   H296    1.084   .     S
O297   C47     1.221   1_565 S
C298   O300    1.221   .     D
C298   H51     1.086   1_565 S
S301   O302    1.503   .     D
S301   O303    1.504   .     D
S301   C5      1.789   1_565 S
S301   O56     1.681   1_565 S
O304   H305    0.990   .     S
S306   O309    1.681   .     S
S306   O308    1.503   .     D
O307   S58     1.503   1_565 S
O309   H310    0.990   .     S
C311   C315    1.424   .     S
C311   O343    1.285   .     A
C311   O345    1.288   .     A
C312   C316    1.424   .     S
C312   O346    1.288   .     A
C312   O344    1.285   .     A
C313   H337    1.085   .     S
C313   C330    1.394   .     A
C314   C329    1.395   .     A
C314   H338    1.085   .     S
C314   C270    1.394   1_655 S
C316   C67     1.355   1_565 S
C316   S120    1.791   1_565 S
C317   O347    1.296   .     A
C317   C322    1.454   .     S
C317   O349    1.292   .     A
C318   O348    1.295   .     A
C318   C321    1.453   .     S
C318   O350    1.292   .     A
C319   H335    1.085   .     S
C319   C321    1.390   .     A
C319   C329    1.384   .     A
C320   H336    1.082   .     S
C320   C322    1.390   .     A
C320   C330    1.384   .     A
C321   C323    1.415   .     A
C322   C324    1.411   .     A
C323   C351    1.486   .     S
C323   C325    1.423   .     A
C324   C354    1.484   .     S
C324   C326    1.422   .     A
C325   C331    1.428   .     A
C325   C327    1.427   .     A
C326   C328    1.426   .     A
C326   C332    1.425   .     A
C327   C329    1.407   .     A
C327   C266    1.407   1_655 S
C328   C330    1.406   .     A
C331   C357    1.487   .     S
C331   C251    1.397   1_655 S
C332   C360    1.484   .     S
Cu333  Cu334   2.687   .     S
Cu333  N342    2.019   .     S
Cu333  O350    1.955   .     S
Cu333  O346    1.962   .     S
Cu333  O347    1.969   .     S
Cu333  O343    1.975   .     S
Cu334  O348    1.969   .     S
Cu334  N341    2.019   .     S
Cu334  O345    1.962   .     S
Cu334  O349    1.955   .     S
Cu334  O344    1.975   .     S
H339   N713    1.029   .     S
H340   N1086   1.029   1_554 S
N341   H1083   1.029   1_554 S
N341   N1086   1.292   1_554 S
N342   N713    1.292   .     S
N342   H712    1.029   .     S
C351   H352    1.085   .     S
C351   O353    1.220   .     D
C354   O356    1.221   .     D
C354   H355    1.085   .     S
C357   H358    1.084   .     S
O359   C109    1.221   1_565 S
C360   O362    1.221   .     D
C360   H113    1.086   1_565 S
S363   O364    1.503   .     D
S363   O365    1.504   .     D
S363   C67     1.789   1_565 S
S363   O118    1.681   1_565 S
O366   H367    0.990   .     S
S368   O371    1.681   .     S
S368   O370    1.503   .     D
O369   S120    1.503   1_565 S
O371   H372    0.990   .     S
C373   C377    1.424   .     S
C373   O405    1.285   .     A
C373   O407    1.288   .     A
C374   C378    1.424   .     S
C374   O408    1.288   .     A
C374   O406    1.285   .     A
C375   H399    1.085   .     S
C375   C392    1.394   .     A
C375   C455    1.397   1_455 S
C376   C391    1.395   .     A
C376   H400    1.085   .     S
C376   C456    1.394   .     S
C377   C626    1.355   1_545 S
C377   S673    1.789   1_545 S
C378   C501    1.355   .     S
C378   S554    1.791   .     S
C379   O409    1.296   .     A
C379   C384    1.454   .     S
C379   O411    1.292   .     A
C380   O410    1.295   .     A
C380   C383    1.453   .     S
C380   O412    1.292   .     A
C381   H397    1.085   .     S
C381   C383    1.390   .     A
C381   C391    1.384   .     A
C382   H398    1.082   .     S
C382   C384    1.390   .     A
C382   C392    1.384   .     A
C383   C385    1.415   .     A
C384   C386    1.411   .     A
C385   C413    1.486   .     S
C385   C387    1.423   .     A
C386   C416    1.484   .     S
C386   C388    1.422   .     A
C387   C393    1.428   .     A
C387   C389    1.427   .     A
C388   C390    1.426   .     A
C388   C394    1.425   .     A
C389   C391    1.407   .     A
C389   C452    1.407   .     S
C390   C392    1.406   .     A
C390   C451    1.407   1_455 S
C393   C419    1.487   .     S
C393   C437    1.397   .     S
C394   C422    1.484   .     S
C394   C438    1.394   1_455 S
Cu395  Cu396   2.687   .     S
Cu395  N404    2.019   .     S
Cu395  O412    1.955   .     S
Cu395  O408    1.962   .     S
Cu395  O409    1.969   .     S
Cu395  O405    1.975   .     S
Cu396  O410    1.969   .     S
Cu396  N403    2.019   .     S
Cu396  O407    1.962   .     S
Cu396  O411    1.955   .     S
Cu396  O406    1.975   .     S
H401   N775    1.029   .     S
N404   N775    1.292   .     S
N404   H774    1.029   .     S
C413   H414    1.085   .     S
C413   O415    1.220   .     D
C416   O418    1.221   .     D
C416   H417    1.085   .     S
C419   H420    1.084   .     S
C419   O669    1.221   1_545 S
O421   C543    1.221   .     S
C422   O424    1.221   .     D
C422   H547    1.086   .     S
H423   C670    1.086   1_545 S
S425   O426    1.503   .     D
S425   O427    1.504   .     D
S425   C501    1.789   .     S
S425   O552    1.681   .     S
O428   H429    0.990   .     S
O428   S673    1.681   1_545 S
S430   O433    1.681   .     S
S430   O432    1.503   .     D
S430   C626    1.791   1_545 S
S430   O679    1.503   1_545 S
O431   S554    1.503   .     S
O433   H434    0.990   .     S
C435   C439    1.424   .     S
C435   O467    1.285   .     A
C435   O469    1.288   .     A
C436   C440    1.424   .     S
C436   O470    1.288   .     A
C436   O468    1.285   .     A
C437   H461    1.085   .     S
C437   C454    1.394   .     A
C438   C453    1.395   .     A
C438   H462    1.085   .     S
C438   C394    1.394   1_655 S
C439   C688    1.355   1_545 S
C439   S735    1.789   1_545 S
C440   C563    1.355   .     S
C440   S616    1.791   .     S
C441   O471    1.296   .     A
C441   C446    1.454   .     S
C441   O473    1.292   .     A
C442   O472    1.295   .     A
C442   C445    1.453   .     S
C442   O474    1.292   .     A
C443   H459    1.085   .     S
C443   C445    1.390   .     A
C443   C453    1.384   .     A
C444   H460    1.082   .     S
C444   C446    1.390   .     A
C444   C454    1.384   .     A
C445   C447    1.415   .     A
C446   C448    1.411   .     A
C447   C475    1.486   .     S
C447   C449    1.423   .     A
C448   C478    1.484   .     S
C448   C450    1.422   .     A
C449   C455    1.428   .     A
C449   C451    1.427   .     A
C450   C452    1.426   .     A
C450   C456    1.425   .     A
C451   C453    1.407   .     A
C451   C390    1.407   1_655 S
C452   C454    1.406   .     A
C455   C481    1.487   .     S
C455   C375    1.397   1_655 S
C456   C484    1.484   .     S
Cu457  Cu458   2.687   .     S
Cu457  N466    2.019   .     S
Cu457  O474    1.955   .     S
Cu457  O470    1.962   .     S
Cu457  O471    1.969   .     S
Cu457  O467    1.975   .     S
Cu458  O472    1.969   .     S
Cu458  N465    2.019   .     S
Cu458  O469    1.962   .     S
Cu458  O473    1.955   .     S
Cu458  O468    1.975   .     S
H463   N837    1.029   .     S
N466   N837    1.292   .     S
N466   H836    1.029   .     S
C475   H476    1.085   .     S
C475   O477    1.220   .     D
C478   O480    1.221   .     D
C478   H479    1.085   .     S
C481   H482    1.084   .     S
C481   O731    1.221   1_545 S
O483   C605    1.221   .     S
C484   O486    1.221   .     D
C484   H609    1.086   .     S
H485   C732    1.086   1_545 S
S487   O488    1.503   .     D
S487   O489    1.504   .     D
S487   C563    1.789   .     S
S487   O614    1.681   .     S
O490   H491    0.990   .     S
O490   S735    1.681   1_545 S
S492   O495    1.681   .     S
S492   O494    1.503   .     D
S492   C688    1.791   1_545 S
S492   O741    1.503   1_545 S
O493   S616    1.503   .     S
O495   H496    0.990   .     S
C497   C501    1.424   .     S
C497   O529    1.285   .     A
C497   O531    1.288   .     A
C498   C502    1.424   .     S
C498   O532    1.288   .     A
C498   O530    1.285   .     A
C499   H523    1.085   .     S
C499   C516    1.394   .     A
C499   C579    1.397   1_455 S
C500   C515    1.395   .     A
C500   H524    1.085   .     S
C500   C580    1.394   .     S
C502   C625    1.355   .     S
C502   S678    1.791   .     S
C503   O533    1.296   .     A
C503   C508    1.454   .     S
C503   O535    1.292   .     A
C504   O534    1.295   .     A
C504   C507    1.453   .     S
C504   O536    1.292   .     A
C505   H521    1.085   .     S
C505   C507    1.390   .     A
C505   C515    1.384   .     A
C506   H522    1.082   .     S
C506   C508    1.390   .     A
C506   C516    1.384   .     A
C507   C509    1.415   .     A
C508   C510    1.411   .     A
C509   C537    1.486   .     S
C509   C511    1.423   .     A
C510   C540    1.484   .     S
C510   C512    1.422   .     A
C511   C517    1.428   .     A
C511   C513    1.427   .     A
C512   C514    1.426   .     A
C512   C518    1.425   .     A
C513   C515    1.407   .     A
C513   C576    1.407   .     S
C514   C516    1.406   .     A
C514   C575    1.407   1_455 S
C517   C543    1.487   .     S
C517   C561    1.397   .     S
C518   C546    1.484   .     S
C518   C562    1.394   1_455 S
Cu519  Cu520   2.687   .     S
Cu519  N528    2.019   .     S
Cu519  O536    1.955   .     S
Cu519  O532    1.962   .     S
Cu519  O533    1.969   .     S
Cu519  O529    1.975   .     S
Cu520  O534    1.969   .     S
Cu520  N527    2.019   .     S
Cu520  O531    1.962   .     S
Cu520  O535    1.955   .     S
Cu520  O530    1.975   .     S
H525   N899    1.029   .     S
N528   N899    1.292   .     S
N528   H898    1.029   .     S
C537   H538    1.085   .     S
C537   O539    1.220   .     D
C540   O542    1.221   .     D
C540   H541    1.085   .     S
C543   H544    1.084   .     S
O545   C667    1.221   .     S
C546   O548    1.221   .     D
C546   H671    1.086   .     S
S549   O550    1.503   .     D
S549   O551    1.504   .     D
S549   C625    1.789   .     S
S549   O676    1.681   .     S
O552   H553    0.990   .     S
S554   O557    1.681   .     S
S554   O556    1.503   .     D
O555   S678    1.503   .     S
O557   H558    0.990   .     S
C559   C563    1.424   .     S
C559   O591    1.285   .     A
C559   O593    1.288   .     A
C560   C564    1.424   .     S
C560   O594    1.288   .     A
C560   O592    1.285   .     A
C561   H585    1.085   .     S
C561   C578    1.394   .     A
C562   C577    1.395   .     A
C562   H586    1.085   .     S
C562   C518    1.394   1_655 S
C564   C687    1.355   .     S
C564   S740    1.791   .     S
C565   O595    1.296   .     A
C565   C570    1.454   .     S
C565   O597    1.292   .     A
C566   O596    1.295   .     A
C566   C569    1.453   .     S
C566   O598    1.292   .     A
C567   H583    1.085   .     S
C567   C569    1.390   .     A
C567   C577    1.384   .     A
C568   H584    1.082   .     S
C568   C570    1.390   .     A
C568   C578    1.384   .     A
C569   C571    1.415   .     A
C570   C572    1.411   .     A
C571   C599    1.486   .     S
C571   C573    1.423   .     A
C572   C602    1.484   .     S
C572   C574    1.422   .     A
C573   C579    1.428   .     A
C573   C575    1.427   .     A
C574   C576    1.426   .     A
C574   C580    1.425   .     A
C575   C577    1.407   .     A
C575   C514    1.407   1_655 S
C576   C578    1.406   .     A
C579   C605    1.487   .     S
C579   C499    1.397   1_655 S
C580   C608    1.484   .     S
Cu581  Cu582   2.687   .     S
Cu581  N590    2.019   .     S
Cu581  O598    1.955   .     S
Cu581  O594    1.962   .     S
Cu581  O595    1.969   .     S
Cu581  O591    1.975   .     S
Cu582  O596    1.969   .     S
Cu582  N589    2.019   .     S
Cu582  O593    1.962   .     S
Cu582  O597    1.955   .     S
Cu582  O592    1.975   .     S
H587   N961    1.029   .     S
N590   N961    1.292   .     S
N590   H960    1.029   .     S
C599   H600    1.085   .     S
C599   O601    1.220   .     D
C602   O604    1.221   .     D
C602   H603    1.085   .     S
C605   H606    1.084   .     S
O607   C729    1.221   .     S
C608   O610    1.221   .     D
C608   H733    1.086   .     S
S611   O612    1.503   .     D
S611   O613    1.504   .     D
S611   C687    1.789   .     S
S611   O738    1.681   .     S
O614   H615    0.990   .     S
S616   O619    1.681   .     S
S616   O618    1.503   .     D
O617   S740    1.503   .     S
O619   H620    0.990   .     S
C621   C625    1.424   .     S
C621   O653    1.285   .     A
C621   O655    1.288   .     A
C622   C626    1.424   .     S
C622   O656    1.288   .     A
C622   O654    1.285   .     A
C623   H647    1.085   .     S
C623   C640    1.394   .     A
C623   C703    1.397   1_455 S
C624   C639    1.395   .     A
C624   H648    1.085   .     S
C624   C704    1.394   .     S
C626   C377    1.355   1_565 S
C626   S430    1.791   1_565 S
C627   O657    1.296   .     A
C627   C632    1.454   .     S
C627   O659    1.292   .     A
C628   O658    1.295   .     A
C628   C631    1.453   .     S
C628   O660    1.292   .     A
C629   H645    1.085   .     S
C629   C631    1.390   .     A
C629   C639    1.384   .     A
C630   H646    1.082   .     S
C630   C632    1.390   .     A
C630   C640    1.384   .     A
C631   C633    1.415   .     A
C632   C634    1.411   .     A
C633   C661    1.486   .     S
C633   C635    1.423   .     A
C634   C664    1.484   .     S
C634   C636    1.422   .     A
C635   C641    1.428   .     A
C635   C637    1.427   .     A
C636   C638    1.426   .     A
C636   C642    1.425   .     A
C637   C639    1.407   .     A
C637   C700    1.407   .     S
C638   C640    1.406   .     A
C638   C699    1.407   1_455 S
C641   C667    1.487   .     S
C641   C685    1.397   .     S
C642   C670    1.484   .     S
C642   C686    1.394   1_455 S
Cu643  Cu644   2.687   .     S
Cu643  N652    2.019   .     S
Cu643  O660    1.955   .     S
Cu643  O656    1.962   .     S
Cu643  O657    1.969   .     S
Cu643  O653    1.975   .     S
Cu644  O658    1.969   .     S
Cu644  N651    2.019   .     S
Cu644  O655    1.962   .     S
Cu644  O659    1.955   .     S
Cu644  O654    1.975   .     S
H649   N1023   1.029   .     S
N652   N1023   1.292   .     S
N652   H1022   1.029   .     S
C661   H662    1.085   .     S
C661   O663    1.220   .     D
C664   O666    1.221   .     D
C664   H665    1.085   .     S
C667   H668    1.084   .     S
O669   C419    1.221   1_565 S
C670   O672    1.221   .     D
C670   H423    1.086   1_565 S
S673   O674    1.503   .     D
S673   O675    1.504   .     D
S673   C377    1.789   1_565 S
S673   O428    1.681   1_565 S
O676   H677    0.990   .     S
S678   O681    1.681   .     S
S678   O680    1.503   .     D
O679   S430    1.503   1_565 S
O681   H682    0.990   .     S
C683   C687    1.424   .     S
C683   O715    1.285   .     A
C683   O717    1.288   .     A
C684   C688    1.424   .     S
C684   O718    1.288   .     A
C684   O716    1.285   .     A
C685   H709    1.085   .     S
C685   C702    1.394   .     A
C686   C701    1.395   .     A
C686   H710    1.085   .     S
C686   C642    1.394   1_655 S
C688   C439    1.355   1_565 S
C688   S492    1.791   1_565 S
C689   O719    1.296   .     A
C689   C694    1.454   .     S
C689   O721    1.292   .     A
C690   O720    1.295   .     A
C690   C693    1.453   .     S
C690   O722    1.292   .     A
C691   H707    1.085   .     S
C691   C693    1.390   .     A
C691   C701    1.384   .     A
C692   H708    1.082   .     S
C692   C694    1.390   .     A
C692   C702    1.384   .     A
C693   C695    1.415   .     A
C694   C696    1.411   .     A
C695   C723    1.486   .     S
C695   C697    1.423   .     A
C696   C726    1.484   .     S
C696   C698    1.422   .     A
C697   C703    1.428   .     A
C697   C699    1.427   .     A
C698   C700    1.426   .     A
C698   C704    1.425   .     A
C699   C701    1.407   .     A
C699   C638    1.407   1_655 S
C700   C702    1.406   .     A
C703   C729    1.487   .     S
C703   C623    1.397   1_655 S
C704   C732    1.484   .     S
Cu705  Cu706   2.687   .     S
Cu705  N714    2.019   .     S
Cu705  O722    1.955   .     S
Cu705  O718    1.962   .     S
Cu705  O719    1.969   .     S
Cu705  O715    1.975   .     S
Cu706  O720    1.969   .     S
Cu706  N713    2.019   .     S
Cu706  O717    1.962   .     S
Cu706  O721    1.955   .     S
Cu706  O716    1.975   .     S
H711   N1085   1.029   .     S
N714   N1085   1.292   .     S
N714   H1084   1.029   .     S
C723   H724    1.085   .     S
C723   O725    1.220   .     D
C726   O728    1.221   .     D
C726   H727    1.085   .     S
C729   H730    1.084   .     S
O731   C481    1.221   1_565 S
C732   O734    1.221   .     D
C732   H485    1.086   1_565 S
S735   O736    1.503   .     D
S735   O737    1.504   .     D
S735   C439    1.789   1_565 S
S735   O490    1.681   1_565 S
O738   H739    0.990   .     S
S740   O743    1.681   .     S
S740   O742    1.503   .     D
O741   S492    1.503   1_565 S
O743   H744    0.990   .     S
C745   C749    1.424   .     S
C745   O777    1.285   .     A
C745   O779    1.288   .     A
C746   C750    1.424   .     S
C746   O780    1.288   .     A
C746   O778    1.285   .     A
C747   H771    1.085   .     S
C747   C764    1.394   .     A
C747   C827    1.397   1_455 S
C748   C763    1.395   .     A
C748   H772    1.085   .     S
C748   C828    1.394   .     S
C749   C998    1.355   1_545 S
C749   S1045   1.789   1_545 S
C750   C873    1.355   .     S
C750   S926    1.791   .     S
C751   O781    1.296   .     A
C751   C756    1.454   .     S
C751   O783    1.292   .     A
C752   O782    1.295   .     A
C752   C755    1.453   .     S
C752   O784    1.292   .     A
C753   H769    1.085   .     S
C753   C755    1.390   .     A
C753   C763    1.384   .     A
C754   H770    1.082   .     S
C754   C756    1.390   .     A
C754   C764    1.384   .     A
C755   C757    1.415   .     A
C756   C758    1.411   .     A
C757   C785    1.486   .     S
C757   C759    1.423   .     A
C758   C788    1.484   .     S
C758   C760    1.422   .     A
C759   C765    1.428   .     A
C759   C761    1.427   .     A
C760   C762    1.426   .     A
C760   C766    1.425   .     A
C761   C763    1.407   .     A
C761   C824    1.407   .     S
C762   C764    1.406   .     A
C762   C823    1.407   1_455 S
C765   C791    1.487   .     S
C765   C809    1.397   .     S
C766   C794    1.484   .     S
C766   C810    1.394   1_455 S
Cu767  Cu768   2.687   .     S
Cu767  N776    2.019   .     S
Cu767  O784    1.955   .     S
Cu767  O780    1.962   .     S
Cu767  O781    1.969   .     S
Cu767  O777    1.975   .     S
Cu768  O782    1.969   .     S
Cu768  N775    2.019   .     S
Cu768  O779    1.962   .     S
Cu768  O783    1.955   .     S
Cu768  O778    1.975   .     S
H773   N31     1.029   1_556 S
N776   N31     1.292   1_556 S
N776   H30     1.029   1_556 S
C785   H786    1.085   .     S
C785   O787    1.220   .     D
C788   O790    1.221   .     D
C788   H789    1.085   .     S
C791   H792    1.084   .     S
C791   O1041   1.221   1_545 S
O793   C915    1.221   .     S
C794   O796    1.221   .     D
C794   H919    1.086   .     S
H795   C1042   1.086   1_545 S
S797   O798    1.503   .     D
S797   O799    1.504   .     D
S797   C873    1.789   .     S
S797   O924    1.681   .     S
O800   H801    0.990   .     S
O800   S1045   1.681   1_545 S
S802   O805    1.681   .     S
S802   O804    1.503   .     D
S802   C998    1.791   1_545 S
S802   O1051   1.503   1_545 S
O803   S926    1.503   .     S
O805   H806    0.990   .     S
C807   C811    1.424   .     S
C807   O839    1.285   .     A
C807   O841    1.288   .     A
C808   C812    1.424   .     S
C808   O842    1.288   .     A
C808   O840    1.285   .     A
C809   H833    1.085   .     S
C809   C826    1.394   .     A
C810   C825    1.395   .     A
C810   H834    1.085   .     S
C810   C766    1.394   1_655 S
C811   C1060   1.355   1_545 S
C811   S1107   1.789   1_545 S
C812   C935    1.355   .     S
C812   S988    1.791   .     S
C813   O843    1.296   .     A
C813   C818    1.454   .     S
C813   O845    1.292   .     A
C814   O844    1.295   .     A
C814   C817    1.453   .     S
C814   O846    1.292   .     A
C815   H831    1.085   .     S
C815   C817    1.390   .     A
C815   C825    1.384   .     A
C816   H832    1.082   .     S
C816   C818    1.390   .     A
C816   C826    1.384   .     A
C817   C819    1.415   .     A
C818   C820    1.411   .     A
C819   C847    1.486   .     S
C819   C821    1.423   .     A
C820   C850    1.484   .     S
C820   C822    1.422   .     A
C821   C827    1.428   .     A
C821   C823    1.427   .     A
C822   C824    1.426   .     A
C822   C828    1.425   .     A
C823   C825    1.407   .     A
C823   C762    1.407   1_655 S
C824   C826    1.406   .     A
C827   C853    1.487   .     S
C827   C747    1.397   1_655 S
C828   C856    1.484   .     S
Cu829  Cu830   2.687   .     S
Cu829  N838    2.019   .     S
Cu829  O846    1.955   .     S
Cu829  O842    1.962   .     S
Cu829  O843    1.969   .     S
Cu829  O839    1.975   .     S
Cu830  O844    1.969   .     S
Cu830  N837    2.019   .     S
Cu830  O841    1.962   .     S
Cu830  O845    1.955   .     S
Cu830  O840    1.975   .     S
H835   N93     1.029   1_556 S
N838   N93     1.292   1_556 S
N838   H92     1.029   1_556 S
C847   H848    1.085   .     S
C847   O849    1.220   .     D
C850   O852    1.221   .     D
C850   H851    1.085   .     S
C853   H854    1.084   .     S
C853   O1103   1.221   1_545 S
O855   C977    1.221   .     S
C856   O858    1.221   .     D
C856   H981    1.086   .     S
H857   C1104   1.086   1_545 S
S859   O860    1.503   .     D
S859   O861    1.504   .     D
S859   C935    1.789   .     S
S859   O986    1.681   .     S
O862   H863    0.990   .     S
O862   S1107   1.681   1_545 S
S864   O867    1.681   .     S
S864   O866    1.503   .     D
S864   C1060   1.791   1_545 S
S864   O1113   1.503   1_545 S
O865   S988    1.503   .     S
O867   H868    0.990   .     S
C869   C873    1.424   .     S
C869   O901    1.285   .     A
C869   O903    1.288   .     A
C870   C874    1.424   .     S
C870   O904    1.288   .     A
C870   O902    1.285   .     A
C871   H895    1.085   .     S
C871   C888    1.394   .     A
C871   C951    1.397   1_455 S
C872   C887    1.395   .     A
C872   H896    1.085   .     S
C872   C952    1.394   .     S
C874   C997    1.355   .     S
C874   S1050   1.791   .     S
C875   O905    1.296   .     A
C875   C880    1.454   .     S
C875   O907    1.292   .     A
C876   O906    1.295   .     A
C876   C879    1.453   .     S
C876   O908    1.292   .     A
C877   H893    1.085   .     S
C877   C879    1.390   .     A
C877   C887    1.384   .     A
C878   H894    1.082   .     S
C878   C880    1.390   .     A
C878   C888    1.384   .     A
C879   C881    1.415   .     A
C880   C882    1.411   .     A
C881   C909    1.486   .     S
C881   C883    1.423   .     A
C882   C912    1.484   .     S
C882   C884    1.422   .     A
C883   C889    1.428   .     A
C883   C885    1.427   .     A
C884   C886    1.426   .     A
C884   C890    1.425   .     A
C885   C887    1.407   .     A
C885   C948    1.407   .     S
C886   C888    1.406   .     A
C886   C947    1.407   1_455 S
C889   C915    1.487   .     S
C889   C933    1.397   .     S
C890   C918    1.484   .     S
C890   C934    1.394   1_455 S
Cu891  Cu892   2.687   .     S
Cu891  N900    2.019   .     S
Cu891  O908    1.955   .     S
Cu891  O904    1.962   .     S
Cu891  O905    1.969   .     S
Cu891  O901    1.975   .     S
Cu892  O906    1.969   .     S
Cu892  N899    2.019   .     S
Cu892  O903    1.962   .     S
Cu892  O907    1.955   .     S
Cu892  O902    1.975   .     S
H897   N155    1.029   1_556 S
N900   N155    1.292   1_556 S
N900   H154    1.029   1_556 S
C909   H910    1.085   .     S
C909   O911    1.220   .     D
C912   O914    1.221   .     D
C912   H913    1.085   .     S
C915   H916    1.084   .     S
O917   C1039   1.221   .     S
C918   O920    1.221   .     D
C918   H1043   1.086   .     S
S921   O922    1.503   .     D
S921   O923    1.504   .     D
S921   C997    1.789   .     S
S921   O1048   1.681   .     S
O924   H925    0.990   .     S
S926   O929    1.681   .     S
S926   O928    1.503   .     D
O927   S1050   1.503   .     S
O929   H930    0.990   .     S
C931   C935    1.424   .     S
C931   O963    1.285   .     A
C931   O965    1.288   .     A
C932   C936    1.424   .     S
C932   O966    1.288   .     A
C932   O964    1.285   .     A
C933   H957    1.085   .     S
C933   C950    1.394   .     A
C934   C949    1.395   .     A
C934   H958    1.085   .     S
C934   C890    1.394   1_655 S
C936   C1059   1.355   .     S
C936   S1112   1.791   .     S
C937   O967    1.296   .     A
C937   C942    1.454   .     S
C937   O969    1.292   .     A
C938   O968    1.295   .     A
C938   C941    1.453   .     S
C938   O970    1.292   .     A
C939   H955    1.085   .     S
C939   C941    1.390   .     A
C939   C949    1.384   .     A
C940   H956    1.082   .     S
C940   C942    1.390   .     A
C940   C950    1.384   .     A
C941   C943    1.415   .     A
C942   C944    1.411   .     A
C943   C971    1.486   .     S
C943   C945    1.423   .     A
C944   C974    1.484   .     S
C944   C946    1.422   .     A
C945   C951    1.428   .     A
C945   C947    1.427   .     A
C946   C948    1.426   .     A
C946   C952    1.425   .     A
C947   C949    1.407   .     A
C947   C886    1.407   1_655 S
C948   C950    1.406   .     A
C951   C977    1.487   .     S
C951   C871    1.397   1_655 S
C952   C980    1.484   .     S
Cu953  Cu954   2.687   .     S
Cu953  N962    2.019   .     S
Cu953  O970    1.955   .     S
Cu953  O966    1.962   .     S
Cu953  O967    1.969   .     S
Cu953  O963    1.975   .     S
Cu954  O968    1.969   .     S
Cu954  N961    2.019   .     S
Cu954  O965    1.962   .     S
Cu954  O969    1.955   .     S
Cu954  O964    1.975   .     S
H959   N217    1.029   1_556 S
N962   N217    1.292   1_556 S
N962   H216    1.029   1_556 S
C971   H972    1.085   .     S
C971   O973    1.220   .     D
C974   O976    1.221   .     D
C974   H975    1.085   .     S
C977   H978    1.084   .     S
O979   C1101   1.221   .     S
C980   O982    1.221   .     D
C980   H1105   1.086   .     S
S983   O984    1.503   .     D
S983   O985    1.504   .     D
S983   C1059   1.789   .     S
S983   O1110   1.681   .     S
O986   H987    0.990   .     S
S988   O991    1.681   .     S
S988   O990    1.503   .     D
O989   S1112   1.503   .     S
O991   H992    0.990   .     S
C993   C997    1.424   .     S
C993   O1025   1.285   .     A
C993   O1027   1.288   .     A
C994   C998    1.424   .     S
C994   O1028   1.288   .     A
C994   O1026   1.285   .     A
C995   H1019   1.085   .     S
C995   C1012   1.394   .     A
C995   C1075   1.397   1_455 S
C996   C1011   1.395   .     A
C996   H1020   1.085   .     S
C996   C1076   1.394   .     S
C998   C749    1.355   1_565 S
C998   S802    1.791   1_565 S
C999   O1029   1.296   .     A
C999   C1004   1.454   .     S
C999   O1031   1.292   .     A
C1000  O1030   1.295   .     A
C1000  C1003   1.453   .     S
C1000  O1032   1.292   .     A
C1001  H1017   1.085   .     S
C1001  C1003   1.390   .     A
C1001  C1011   1.384   .     A
C1002  H1018   1.082   .     S
C1002  C1004   1.390   .     A
C1002  C1012   1.384   .     A
C1003  C1005   1.415   .     A
C1004  C1006   1.411   .     A
C1005  C1033   1.486   .     S
C1005  C1007   1.423   .     A
C1006  C1036   1.484   .     S
C1006  C1008   1.422   .     A
C1007  C1013   1.428   .     A
C1007  C1009   1.427   .     A
C1008  C1010   1.426   .     A
C1008  C1014   1.425   .     A
C1009  C1011   1.407   .     A
C1009  C1072   1.407   .     S
C1010  C1012   1.406   .     A
C1010  C1071   1.407   1_455 S
C1013  C1039   1.487   .     S
C1013  C1057   1.397   .     S
C1014  C1042   1.484   .     S
C1014  C1058   1.394   1_455 S
Cu1015 Cu1016  2.687   .     S
Cu1015 N1024   2.019   .     S
Cu1015 O1032   1.955   .     S
Cu1015 O1028   1.962   .     S
Cu1015 O1029   1.969   .     S
Cu1015 O1025   1.975   .     S
Cu1016 O1030   1.969   .     S
Cu1016 N1023   2.019   .     S
Cu1016 O1027   1.962   .     S
Cu1016 O1031   1.955   .     S
Cu1016 O1026   1.975   .     S
H1021  N279    1.029   1_556 S
N1024  N279    1.292   1_556 S
N1024  H278    1.029   1_556 S
C1033  H1034   1.085   .     S
C1033  O1035   1.220   .     D
C1036  O1038   1.221   .     D
C1036  H1037   1.085   .     S
C1039  H1040   1.084   .     S
O1041  C791    1.221   1_565 S
C1042  O1044   1.221   .     D
C1042  H795    1.086   1_565 S
S1045  O1046   1.503   .     D
S1045  O1047   1.504   .     D
S1045  C749    1.789   1_565 S
S1045  O800    1.681   1_565 S
O1048  H1049   0.990   .     S
S1050  O1053   1.681   .     S
S1050  O1052   1.503   .     D
O1051  S802    1.503   1_565 S
O1053  H1054   0.990   .     S
C1055  C1059   1.424   .     S
C1055  O1087   1.285   .     A
C1055  O1089   1.288   .     A
C1056  C1060   1.424   .     S
C1056  O1090   1.288   .     A
C1056  O1088   1.285   .     A
C1057  H1081   1.085   .     S
C1057  C1074   1.394   .     A
C1058  C1073   1.395   .     A
C1058  H1082   1.085   .     S
C1058  C1014   1.394   1_655 S
C1060  C811    1.355   1_565 S
C1060  S864    1.791   1_565 S
C1061  O1091   1.296   .     A
C1061  C1066   1.454   .     S
C1061  O1093   1.292   .     A
C1062  O1092   1.295   .     A
C1062  C1065   1.453   .     S
C1062  O1094   1.292   .     A
C1063  H1079   1.085   .     S
C1063  C1065   1.390   .     A
C1063  C1073   1.384   .     A
C1064  H1080   1.082   .     S
C1064  C1066   1.390   .     A
C1064  C1074   1.384   .     A
C1065  C1067   1.415   .     A
C1066  C1068   1.411   .     A
C1067  C1095   1.486   .     S
C1067  C1069   1.423   .     A
C1068  C1098   1.484   .     S
C1068  C1070   1.422   .     A
C1069  C1075   1.428   .     A
C1069  C1071   1.427   .     A
C1070  C1072   1.426   .     A
C1070  C1076   1.425   .     A
C1071  C1073   1.407   .     A
C1071  C1010   1.407   1_655 S
C1072  C1074   1.406   .     A
C1075  C1101   1.487   .     S
C1075  C995    1.397   1_655 S
C1076  C1104   1.484   .     S
Cu1077 Cu1078  2.687   .     S
Cu1077 N1086   2.019   .     S
Cu1077 O1094   1.955   .     S
Cu1077 O1090   1.962   .     S
Cu1077 O1091   1.969   .     S
Cu1077 O1087   1.975   .     S
Cu1078 O1092   1.969   .     S
Cu1078 N1085   2.019   .     S
Cu1078 O1089   1.962   .     S
Cu1078 O1093   1.955   .     S
Cu1078 O1088   1.975   .     S
H1083  N341    1.029   1_556 S
N1086  N341    1.292   1_556 S
N1086  H340    1.029   1_556 S
C1095  H1096   1.085   .     S
C1095  O1097   1.220   .     D
C1098  O1100   1.221   .     D
C1098  H1099   1.085   .     S
C1101  H1102   1.084   .     S
O1103  C853    1.221   1_565 S
C1104  O1106   1.221   .     D
C1104  H857    1.086   1_565 S
S1107  O1108   1.503   .     D
S1107  O1109   1.504   .     D
S1107  C811    1.789   1_565 S
S1107  O862    1.681   1_565 S
O1110  H1111   0.990   .     S
S1112  O1115   1.681   .     S
S1112  O1114   1.503   .     D
O1113  S864    1.503   1_565 S
O1115  H1116   0.990   .     S
