data_str_m2_o10_o16_pcu_sym.98
_audit_creation_date              2020-01-03
_audit_creation_method            'Materials Studio'
_symmetry_space_group_name_H-M    'P1'
_symmetry_Int_Tables_number       1
_symmetry_cell_setting            triclinic
loop_
_symmetry_equiv_pos_as_xyz
  x,y,z
_cell_length_a                    22.2628
_cell_length_b                    26.4119
_cell_length_c                    26.7869
_cell_angle_alpha                 94.1881
_cell_angle_beta                  77.4188
_cell_angle_gamma                 102.3626
loop_
_atom_site_label
_atom_site_type_symbol
_atom_site_fract_x
_atom_site_fract_y
_atom_site_fract_z
_atom_site_U_iso_or_equiv
_atom_site_adp_type
_atom_site_occupancy
C1     C     0.18085   0.26652   0.25228   0.00000  Uiso   1.00
C2     C     0.11245   0.17226   0.40394   0.00000  Uiso   1.00
C3     C     0.18401   0.32149   0.26098   0.00000  Uiso   1.00
C4     C     0.13320   0.16740   0.34736   0.00000  Uiso   1.00
C5     C     0.14821   0.01234   0.23974   0.00000  Uiso   1.00
C6     C     0.15249   0.06705   0.24744   0.00000  Uiso   1.00
C7     C     0.20054   0.17039   0.15295   0.00000  Uiso   1.00
C8     C     0.29110   0.23114   0.02974   0.00000  Uiso   1.00
C9     C     0.22111   0.18014   0.09818   0.00000  Uiso   1.00
C10    C     0.04858   0.15484   0.42690   0.00000  Uiso   1.00
C11    C     0.03251   0.14130   0.47818   0.00000  Uiso   1.00
C12    C     0.14088   0.17286   0.48745   0.00000  Uiso   1.00
C13    C     0.07820   0.14778   0.00734   0.00000  Uiso   1.00
C14    C     0.21961   0.01327   0.30049   0.00000  Uiso   1.00
C15    C     0.18710   0.02944   0.34803   0.00000  Uiso   1.00
C16    C     0.21835   0.04397   0.38839   0.00000  Uiso   1.00
C17    C     0.28195   0.04219   0.38156   0.00000  Uiso   1.00
C18    C     0.31556   0.02976   0.33349   0.00000  Uiso   1.00
C19    C     0.28463   0.01558   0.29291   0.00000  Uiso   1.00
C20    C     0.15636   0.19018   0.43626   0.00000  Uiso   1.00
C21    C     0.18750   0.18401   0.01785   0.00000  Uiso   1.00
C22    C     0.24557   0.21784   0.49948   0.00000  Uiso   1.00
C23    C     0.25659   0.24021   0.45219   0.00000  Uiso   1.00
C24    C     0.21302   0.22753   0.42080   0.00000  Uiso   1.00
C25    C     0.17751   0.16393   0.06680   0.00000  Uiso   1.00
C26    C     0.27883   0.21256   0.07900   0.00000  Uiso   1.00
Cu27   Cu    0.10710   0.16105   0.24436   0.00000  Uiso   1.00
Cu28   Cu    0.22623   0.17228   0.25565   0.00000  Uiso   1.00
H29    H     0.31298   0.22563   0.10287   0.00000  Uiso   1.00
H30    H     0.13599   0.30035   0.17580   0.00000  Uiso   1.00
H31    H     0.28910   0.14225   0.42221   0.00000  Uiso   1.00
H32    H     0.00356   0.18940   0.38593   0.00000  Uiso   1.00
H33    H     0.25776   0.24927   0.34874   0.00000  Uiso   1.00
H34    H     0.18212   0.26042   0.36605   0.00000  Uiso   1.00
H35    H     0.13705   0.02812   0.35458   0.00000  Uiso   1.00
H36    H     0.19276   0.05468   0.42545   0.00000  Uiso   1.00
H37    H     0.30526   0.05046   0.41356   0.00000  Uiso   1.00
H38    H     0.03169   0.02934   0.32820   0.00000  Uiso   1.00
H39    H     0.31064   0.00423   0.25630   0.00000  Uiso   1.00
H40    H     0.00397   0.20621   0.28894   0.00000  Uiso   1.00
H41    H     0.32943   0.12710   0.21103   0.00000  Uiso   1.00
H42    H     0.29919   0.26893   0.43966   0.00000  Uiso   1.00
H43    H     0.00217   0.25718   0.01581   0.00000  Uiso   1.00
H44    H     0.13535   0.13649   0.08226   0.00000  Uiso   1.00
H45    H     0.06162   0.13646   0.04658   0.00000  Uiso   1.00
H46    H     0.31742   0.12554   0.49586   0.00000  Uiso   1.00
H47    H     0.07017   0.29561   0.22427   0.00000  Uiso   1.00
N48    N     0.31574   0.18074   0.26416   0.00000  Uiso   1.00
N49    N     0.01759   0.15259   0.23584   0.00000  Uiso   1.00
N50    N     0.10983   0.32055   0.20453   0.00000  Uiso   1.00
N51    N     0.00021   0.15214   0.39842   0.00000  Uiso   1.00
N52    N     0.22346   0.26025   0.37823   0.00000  Uiso   1.00
O53    O     0.12797   0.23807   0.24633   0.00000  Uiso   1.00
O54    O     0.22858   0.24755   0.25587   0.00000  Uiso   1.00
O55    O     0.09181   0.15960   0.31840   0.00000  Uiso   1.00
O56    O     0.19242   0.16908   0.32793   0.00000  Uiso   1.00
O57    O     0.10476   0.08578   0.24414   0.00000  Uiso   1.00
O58    O     0.20536   0.09526   0.25367   0.00000  Uiso   1.00
O59    O     0.14092   0.16425   0.17207   0.00000  Uiso   1.00
O60    O     0.24152   0.17373   0.18161   0.00000  Uiso   1.00
C61    C     0.51418   0.26652   0.25228   0.00000  Uiso   1.00
C62    C     0.44578   0.17226   0.40394   0.00000  Uiso   1.00
C63    C     0.51734   0.32149   0.26098   0.00000  Uiso   1.00
C64    C     0.46653   0.16740   0.34736   0.00000  Uiso   1.00
C65    C     0.48155   0.01234   0.23974   0.00000  Uiso   1.00
C66    C     0.48582   0.06705   0.24744   0.00000  Uiso   1.00
C67    C     0.53388   0.17039   0.15295   0.00000  Uiso   1.00
C68    C     0.62444   0.23114   0.02974   0.00000  Uiso   1.00
C69    C     0.55444   0.18014   0.09818   0.00000  Uiso   1.00
C70    C     0.38192   0.15484   0.42690   0.00000  Uiso   1.00
C71    C     0.36584   0.14130   0.47818   0.00000  Uiso   1.00
C72    C     0.47421   0.17286   0.48745   0.00000  Uiso   1.00
C73    C     0.41153   0.14778   0.00734   0.00000  Uiso   1.00
C74    C     0.55294   0.01327   0.30049   0.00000  Uiso   1.00
C75    C     0.52043   0.02944   0.34803   0.00000  Uiso   1.00
C76    C     0.55169   0.04397   0.38839   0.00000  Uiso   1.00
C77    C     0.61529   0.04219   0.38156   0.00000  Uiso   1.00
C78    C     0.64890   0.02976   0.33349   0.00000  Uiso   1.00
C79    C     0.61797   0.01558   0.29291   0.00000  Uiso   1.00
C80    C     0.48969   0.19018   0.43626   0.00000  Uiso   1.00
C81    C     0.52083   0.18401   0.01785   0.00000  Uiso   1.00
C82    C     0.57890   0.21784   0.49948   0.00000  Uiso   1.00
C83    C     0.58992   0.24021   0.45219   0.00000  Uiso   1.00
C84    C     0.54635   0.22753   0.42080   0.00000  Uiso   1.00
C85    C     0.51084   0.16393   0.06680   0.00000  Uiso   1.00
C86    C     0.61216   0.21256   0.07900   0.00000  Uiso   1.00
Cu87   Cu    0.44043   0.16105   0.24436   0.00000  Uiso   1.00
Cu88   Cu    0.55957   0.17228   0.25565   0.00000  Uiso   1.00
H89    H     0.64632   0.22563   0.10287   0.00000  Uiso   1.00
H90    H     0.46933   0.30035   0.17580   0.00000  Uiso   1.00
H91    H     0.62244   0.14225   0.42221   0.00000  Uiso   1.00
H92    H     0.33689   0.18940   0.38593   0.00000  Uiso   1.00
H93    H     0.59109   0.24927   0.34874   0.00000  Uiso   1.00
H94    H     0.51545   0.26042   0.36605   0.00000  Uiso   1.00
H95    H     0.47038   0.02812   0.35458   0.00000  Uiso   1.00
H96    H     0.52610   0.05468   0.42545   0.00000  Uiso   1.00
H97    H     0.63860   0.05046   0.41356   0.00000  Uiso   1.00
H98    H     0.36503   0.02934   0.32820   0.00000  Uiso   1.00
H99    H     0.64398   0.00423   0.25630   0.00000  Uiso   1.00
H100   H     0.33730   0.20621   0.28894   0.00000  Uiso   1.00
H101   H     0.66277   0.12710   0.21103   0.00000  Uiso   1.00
H102   H     0.63252   0.26893   0.43966   0.00000  Uiso   1.00
H103   H     0.33551   0.25718   0.01581   0.00000  Uiso   1.00
H104   H     0.46868   0.13649   0.08226   0.00000  Uiso   1.00
H105   H     0.39496   0.13646   0.04658   0.00000  Uiso   1.00
H106   H     0.65076   0.12554   0.49586   0.00000  Uiso   1.00
H107   H     0.40350   0.29561   0.22427   0.00000  Uiso   1.00
N108   N     0.64908   0.18074   0.26416   0.00000  Uiso   1.00
N109   N     0.35092   0.15259   0.23584   0.00000  Uiso   1.00
N110   N     0.44316   0.32055   0.20453   0.00000  Uiso   1.00
N111   N     0.33354   0.15214   0.39842   0.00000  Uiso   1.00
N112   N     0.55679   0.26025   0.37823   0.00000  Uiso   1.00
O113   O     0.46131   0.23807   0.24633   0.00000  Uiso   1.00
O114   O     0.56191   0.24755   0.25587   0.00000  Uiso   1.00
O115   O     0.42515   0.15960   0.31840   0.00000  Uiso   1.00
O116   O     0.52575   0.16908   0.32793   0.00000  Uiso   1.00
O117   O     0.43809   0.08578   0.24414   0.00000  Uiso   1.00
O118   O     0.53869   0.09526   0.25367   0.00000  Uiso   1.00
O119   O     0.47425   0.16425   0.17207   0.00000  Uiso   1.00
O120   O     0.57485   0.17373   0.18161   0.00000  Uiso   1.00
C121   C     0.84752   0.26652   0.25228   0.00000  Uiso   1.00
C122   C     0.77912   0.17226   0.40394   0.00000  Uiso   1.00
C123   C     0.85067   0.32149   0.26098   0.00000  Uiso   1.00
C124   C     0.79986   0.16740   0.34736   0.00000  Uiso   1.00
C125   C     0.81488   0.01234   0.23974   0.00000  Uiso   1.00
C126   C     0.81915   0.06705   0.24744   0.00000  Uiso   1.00
C127   C     0.86721   0.17039   0.15295   0.00000  Uiso   1.00
C128   C     0.95777   0.23114   0.02974   0.00000  Uiso   1.00
C129   C     0.88778   0.18014   0.09818   0.00000  Uiso   1.00
C130   C     0.71525   0.15484   0.42690   0.00000  Uiso   1.00
C131   C     0.69918   0.14130   0.47818   0.00000  Uiso   1.00
C132   C     0.80754   0.17286   0.48745   0.00000  Uiso   1.00
C133   C     0.74487   0.14778   0.00734   0.00000  Uiso   1.00
C134   C     0.88628   0.01327   0.30049   0.00000  Uiso   1.00
C135   C     0.85376   0.02944   0.34803   0.00000  Uiso   1.00
C136   C     0.88502   0.04397   0.38839   0.00000  Uiso   1.00
C137   C     0.94862   0.04219   0.38156   0.00000  Uiso   1.00
C138   C     0.98223   0.02976   0.33349   0.00000  Uiso   1.00
C139   C     0.95130   0.01558   0.29291   0.00000  Uiso   1.00
C140   C     0.82302   0.19018   0.43626   0.00000  Uiso   1.00
C141   C     0.85416   0.18401   0.01785   0.00000  Uiso   1.00
C142   C     0.91224   0.21784   0.49948   0.00000  Uiso   1.00
C143   C     0.92325   0.24021   0.45219   0.00000  Uiso   1.00
C144   C     0.87968   0.22753   0.42080   0.00000  Uiso   1.00
C145   C     0.84418   0.16393   0.06680   0.00000  Uiso   1.00
C146   C     0.94550   0.21256   0.07900   0.00000  Uiso   1.00
Cu147  Cu    0.77377   0.16105   0.24436   0.00000  Uiso   1.00
Cu148  Cu    0.89290   0.17228   0.25565   0.00000  Uiso   1.00
H149   H     0.97965   0.22563   0.10287   0.00000  Uiso   1.00
H150   H     0.80266   0.30035   0.17580   0.00000  Uiso   1.00
H151   H     0.95577   0.14225   0.42221   0.00000  Uiso   1.00
H152   H     0.67023   0.18940   0.38593   0.00000  Uiso   1.00
H153   H     0.92442   0.24927   0.34874   0.00000  Uiso   1.00
H154   H     0.84878   0.26042   0.36605   0.00000  Uiso   1.00
H155   H     0.80371   0.02812   0.35458   0.00000  Uiso   1.00
H156   H     0.85943   0.05468   0.42545   0.00000  Uiso   1.00
H157   H     0.97193   0.05046   0.41356   0.00000  Uiso   1.00
H158   H     0.69836   0.02934   0.32820   0.00000  Uiso   1.00
H159   H     0.97731   0.00423   0.25630   0.00000  Uiso   1.00
H160   H     0.67063   0.20621   0.28894   0.00000  Uiso   1.00
H161   H     0.99610   0.12710   0.21103   0.00000  Uiso   1.00
H162   H     0.96585   0.26893   0.43966   0.00000  Uiso   1.00
H163   H     0.66884   0.25718   0.01581   0.00000  Uiso   1.00
H164   H     0.80201   0.13649   0.08226   0.00000  Uiso   1.00
H165   H     0.72829   0.13646   0.04658   0.00000  Uiso   1.00
H166   H     0.98409   0.12554   0.49586   0.00000  Uiso   1.00
H167   H     0.73684   0.29561   0.22427   0.00000  Uiso   1.00
N168   N     0.98241   0.18074   0.26416   0.00000  Uiso   1.00
N169   N     0.68426   0.15259   0.23584   0.00000  Uiso   1.00
N170   N     0.77649   0.32055   0.20453   0.00000  Uiso   1.00
N171   N     0.66688   0.15214   0.39842   0.00000  Uiso   1.00
N172   N     0.89012   0.26025   0.37823   0.00000  Uiso   1.00
O173   O     0.79464   0.23807   0.24633   0.00000  Uiso   1.00
O174   O     0.89524   0.24755   0.25587   0.00000  Uiso   1.00
O175   O     0.75848   0.15960   0.31840   0.00000  Uiso   1.00
O176   O     0.85908   0.16908   0.32793   0.00000  Uiso   1.00
O177   O     0.77142   0.08578   0.24414   0.00000  Uiso   1.00
O178   O     0.87203   0.09526   0.25367   0.00000  Uiso   1.00
O179   O     0.80758   0.16425   0.17207   0.00000  Uiso   1.00
O180   O     0.90819   0.17373   0.18161   0.00000  Uiso   1.00
C181   C     0.18085   0.59985   0.25228   0.00000  Uiso   1.00
C182   C     0.11245   0.50560   0.40394   0.00000  Uiso   1.00
C183   C     0.18401   0.65483   0.26098   0.00000  Uiso   1.00
C184   C     0.13320   0.50074   0.34736   0.00000  Uiso   1.00
C185   C     0.14821   0.34568   0.23974   0.00000  Uiso   1.00
C186   C     0.15249   0.40038   0.24744   0.00000  Uiso   1.00
C187   C     0.20054   0.50373   0.15295   0.00000  Uiso   1.00
C188   C     0.29110   0.56448   0.02974   0.00000  Uiso   1.00
C189   C     0.22111   0.51348   0.09818   0.00000  Uiso   1.00
C190   C     0.04858   0.48817   0.42690   0.00000  Uiso   1.00
C191   C     0.03251   0.47464   0.47818   0.00000  Uiso   1.00
C192   C     0.14088   0.50619   0.48745   0.00000  Uiso   1.00
C193   C     0.07820   0.48111   0.00734   0.00000  Uiso   1.00
C194   C     0.21961   0.34660   0.30049   0.00000  Uiso   1.00
C195   C     0.18710   0.36277   0.34803   0.00000  Uiso   1.00
C196   C     0.21835   0.37731   0.38839   0.00000  Uiso   1.00
C197   C     0.28195   0.37552   0.38156   0.00000  Uiso   1.00
C198   C     0.31556   0.36309   0.33349   0.00000  Uiso   1.00
C199   C     0.28463   0.34891   0.29291   0.00000  Uiso   1.00
C200   C     0.15636   0.52351   0.43626   0.00000  Uiso   1.00
C201   C     0.18750   0.51734   0.01785   0.00000  Uiso   1.00
C202   C     0.24557   0.55117   0.49948   0.00000  Uiso   1.00
C203   C     0.25659   0.57355   0.45219   0.00000  Uiso   1.00
C204   C     0.21302   0.56087   0.42080   0.00000  Uiso   1.00
C205   C     0.17751   0.49726   0.06680   0.00000  Uiso   1.00
C206   C     0.27883   0.54589   0.07900   0.00000  Uiso   1.00
Cu207  Cu    0.10710   0.49439   0.24436   0.00000  Uiso   1.00
Cu208  Cu    0.22623   0.50561   0.25565   0.00000  Uiso   1.00
H209   H     0.31298   0.55896   0.10287   0.00000  Uiso   1.00
H210   H     0.13599   0.63368   0.17580   0.00000  Uiso   1.00
H211   H     0.28910   0.47559   0.42221   0.00000  Uiso   1.00
H212   H     0.00356   0.52273   0.38593   0.00000  Uiso   1.00
H213   H     0.25776   0.58261   0.34874   0.00000  Uiso   1.00
H214   H     0.18212   0.59376   0.36605   0.00000  Uiso   1.00
H215   H     0.13705   0.36145   0.35458   0.00000  Uiso   1.00
H216   H     0.19276   0.38801   0.42545   0.00000  Uiso   1.00
H217   H     0.30526   0.38379   0.41356   0.00000  Uiso   1.00
H218   H     0.03169   0.36267   0.32820   0.00000  Uiso   1.00
H219   H     0.31064   0.33756   0.25630   0.00000  Uiso   1.00
H220   H     0.00397   0.53955   0.28894   0.00000  Uiso   1.00
H221   H     0.32943   0.46044   0.21103   0.00000  Uiso   1.00
H222   H     0.29919   0.60226   0.43966   0.00000  Uiso   1.00
H223   H     0.00217   0.59051   0.01581   0.00000  Uiso   1.00
H224   H     0.13535   0.46982   0.08226   0.00000  Uiso   1.00
H225   H     0.06162   0.46979   0.04658   0.00000  Uiso   1.00
H226   H     0.31742   0.45888   0.49586   0.00000  Uiso   1.00
H227   H     0.07017   0.62894   0.22427   0.00000  Uiso   1.00
N228   N     0.31574   0.51407   0.26416   0.00000  Uiso   1.00
N229   N     0.01759   0.48593   0.23584   0.00000  Uiso   1.00
N230   N     0.10983   0.65388   0.20453   0.00000  Uiso   1.00
N231   N     0.00021   0.48547   0.39842   0.00000  Uiso   1.00
N232   N     0.22346   0.59358   0.37823   0.00000  Uiso   1.00
O233   O     0.12797   0.57141   0.24633   0.00000  Uiso   1.00
O234   O     0.22858   0.58089   0.25587   0.00000  Uiso   1.00
O235   O     0.09181   0.49293   0.31840   0.00000  Uiso   1.00
O236   O     0.19242   0.50241   0.32793   0.00000  Uiso   1.00
O237   O     0.10476   0.41911   0.24414   0.00000  Uiso   1.00
O238   O     0.20536   0.42859   0.25367   0.00000  Uiso   1.00
O239   O     0.14092   0.49759   0.17207   0.00000  Uiso   1.00
O240   O     0.24152   0.50707   0.18161   0.00000  Uiso   1.00
C241   C     0.51418   0.59985   0.25228   0.00000  Uiso   1.00
C242   C     0.44578   0.50560   0.40394   0.00000  Uiso   1.00
C243   C     0.51734   0.65483   0.26098   0.00000  Uiso   1.00
C244   C     0.46653   0.50074   0.34736   0.00000  Uiso   1.00
C245   C     0.48155   0.34568   0.23974   0.00000  Uiso   1.00
C246   C     0.48582   0.40038   0.24744   0.00000  Uiso   1.00
C247   C     0.53388   0.50373   0.15295   0.00000  Uiso   1.00
C248   C     0.62444   0.56448   0.02974   0.00000  Uiso   1.00
C249   C     0.55444   0.51348   0.09818   0.00000  Uiso   1.00
C250   C     0.38192   0.48817   0.42690   0.00000  Uiso   1.00
C251   C     0.36584   0.47464   0.47818   0.00000  Uiso   1.00
C252   C     0.47421   0.50619   0.48745   0.00000  Uiso   1.00
C253   C     0.41153   0.48111   0.00734   0.00000  Uiso   1.00
C254   C     0.55294   0.34660   0.30049   0.00000  Uiso   1.00
C255   C     0.52043   0.36277   0.34803   0.00000  Uiso   1.00
C256   C     0.55169   0.37731   0.38839   0.00000  Uiso   1.00
C257   C     0.61529   0.37552   0.38156   0.00000  Uiso   1.00
C258   C     0.64890   0.36309   0.33349   0.00000  Uiso   1.00
C259   C     0.61797   0.34891   0.29291   0.00000  Uiso   1.00
C260   C     0.48969   0.52351   0.43626   0.00000  Uiso   1.00
C261   C     0.52083   0.51734   0.01785   0.00000  Uiso   1.00
C262   C     0.57890   0.55117   0.49948   0.00000  Uiso   1.00
C263   C     0.58992   0.57355   0.45219   0.00000  Uiso   1.00
C264   C     0.54635   0.56087   0.42080   0.00000  Uiso   1.00
C265   C     0.51084   0.49726   0.06680   0.00000  Uiso   1.00
C266   C     0.61216   0.54589   0.07900   0.00000  Uiso   1.00
Cu267  Cu    0.44043   0.49439   0.24436   0.00000  Uiso   1.00
Cu268  Cu    0.55957   0.50561   0.25565   0.00000  Uiso   1.00
H269   H     0.64632   0.55896   0.10287   0.00000  Uiso   1.00
H270   H     0.46933   0.63368   0.17580   0.00000  Uiso   1.00
H271   H     0.62244   0.47559   0.42221   0.00000  Uiso   1.00
H272   H     0.33689   0.52273   0.38593   0.00000  Uiso   1.00
H273   H     0.59109   0.58261   0.34874   0.00000  Uiso   1.00
H274   H     0.51545   0.59376   0.36605   0.00000  Uiso   1.00
H275   H     0.47038   0.36145   0.35458   0.00000  Uiso   1.00
H276   H     0.52610   0.38801   0.42545   0.00000  Uiso   1.00
H277   H     0.63860   0.38379   0.41356   0.00000  Uiso   1.00
H278   H     0.36503   0.36267   0.32820   0.00000  Uiso   1.00
H279   H     0.64398   0.33756   0.25630   0.00000  Uiso   1.00
H280   H     0.33730   0.53955   0.28894   0.00000  Uiso   1.00
H281   H     0.66277   0.46044   0.21103   0.00000  Uiso   1.00
H282   H     0.63252   0.60226   0.43966   0.00000  Uiso   1.00
H283   H     0.33551   0.59051   0.01581   0.00000  Uiso   1.00
H284   H     0.46868   0.46982   0.08226   0.00000  Uiso   1.00
H285   H     0.39496   0.46979   0.04658   0.00000  Uiso   1.00
H286   H     0.65076   0.45888   0.49586   0.00000  Uiso   1.00
H287   H     0.40350   0.62894   0.22427   0.00000  Uiso   1.00
N288   N     0.64908   0.51407   0.26416   0.00000  Uiso   1.00
N289   N     0.35092   0.48593   0.23584   0.00000  Uiso   1.00
N290   N     0.44316   0.65388   0.20453   0.00000  Uiso   1.00
N291   N     0.33354   0.48547   0.39842   0.00000  Uiso   1.00
N292   N     0.55679   0.59358   0.37823   0.00000  Uiso   1.00
O293   O     0.46131   0.57141   0.24633   0.00000  Uiso   1.00
O294   O     0.56191   0.58089   0.25587   0.00000  Uiso   1.00
O295   O     0.42515   0.49293   0.31840   0.00000  Uiso   1.00
O296   O     0.52575   0.50241   0.32793   0.00000  Uiso   1.00
O297   O     0.43809   0.41911   0.24414   0.00000  Uiso   1.00
O298   O     0.53869   0.42859   0.25367   0.00000  Uiso   1.00
O299   O     0.47425   0.49759   0.17207   0.00000  Uiso   1.00
O300   O     0.57485   0.50707   0.18161   0.00000  Uiso   1.00
C301   C     0.84752   0.59985   0.25228   0.00000  Uiso   1.00
C302   C     0.77912   0.50560   0.40394   0.00000  Uiso   1.00
C303   C     0.85067   0.65483   0.26098   0.00000  Uiso   1.00
C304   C     0.79986   0.50074   0.34736   0.00000  Uiso   1.00
C305   C     0.81488   0.34568   0.23974   0.00000  Uiso   1.00
C306   C     0.81915   0.40038   0.24744   0.00000  Uiso   1.00
C307   C     0.86721   0.50373   0.15295   0.00000  Uiso   1.00
C308   C     0.95777   0.56448   0.02974   0.00000  Uiso   1.00
C309   C     0.88778   0.51348   0.09818   0.00000  Uiso   1.00
C310   C     0.71525   0.48817   0.42690   0.00000  Uiso   1.00
C311   C     0.69918   0.47464   0.47818   0.00000  Uiso   1.00
C312   C     0.80754   0.50619   0.48745   0.00000  Uiso   1.00
C313   C     0.74487   0.48111   0.00734   0.00000  Uiso   1.00
C314   C     0.88628   0.34660   0.30049   0.00000  Uiso   1.00
C315   C     0.85376   0.36277   0.34803   0.00000  Uiso   1.00
C316   C     0.88502   0.37731   0.38839   0.00000  Uiso   1.00
C317   C     0.94862   0.37552   0.38156   0.00000  Uiso   1.00
C318   C     0.98223   0.36309   0.33349   0.00000  Uiso   1.00
C319   C     0.95130   0.34891   0.29291   0.00000  Uiso   1.00
C320   C     0.82302   0.52351   0.43626   0.00000  Uiso   1.00
C321   C     0.85416   0.51734   0.01785   0.00000  Uiso   1.00
C322   C     0.91224   0.55117   0.49948   0.00000  Uiso   1.00
C323   C     0.92325   0.57355   0.45219   0.00000  Uiso   1.00
C324   C     0.87968   0.56087   0.42080   0.00000  Uiso   1.00
C325   C     0.84418   0.49726   0.06680   0.00000  Uiso   1.00
C326   C     0.94550   0.54589   0.07900   0.00000  Uiso   1.00
Cu327  Cu    0.77377   0.49439   0.24436   0.00000  Uiso   1.00
Cu328  Cu    0.89290   0.50561   0.25565   0.00000  Uiso   1.00
H329   H     0.97965   0.55896   0.10287   0.00000  Uiso   1.00
H330   H     0.80266   0.63368   0.17580   0.00000  Uiso   1.00
H331   H     0.95577   0.47559   0.42221   0.00000  Uiso   1.00
H332   H     0.67023   0.52273   0.38593   0.00000  Uiso   1.00
H333   H     0.92442   0.58261   0.34874   0.00000  Uiso   1.00
H334   H     0.84878   0.59376   0.36605   0.00000  Uiso   1.00
H335   H     0.80371   0.36145   0.35458   0.00000  Uiso   1.00
H336   H     0.85943   0.38801   0.42545   0.00000  Uiso   1.00
H337   H     0.97193   0.38379   0.41356   0.00000  Uiso   1.00
H338   H     0.69836   0.36267   0.32820   0.00000  Uiso   1.00
H339   H     0.97731   0.33756   0.25630   0.00000  Uiso   1.00
H340   H     0.67063   0.53955   0.28894   0.00000  Uiso   1.00
H341   H     0.99610   0.46044   0.21103   0.00000  Uiso   1.00
H342   H     0.96585   0.60226   0.43966   0.00000  Uiso   1.00
H343   H     0.66884   0.59051   0.01581   0.00000  Uiso   1.00
H344   H     0.80201   0.46982   0.08226   0.00000  Uiso   1.00
H345   H     0.72829   0.46979   0.04658   0.00000  Uiso   1.00
H346   H     0.98409   0.45888   0.49586   0.00000  Uiso   1.00
H347   H     0.73684   0.62894   0.22427   0.00000  Uiso   1.00
N348   N     0.98241   0.51407   0.26416   0.00000  Uiso   1.00
N349   N     0.68426   0.48593   0.23584   0.00000  Uiso   1.00
N350   N     0.77649   0.65388   0.20453   0.00000  Uiso   1.00
N351   N     0.66688   0.48547   0.39842   0.00000  Uiso   1.00
N352   N     0.89012   0.59358   0.37823   0.00000  Uiso   1.00
O353   O     0.79464   0.57141   0.24633   0.00000  Uiso   1.00
O354   O     0.89524   0.58089   0.25587   0.00000  Uiso   1.00
O355   O     0.75848   0.49293   0.31840   0.00000  Uiso   1.00
O356   O     0.85908   0.50241   0.32793   0.00000  Uiso   1.00
O357   O     0.77142   0.41911   0.24414   0.00000  Uiso   1.00
O358   O     0.87203   0.42859   0.25367   0.00000  Uiso   1.00
O359   O     0.80758   0.49759   0.17207   0.00000  Uiso   1.00
O360   O     0.90819   0.50707   0.18161   0.00000  Uiso   1.00
C361   C     0.18085   0.93319   0.25228   0.00000  Uiso   1.00
C362   C     0.11245   0.83893   0.40394   0.00000  Uiso   1.00
C363   C     0.18401   0.98816   0.26098   0.00000  Uiso   1.00
C364   C     0.13320   0.83407   0.34736   0.00000  Uiso   1.00
C365   C     0.14821   0.67901   0.23974   0.00000  Uiso   1.00
C366   C     0.15249   0.73372   0.24744   0.00000  Uiso   1.00
C367   C     0.20054   0.83706   0.15295   0.00000  Uiso   1.00
C368   C     0.29110   0.89781   0.02974   0.00000  Uiso   1.00
C369   C     0.22111   0.84681   0.09818   0.00000  Uiso   1.00
C370   C     0.04858   0.82151   0.42690   0.00000  Uiso   1.00
C371   C     0.03251   0.80797   0.47818   0.00000  Uiso   1.00
C372   C     0.14088   0.83953   0.48745   0.00000  Uiso   1.00
C373   C     0.07820   0.81444   0.00734   0.00000  Uiso   1.00
C374   C     0.21961   0.67993   0.30049   0.00000  Uiso   1.00
C375   C     0.18710   0.69610   0.34803   0.00000  Uiso   1.00
C376   C     0.21835   0.71064   0.38839   0.00000  Uiso   1.00
C377   C     0.28195   0.70886   0.38156   0.00000  Uiso   1.00
C378   C     0.31556   0.69642   0.33349   0.00000  Uiso   1.00
C379   C     0.28463   0.68225   0.29291   0.00000  Uiso   1.00
C380   C     0.15636   0.85684   0.43626   0.00000  Uiso   1.00
C381   C     0.18750   0.85068   0.01785   0.00000  Uiso   1.00
C382   C     0.24557   0.88450   0.49948   0.00000  Uiso   1.00
C383   C     0.25659   0.90688   0.45219   0.00000  Uiso   1.00
C384   C     0.21302   0.89420   0.42080   0.00000  Uiso   1.00
C385   C     0.17751   0.83059   0.06680   0.00000  Uiso   1.00
C386   C     0.27883   0.87922   0.07900   0.00000  Uiso   1.00
Cu387  Cu    0.10710   0.82772   0.24436   0.00000  Uiso   1.00
Cu388  Cu    0.22623   0.83895   0.25565   0.00000  Uiso   1.00
H389   H     0.31298   0.89229   0.10287   0.00000  Uiso   1.00
H390   H     0.13599   0.96701   0.17580   0.00000  Uiso   1.00
H391   H     0.28910   0.80892   0.42221   0.00000  Uiso   1.00
H392   H     0.00356   0.85606   0.38593   0.00000  Uiso   1.00
H393   H     0.25776   0.91594   0.34874   0.00000  Uiso   1.00
H394   H     0.18212   0.92709   0.36605   0.00000  Uiso   1.00
H395   H     0.13705   0.69478   0.35458   0.00000  Uiso   1.00
H396   H     0.19276   0.72134   0.42545   0.00000  Uiso   1.00
H397   H     0.30526   0.71712   0.41356   0.00000  Uiso   1.00
H398   H     0.03169   0.69600   0.32820   0.00000  Uiso   1.00
H399   H     0.31064   0.67089   0.25630   0.00000  Uiso   1.00
H400   H     0.00397   0.87288   0.28894   0.00000  Uiso   1.00
H401   H     0.32943   0.79377   0.21103   0.00000  Uiso   1.00
H402   H     0.29919   0.93560   0.43966   0.00000  Uiso   1.00
H403   H     0.00217   0.92385   0.01581   0.00000  Uiso   1.00
H404   H     0.13535   0.80315   0.08226   0.00000  Uiso   1.00
H405   H     0.06162   0.80312   0.04658   0.00000  Uiso   1.00
H406   H     0.31742   0.79221   0.49586   0.00000  Uiso   1.00
H407   H     0.07017   0.96227   0.22427   0.00000  Uiso   1.00
N408   N     0.31574   0.84741   0.26416   0.00000  Uiso   1.00
N409   N     0.01759   0.81926   0.23584   0.00000  Uiso   1.00
N410   N     0.10983   0.98721   0.20453   0.00000  Uiso   1.00
N411   N     0.00021   0.81881   0.39842   0.00000  Uiso   1.00
N412   N     0.22346   0.92691   0.37823   0.00000  Uiso   1.00
O413   O     0.12797   0.90474   0.24633   0.00000  Uiso   1.00
O414   O     0.22858   0.91422   0.25587   0.00000  Uiso   1.00
O415   O     0.09181   0.82627   0.31840   0.00000  Uiso   1.00
O416   O     0.19242   0.83575   0.32793   0.00000  Uiso   1.00
O417   O     0.10476   0.75245   0.24414   0.00000  Uiso   1.00
O418   O     0.20536   0.76193   0.25367   0.00000  Uiso   1.00
O419   O     0.14092   0.83092   0.17207   0.00000  Uiso   1.00
O420   O     0.24152   0.84040   0.18161   0.00000  Uiso   1.00
C421   C     0.51418   0.93319   0.25228   0.00000  Uiso   1.00
C422   C     0.44578   0.83893   0.40394   0.00000  Uiso   1.00
C423   C     0.51734   0.98816   0.26098   0.00000  Uiso   1.00
C424   C     0.46653   0.83407   0.34736   0.00000  Uiso   1.00
C425   C     0.48155   0.67901   0.23974   0.00000  Uiso   1.00
C426   C     0.48582   0.73372   0.24744   0.00000  Uiso   1.00
C427   C     0.53388   0.83706   0.15295   0.00000  Uiso   1.00
C428   C     0.62444   0.89781   0.02974   0.00000  Uiso   1.00
C429   C     0.55444   0.84681   0.09818   0.00000  Uiso   1.00
C430   C     0.38192   0.82151   0.42690   0.00000  Uiso   1.00
C431   C     0.36584   0.80797   0.47818   0.00000  Uiso   1.00
C432   C     0.47421   0.83953   0.48745   0.00000  Uiso   1.00
C433   C     0.41153   0.81444   0.00734   0.00000  Uiso   1.00
C434   C     0.55294   0.67993   0.30049   0.00000  Uiso   1.00
C435   C     0.52043   0.69610   0.34803   0.00000  Uiso   1.00
C436   C     0.55169   0.71064   0.38839   0.00000  Uiso   1.00
C437   C     0.61529   0.70886   0.38156   0.00000  Uiso   1.00
C438   C     0.64890   0.69642   0.33349   0.00000  Uiso   1.00
C439   C     0.61797   0.68225   0.29291   0.00000  Uiso   1.00
C440   C     0.48969   0.85684   0.43626   0.00000  Uiso   1.00
C441   C     0.52083   0.85068   0.01785   0.00000  Uiso   1.00
C442   C     0.57890   0.88450   0.49948   0.00000  Uiso   1.00
C443   C     0.58992   0.90688   0.45219   0.00000  Uiso   1.00
C444   C     0.54635   0.89420   0.42080   0.00000  Uiso   1.00
C445   C     0.51084   0.83059   0.06680   0.00000  Uiso   1.00
C446   C     0.61216   0.87922   0.07900   0.00000  Uiso   1.00
Cu447  Cu    0.44043   0.82772   0.24436   0.00000  Uiso   1.00
Cu448  Cu    0.55957   0.83895   0.25565   0.00000  Uiso   1.00
H449   H     0.64632   0.89229   0.10287   0.00000  Uiso   1.00
H450   H     0.46933   0.96701   0.17580   0.00000  Uiso   1.00
H451   H     0.62244   0.80892   0.42221   0.00000  Uiso   1.00
H452   H     0.33689   0.85606   0.38593   0.00000  Uiso   1.00
H453   H     0.59109   0.91594   0.34874   0.00000  Uiso   1.00
H454   H     0.51545   0.92709   0.36605   0.00000  Uiso   1.00
H455   H     0.47038   0.69478   0.35458   0.00000  Uiso   1.00
H456   H     0.52610   0.72134   0.42545   0.00000  Uiso   1.00
H457   H     0.63860   0.71712   0.41356   0.00000  Uiso   1.00
H458   H     0.36503   0.69600   0.32820   0.00000  Uiso   1.00
H459   H     0.64398   0.67089   0.25630   0.00000  Uiso   1.00
H460   H     0.33730   0.87288   0.28894   0.00000  Uiso   1.00
H461   H     0.66277   0.79377   0.21103   0.00000  Uiso   1.00
H462   H     0.63252   0.93560   0.43966   0.00000  Uiso   1.00
H463   H     0.33551   0.92385   0.01581   0.00000  Uiso   1.00
H464   H     0.46868   0.80315   0.08226   0.00000  Uiso   1.00
H465   H     0.39496   0.80312   0.04658   0.00000  Uiso   1.00
H466   H     0.65076   0.79221   0.49586   0.00000  Uiso   1.00
H467   H     0.40350   0.96227   0.22427   0.00000  Uiso   1.00
N468   N     0.64908   0.84741   0.26416   0.00000  Uiso   1.00
N469   N     0.35092   0.81926   0.23584   0.00000  Uiso   1.00
N470   N     0.44316   0.98721   0.20453   0.00000  Uiso   1.00
N471   N     0.33354   0.81881   0.39842   0.00000  Uiso   1.00
N472   N     0.55679   0.92691   0.37823   0.00000  Uiso   1.00
O473   O     0.46131   0.90474   0.24633   0.00000  Uiso   1.00
O474   O     0.56191   0.91422   0.25587   0.00000  Uiso   1.00
O475   O     0.42515   0.82627   0.31840   0.00000  Uiso   1.00
O476   O     0.52575   0.83575   0.32793   0.00000  Uiso   1.00
O477   O     0.43809   0.75245   0.24414   0.00000  Uiso   1.00
O478   O     0.53869   0.76193   0.25367   0.00000  Uiso   1.00
O479   O     0.47425   0.83092   0.17207   0.00000  Uiso   1.00
O480   O     0.57485   0.84040   0.18161   0.00000  Uiso   1.00
C481   C     0.84752   0.93319   0.25228   0.00000  Uiso   1.00
C482   C     0.77912   0.83893   0.40394   0.00000  Uiso   1.00
C483   C     0.85067   0.98816   0.26098   0.00000  Uiso   1.00
C484   C     0.79986   0.83407   0.34736   0.00000  Uiso   1.00
C485   C     0.81488   0.67901   0.23974   0.00000  Uiso   1.00
C486   C     0.81915   0.73372   0.24744   0.00000  Uiso   1.00
C487   C     0.86721   0.83706   0.15295   0.00000  Uiso   1.00
C488   C     0.95777   0.89781   0.02974   0.00000  Uiso   1.00
C489   C     0.88778   0.84681   0.09818   0.00000  Uiso   1.00
C490   C     0.71525   0.82151   0.42690   0.00000  Uiso   1.00
C491   C     0.69918   0.80797   0.47818   0.00000  Uiso   1.00
C492   C     0.80754   0.83953   0.48745   0.00000  Uiso   1.00
C493   C     0.74487   0.81444   0.00734   0.00000  Uiso   1.00
C494   C     0.88628   0.67993   0.30049   0.00000  Uiso   1.00
C495   C     0.85376   0.69610   0.34803   0.00000  Uiso   1.00
C496   C     0.88502   0.71064   0.38839   0.00000  Uiso   1.00
C497   C     0.94862   0.70886   0.38156   0.00000  Uiso   1.00
C498   C     0.98223   0.69642   0.33349   0.00000  Uiso   1.00
C499   C     0.95130   0.68225   0.29291   0.00000  Uiso   1.00
C500   C     0.82302   0.85684   0.43626   0.00000  Uiso   1.00
C501   C     0.85416   0.85068   0.01785   0.00000  Uiso   1.00
C502   C     0.91224   0.88450   0.49948   0.00000  Uiso   1.00
C503   C     0.92325   0.90688   0.45219   0.00000  Uiso   1.00
C504   C     0.87968   0.89420   0.42080   0.00000  Uiso   1.00
C505   C     0.84418   0.83059   0.06680   0.00000  Uiso   1.00
C506   C     0.94550   0.87922   0.07900   0.00000  Uiso   1.00
Cu507  Cu    0.77377   0.82772   0.24436   0.00000  Uiso   1.00
Cu508  Cu    0.89290   0.83895   0.25565   0.00000  Uiso   1.00
H509   H     0.97965   0.89229   0.10287   0.00000  Uiso   1.00
H510   H     0.80266   0.96701   0.17580   0.00000  Uiso   1.00
H511   H     0.95577   0.80892   0.42221   0.00000  Uiso   1.00
H512   H     0.67023   0.85606   0.38593   0.00000  Uiso   1.00
H513   H     0.92442   0.91594   0.34874   0.00000  Uiso   1.00
H514   H     0.84878   0.92709   0.36605   0.00000  Uiso   1.00
H515   H     0.80371   0.69478   0.35458   0.00000  Uiso   1.00
H516   H     0.85943   0.72134   0.42545   0.00000  Uiso   1.00
H517   H     0.97193   0.71712   0.41356   0.00000  Uiso   1.00
H518   H     0.69836   0.69600   0.32820   0.00000  Uiso   1.00
H519   H     0.97731   0.67089   0.25630   0.00000  Uiso   1.00
H520   H     0.67063   0.87288   0.28894   0.00000  Uiso   1.00
H521   H     0.99610   0.79377   0.21103   0.00000  Uiso   1.00
H522   H     0.96585   0.93560   0.43966   0.00000  Uiso   1.00
H523   H     0.66884   0.92385   0.01581   0.00000  Uiso   1.00
H524   H     0.80201   0.80315   0.08226   0.00000  Uiso   1.00
H525   H     0.72829   0.80312   0.04658   0.00000  Uiso   1.00
H526   H     0.98409   0.79221   0.49586   0.00000  Uiso   1.00
H527   H     0.73684   0.96227   0.22427   0.00000  Uiso   1.00
N528   N     0.98241   0.84741   0.26416   0.00000  Uiso   1.00
N529   N     0.68426   0.81926   0.23584   0.00000  Uiso   1.00
N530   N     0.77649   0.98721   0.20453   0.00000  Uiso   1.00
N531   N     0.66688   0.81881   0.39842   0.00000  Uiso   1.00
N532   N     0.89012   0.92691   0.37823   0.00000  Uiso   1.00
O533   O     0.79464   0.90474   0.24633   0.00000  Uiso   1.00
O534   O     0.89524   0.91422   0.25587   0.00000  Uiso   1.00
O535   O     0.75848   0.82627   0.31840   0.00000  Uiso   1.00
O536   O     0.85908   0.83575   0.32793   0.00000  Uiso   1.00
O537   O     0.77142   0.75245   0.24414   0.00000  Uiso   1.00
O538   O     0.87203   0.76193   0.25367   0.00000  Uiso   1.00
O539   O     0.80758   0.83092   0.17207   0.00000  Uiso   1.00
O540   O     0.90819   0.84040   0.18161   0.00000  Uiso   1.00
C541   C     0.18085   0.26652   0.75228   0.00000  Uiso   1.00
C542   C     0.11245   0.17226   0.90394   0.00000  Uiso   1.00
C543   C     0.18401   0.32149   0.76098   0.00000  Uiso   1.00
C544   C     0.13320   0.16740   0.84736   0.00000  Uiso   1.00
C545   C     0.14821   0.01234   0.73974   0.00000  Uiso   1.00
C546   C     0.15249   0.06705   0.74744   0.00000  Uiso   1.00
C547   C     0.20054   0.17039   0.65295   0.00000  Uiso   1.00
C548   C     0.29110   0.23114   0.52974   0.00000  Uiso   1.00
C549   C     0.22111   0.18014   0.59818   0.00000  Uiso   1.00
C550   C     0.04858   0.15484   0.92690   0.00000  Uiso   1.00
C551   C     0.03251   0.14130   0.97818   0.00000  Uiso   1.00
C552   C     0.14088   0.17286   0.98745   0.00000  Uiso   1.00
C553   C     0.07820   0.14778   0.50734   0.00000  Uiso   1.00
C554   C     0.21961   0.01327   0.80049   0.00000  Uiso   1.00
C555   C     0.18710   0.02944   0.84803   0.00000  Uiso   1.00
C556   C     0.21835   0.04397   0.88839   0.00000  Uiso   1.00
C557   C     0.28195   0.04219   0.88156   0.00000  Uiso   1.00
C558   C     0.31556   0.02976   0.83349   0.00000  Uiso   1.00
C559   C     0.28463   0.01558   0.79291   0.00000  Uiso   1.00
C560   C     0.15636   0.19018   0.93626   0.00000  Uiso   1.00
C561   C     0.18750   0.18401   0.51785   0.00000  Uiso   1.00
C562   C     0.24557   0.21784   0.99948   0.00000  Uiso   1.00
C563   C     0.25659   0.24021   0.95219   0.00000  Uiso   1.00
C564   C     0.21302   0.22753   0.92080   0.00000  Uiso   1.00
C565   C     0.17751   0.16393   0.56680   0.00000  Uiso   1.00
C566   C     0.27883   0.21256   0.57900   0.00000  Uiso   1.00
Cu567  Cu    0.10710   0.16105   0.74436   0.00000  Uiso   1.00
Cu568  Cu    0.22623   0.17228   0.75565   0.00000  Uiso   1.00
H569   H     0.31298   0.22563   0.60287   0.00000  Uiso   1.00
H570   H     0.13599   0.30035   0.67580   0.00000  Uiso   1.00
H571   H     0.28910   0.14225   0.92221   0.00000  Uiso   1.00
H572   H     0.00356   0.18940   0.88593   0.00000  Uiso   1.00
H573   H     0.25776   0.24927   0.84874   0.00000  Uiso   1.00
H574   H     0.18212   0.26042   0.86605   0.00000  Uiso   1.00
H575   H     0.13705   0.02812   0.85458   0.00000  Uiso   1.00
H576   H     0.19276   0.05468   0.92545   0.00000  Uiso   1.00
H577   H     0.30526   0.05046   0.91356   0.00000  Uiso   1.00
H578   H     0.03169   0.02934   0.82820   0.00000  Uiso   1.00
H579   H     0.31064   0.00423   0.75630   0.00000  Uiso   1.00
H580   H     0.00397   0.20621   0.78894   0.00000  Uiso   1.00
H581   H     0.32943   0.12710   0.71103   0.00000  Uiso   1.00
H582   H     0.29919   0.26893   0.93966   0.00000  Uiso   1.00
H583   H     0.00217   0.25718   0.51581   0.00000  Uiso   1.00
H584   H     0.13535   0.13649   0.58226   0.00000  Uiso   1.00
H585   H     0.06162   0.13646   0.54658   0.00000  Uiso   1.00
H586   H     0.31742   0.12554   0.99586   0.00000  Uiso   1.00
H587   H     0.07017   0.29561   0.72427   0.00000  Uiso   1.00
N588   N     0.31574   0.18074   0.76416   0.00000  Uiso   1.00
N589   N     0.01759   0.15259   0.73584   0.00000  Uiso   1.00
N590   N     0.10983   0.32055   0.70453   0.00000  Uiso   1.00
N591   N     0.00021   0.15214   0.89842   0.00000  Uiso   1.00
N592   N     0.22346   0.26025   0.87823   0.00000  Uiso   1.00
O593   O     0.12797   0.23807   0.74633   0.00000  Uiso   1.00
O594   O     0.22858   0.24755   0.75587   0.00000  Uiso   1.00
O595   O     0.09181   0.15960   0.81840   0.00000  Uiso   1.00
O596   O     0.19242   0.16908   0.82793   0.00000  Uiso   1.00
O597   O     0.10476   0.08578   0.74414   0.00000  Uiso   1.00
O598   O     0.20536   0.09526   0.75367   0.00000  Uiso   1.00
O599   O     0.14092   0.16425   0.67207   0.00000  Uiso   1.00
O600   O     0.24152   0.17373   0.68161   0.00000  Uiso   1.00
C601   C     0.51418   0.26652   0.75228   0.00000  Uiso   1.00
C602   C     0.44578   0.17226   0.90394   0.00000  Uiso   1.00
C603   C     0.51734   0.32149   0.76098   0.00000  Uiso   1.00
C604   C     0.46653   0.16740   0.84736   0.00000  Uiso   1.00
C605   C     0.48155   0.01234   0.73974   0.00000  Uiso   1.00
C606   C     0.48582   0.06705   0.74744   0.00000  Uiso   1.00
C607   C     0.53388   0.17039   0.65295   0.00000  Uiso   1.00
C608   C     0.62444   0.23114   0.52974   0.00000  Uiso   1.00
C609   C     0.55444   0.18014   0.59818   0.00000  Uiso   1.00
C610   C     0.38192   0.15484   0.92690   0.00000  Uiso   1.00
C611   C     0.36584   0.14130   0.97818   0.00000  Uiso   1.00
C612   C     0.47421   0.17286   0.98745   0.00000  Uiso   1.00
C613   C     0.41153   0.14778   0.50734   0.00000  Uiso   1.00
C614   C     0.55294   0.01327   0.80049   0.00000  Uiso   1.00
C615   C     0.52043   0.02944   0.84803   0.00000  Uiso   1.00
C616   C     0.55169   0.04397   0.88839   0.00000  Uiso   1.00
C617   C     0.61529   0.04219   0.88156   0.00000  Uiso   1.00
C618   C     0.64890   0.02976   0.83349   0.00000  Uiso   1.00
C619   C     0.61797   0.01558   0.79291   0.00000  Uiso   1.00
C620   C     0.48969   0.19018   0.93626   0.00000  Uiso   1.00
C621   C     0.52083   0.18401   0.51785   0.00000  Uiso   1.00
C622   C     0.57890   0.21784   0.99948   0.00000  Uiso   1.00
C623   C     0.58992   0.24021   0.95219   0.00000  Uiso   1.00
C624   C     0.54635   0.22753   0.92080   0.00000  Uiso   1.00
C625   C     0.51084   0.16393   0.56680   0.00000  Uiso   1.00
C626   C     0.61216   0.21256   0.57900   0.00000  Uiso   1.00
Cu627  Cu    0.44043   0.16105   0.74436   0.00000  Uiso   1.00
Cu628  Cu    0.55957   0.17228   0.75565   0.00000  Uiso   1.00
H629   H     0.64632   0.22563   0.60287   0.00000  Uiso   1.00
H630   H     0.46933   0.30035   0.67580   0.00000  Uiso   1.00
H631   H     0.62244   0.14225   0.92221   0.00000  Uiso   1.00
H632   H     0.33689   0.18940   0.88593   0.00000  Uiso   1.00
H633   H     0.59109   0.24927   0.84874   0.00000  Uiso   1.00
H634   H     0.51545   0.26042   0.86605   0.00000  Uiso   1.00
H635   H     0.47038   0.02812   0.85458   0.00000  Uiso   1.00
H636   H     0.52610   0.05468   0.92545   0.00000  Uiso   1.00
H637   H     0.63860   0.05046   0.91356   0.00000  Uiso   1.00
H638   H     0.36503   0.02934   0.82820   0.00000  Uiso   1.00
H639   H     0.64398   0.00423   0.75630   0.00000  Uiso   1.00
H640   H     0.33730   0.20621   0.78894   0.00000  Uiso   1.00
H641   H     0.66277   0.12710   0.71103   0.00000  Uiso   1.00
H642   H     0.63252   0.26893   0.93966   0.00000  Uiso   1.00
H643   H     0.33551   0.25718   0.51581   0.00000  Uiso   1.00
H644   H     0.46868   0.13649   0.58226   0.00000  Uiso   1.00
H645   H     0.39496   0.13646   0.54658   0.00000  Uiso   1.00
H646   H     0.65076   0.12554   0.99586   0.00000  Uiso   1.00
H647   H     0.40350   0.29561   0.72427   0.00000  Uiso   1.00
N648   N     0.64908   0.18074   0.76416   0.00000  Uiso   1.00
N649   N     0.35092   0.15259   0.73584   0.00000  Uiso   1.00
N650   N     0.44316   0.32055   0.70453   0.00000  Uiso   1.00
N651   N     0.33354   0.15214   0.89842   0.00000  Uiso   1.00
N652   N     0.55679   0.26025   0.87823   0.00000  Uiso   1.00
O653   O     0.46131   0.23807   0.74633   0.00000  Uiso   1.00
O654   O     0.56191   0.24755   0.75587   0.00000  Uiso   1.00
O655   O     0.42515   0.15960   0.81840   0.00000  Uiso   1.00
O656   O     0.52575   0.16908   0.82793   0.00000  Uiso   1.00
O657   O     0.43809   0.08578   0.74414   0.00000  Uiso   1.00
O658   O     0.53869   0.09526   0.75367   0.00000  Uiso   1.00
O659   O     0.47425   0.16425   0.67207   0.00000  Uiso   1.00
O660   O     0.57485   0.17373   0.68161   0.00000  Uiso   1.00
C661   C     0.84752   0.26652   0.75228   0.00000  Uiso   1.00
C662   C     0.77912   0.17226   0.90394   0.00000  Uiso   1.00
C663   C     0.85067   0.32149   0.76098   0.00000  Uiso   1.00
C664   C     0.79986   0.16740   0.84736   0.00000  Uiso   1.00
C665   C     0.81488   0.01234   0.73974   0.00000  Uiso   1.00
C666   C     0.81915   0.06705   0.74744   0.00000  Uiso   1.00
C667   C     0.86721   0.17039   0.65295   0.00000  Uiso   1.00
C668   C     0.95777   0.23114   0.52974   0.00000  Uiso   1.00
C669   C     0.88778   0.18014   0.59818   0.00000  Uiso   1.00
C670   C     0.71525   0.15484   0.92690   0.00000  Uiso   1.00
C671   C     0.69918   0.14130   0.97818   0.00000  Uiso   1.00
C672   C     0.80754   0.17286   0.98745   0.00000  Uiso   1.00
C673   C     0.74487   0.14778   0.50734   0.00000  Uiso   1.00
C674   C     0.88628   0.01327   0.80049   0.00000  Uiso   1.00
C675   C     0.85376   0.02944   0.84803   0.00000  Uiso   1.00
C676   C     0.88502   0.04397   0.88839   0.00000  Uiso   1.00
C677   C     0.94862   0.04219   0.88156   0.00000  Uiso   1.00
C678   C     0.98223   0.02976   0.83349   0.00000  Uiso   1.00
C679   C     0.95130   0.01558   0.79291   0.00000  Uiso   1.00
C680   C     0.82302   0.19018   0.93626   0.00000  Uiso   1.00
C681   C     0.85416   0.18401   0.51785   0.00000  Uiso   1.00
C682   C     0.91224   0.21784   0.99948   0.00000  Uiso   1.00
C683   C     0.92325   0.24021   0.95219   0.00000  Uiso   1.00
C684   C     0.87968   0.22753   0.92080   0.00000  Uiso   1.00
C685   C     0.84418   0.16393   0.56680   0.00000  Uiso   1.00
C686   C     0.94550   0.21256   0.57900   0.00000  Uiso   1.00
Cu687  Cu    0.77377   0.16105   0.74436   0.00000  Uiso   1.00
Cu688  Cu    0.89290   0.17228   0.75565   0.00000  Uiso   1.00
H689   H     0.97965   0.22563   0.60287   0.00000  Uiso   1.00
H690   H     0.80266   0.30035   0.67580   0.00000  Uiso   1.00
H691   H     0.95577   0.14225   0.92221   0.00000  Uiso   1.00
H692   H     0.67023   0.18940   0.88593   0.00000  Uiso   1.00
H693   H     0.92442   0.24927   0.84874   0.00000  Uiso   1.00
H694   H     0.84878   0.26042   0.86605   0.00000  Uiso   1.00
H695   H     0.80371   0.02812   0.85458   0.00000  Uiso   1.00
H696   H     0.85943   0.05468   0.92545   0.00000  Uiso   1.00
H697   H     0.97193   0.05046   0.91356   0.00000  Uiso   1.00
H698   H     0.69836   0.02934   0.82820   0.00000  Uiso   1.00
H699   H     0.97731   0.00423   0.75630   0.00000  Uiso   1.00
H700   H     0.67063   0.20621   0.78894   0.00000  Uiso   1.00
H701   H     0.99610   0.12710   0.71103   0.00000  Uiso   1.00
H702   H     0.96585   0.26893   0.93966   0.00000  Uiso   1.00
H703   H     0.66884   0.25718   0.51581   0.00000  Uiso   1.00
H704   H     0.80201   0.13649   0.58226   0.00000  Uiso   1.00
H705   H     0.72829   0.13646   0.54658   0.00000  Uiso   1.00
H706   H     0.98409   0.12554   0.99586   0.00000  Uiso   1.00
H707   H     0.73684   0.29561   0.72427   0.00000  Uiso   1.00
N708   N     0.98241   0.18074   0.76416   0.00000  Uiso   1.00
N709   N     0.68426   0.15259   0.73584   0.00000  Uiso   1.00
N710   N     0.77649   0.32055   0.70453   0.00000  Uiso   1.00
N711   N     0.66688   0.15214   0.89842   0.00000  Uiso   1.00
N712   N     0.89012   0.26025   0.87823   0.00000  Uiso   1.00
O713   O     0.79464   0.23807   0.74633   0.00000  Uiso   1.00
O714   O     0.89524   0.24755   0.75587   0.00000  Uiso   1.00
O715   O     0.75848   0.15960   0.81840   0.00000  Uiso   1.00
O716   O     0.85908   0.16908   0.82793   0.00000  Uiso   1.00
O717   O     0.77142   0.08578   0.74414   0.00000  Uiso   1.00
O718   O     0.87203   0.09526   0.75367   0.00000  Uiso   1.00
O719   O     0.80758   0.16425   0.67207   0.00000  Uiso   1.00
O720   O     0.90819   0.17373   0.68161   0.00000  Uiso   1.00
C721   C     0.18085   0.59985   0.75228   0.00000  Uiso   1.00
C722   C     0.11245   0.50560   0.90394   0.00000  Uiso   1.00
C723   C     0.18401   0.65483   0.76098   0.00000  Uiso   1.00
C724   C     0.13320   0.50074   0.84736   0.00000  Uiso   1.00
C725   C     0.14821   0.34568   0.73974   0.00000  Uiso   1.00
C726   C     0.15249   0.40038   0.74744   0.00000  Uiso   1.00
C727   C     0.20054   0.50373   0.65295   0.00000  Uiso   1.00
C728   C     0.29110   0.56448   0.52974   0.00000  Uiso   1.00
C729   C     0.22111   0.51348   0.59818   0.00000  Uiso   1.00
C730   C     0.04858   0.48817   0.92690   0.00000  Uiso   1.00
C731   C     0.03251   0.47464   0.97818   0.00000  Uiso   1.00
C732   C     0.14088   0.50619   0.98745   0.00000  Uiso   1.00
C733   C     0.07820   0.48111   0.50734   0.00000  Uiso   1.00
C734   C     0.21961   0.34660   0.80049   0.00000  Uiso   1.00
C735   C     0.18710   0.36277   0.84803   0.00000  Uiso   1.00
C736   C     0.21835   0.37731   0.88839   0.00000  Uiso   1.00
C737   C     0.28195   0.37552   0.88156   0.00000  Uiso   1.00
C738   C     0.31556   0.36309   0.83349   0.00000  Uiso   1.00
C739   C     0.28463   0.34891   0.79291   0.00000  Uiso   1.00
C740   C     0.15636   0.52351   0.93626   0.00000  Uiso   1.00
C741   C     0.18750   0.51734   0.51785   0.00000  Uiso   1.00
C742   C     0.24557   0.55117   0.99948   0.00000  Uiso   1.00
C743   C     0.25659   0.57355   0.95219   0.00000  Uiso   1.00
C744   C     0.21302   0.56087   0.92080   0.00000  Uiso   1.00
C745   C     0.17751   0.49726   0.56680   0.00000  Uiso   1.00
C746   C     0.27883   0.54589   0.57900   0.00000  Uiso   1.00
Cu747  Cu    0.10710   0.49439   0.74436   0.00000  Uiso   1.00
Cu748  Cu    0.22623   0.50561   0.75565   0.00000  Uiso   1.00
H749   H     0.31298   0.55896   0.60287   0.00000  Uiso   1.00
H750   H     0.13599   0.63368   0.67580   0.00000  Uiso   1.00
H751   H     0.28910   0.47559   0.92221   0.00000  Uiso   1.00
H752   H     0.00356   0.52273   0.88593   0.00000  Uiso   1.00
H753   H     0.25776   0.58261   0.84874   0.00000  Uiso   1.00
H754   H     0.18212   0.59376   0.86605   0.00000  Uiso   1.00
H755   H     0.13705   0.36145   0.85458   0.00000  Uiso   1.00
H756   H     0.19276   0.38801   0.92545   0.00000  Uiso   1.00
H757   H     0.30526   0.38379   0.91356   0.00000  Uiso   1.00
H758   H     0.03169   0.36267   0.82820   0.00000  Uiso   1.00
H759   H     0.31064   0.33756   0.75630   0.00000  Uiso   1.00
H760   H     0.00397   0.53955   0.78894   0.00000  Uiso   1.00
H761   H     0.32943   0.46044   0.71103   0.00000  Uiso   1.00
H762   H     0.29919   0.60226   0.93966   0.00000  Uiso   1.00
H763   H     0.00217   0.59051   0.51581   0.00000  Uiso   1.00
H764   H     0.13535   0.46982   0.58226   0.00000  Uiso   1.00
H765   H     0.06162   0.46979   0.54658   0.00000  Uiso   1.00
H766   H     0.31742   0.45888   0.99586   0.00000  Uiso   1.00
H767   H     0.07017   0.62894   0.72427   0.00000  Uiso   1.00
N768   N     0.31574   0.51407   0.76416   0.00000  Uiso   1.00
N769   N     0.01759   0.48593   0.73584   0.00000  Uiso   1.00
N770   N     0.10983   0.65388   0.70453   0.00000  Uiso   1.00
N771   N     0.00021   0.48547   0.89842   0.00000  Uiso   1.00
N772   N     0.22346   0.59358   0.87823   0.00000  Uiso   1.00
O773   O     0.12797   0.57141   0.74633   0.00000  Uiso   1.00
O774   O     0.22858   0.58089   0.75587   0.00000  Uiso   1.00
O775   O     0.09181   0.49293   0.81840   0.00000  Uiso   1.00
O776   O     0.19242   0.50241   0.82793   0.00000  Uiso   1.00
O777   O     0.10476   0.41911   0.74414   0.00000  Uiso   1.00
O778   O     0.20536   0.42859   0.75367   0.00000  Uiso   1.00
O779   O     0.14092   0.49759   0.67207   0.00000  Uiso   1.00
O780   O     0.24152   0.50707   0.68161   0.00000  Uiso   1.00
C781   C     0.51418   0.59985   0.75228   0.00000  Uiso   1.00
C782   C     0.44578   0.50560   0.90394   0.00000  Uiso   1.00
C783   C     0.51734   0.65483   0.76098   0.00000  Uiso   1.00
C784   C     0.46653   0.50074   0.84736   0.00000  Uiso   1.00
C785   C     0.48155   0.34568   0.73974   0.00000  Uiso   1.00
C786   C     0.48582   0.40038   0.74744   0.00000  Uiso   1.00
C787   C     0.53388   0.50373   0.65295   0.00000  Uiso   1.00
C788   C     0.62444   0.56448   0.52974   0.00000  Uiso   1.00
C789   C     0.55444   0.51348   0.59818   0.00000  Uiso   1.00
C790   C     0.38192   0.48817   0.92690   0.00000  Uiso   1.00
C791   C     0.36584   0.47464   0.97818   0.00000  Uiso   1.00
C792   C     0.47421   0.50619   0.98745   0.00000  Uiso   1.00
C793   C     0.41153   0.48111   0.50734   0.00000  Uiso   1.00
C794   C     0.55294   0.34660   0.80049   0.00000  Uiso   1.00
C795   C     0.52043   0.36277   0.84803   0.00000  Uiso   1.00
C796   C     0.55169   0.37731   0.88839   0.00000  Uiso   1.00
C797   C     0.61529   0.37552   0.88156   0.00000  Uiso   1.00
C798   C     0.64890   0.36309   0.83349   0.00000  Uiso   1.00
C799   C     0.61797   0.34891   0.79291   0.00000  Uiso   1.00
C800   C     0.48969   0.52351   0.93626   0.00000  Uiso   1.00
C801   C     0.52083   0.51734   0.51785   0.00000  Uiso   1.00
C802   C     0.57890   0.55117   0.99948   0.00000  Uiso   1.00
C803   C     0.58992   0.57355   0.95219   0.00000  Uiso   1.00
C804   C     0.54635   0.56087   0.92080   0.00000  Uiso   1.00
C805   C     0.51084   0.49726   0.56680   0.00000  Uiso   1.00
C806   C     0.61216   0.54589   0.57900   0.00000  Uiso   1.00
Cu807  Cu    0.44043   0.49439   0.74436   0.00000  Uiso   1.00
Cu808  Cu    0.55957   0.50561   0.75565   0.00000  Uiso   1.00
H809   H     0.64632   0.55896   0.60287   0.00000  Uiso   1.00
H810   H     0.46933   0.63368   0.67580   0.00000  Uiso   1.00
H811   H     0.62244   0.47559   0.92221   0.00000  Uiso   1.00
H812   H     0.33689   0.52273   0.88593   0.00000  Uiso   1.00
H813   H     0.59109   0.58261   0.84874   0.00000  Uiso   1.00
H814   H     0.51545   0.59376   0.86605   0.00000  Uiso   1.00
H815   H     0.47038   0.36145   0.85458   0.00000  Uiso   1.00
H816   H     0.52610   0.38801   0.92545   0.00000  Uiso   1.00
H817   H     0.63860   0.38379   0.91356   0.00000  Uiso   1.00
H818   H     0.36503   0.36267   0.82820   0.00000  Uiso   1.00
H819   H     0.64398   0.33756   0.75630   0.00000  Uiso   1.00
H820   H     0.33730   0.53955   0.78894   0.00000  Uiso   1.00
H821   H     0.66277   0.46044   0.71103   0.00000  Uiso   1.00
H822   H     0.63252   0.60226   0.93966   0.00000  Uiso   1.00
H823   H     0.33551   0.59051   0.51581   0.00000  Uiso   1.00
H824   H     0.46868   0.46982   0.58226   0.00000  Uiso   1.00
H825   H     0.39496   0.46979   0.54658   0.00000  Uiso   1.00
H826   H     0.65076   0.45888   0.99586   0.00000  Uiso   1.00
H827   H     0.40350   0.62894   0.72427   0.00000  Uiso   1.00
N828   N     0.64908   0.51407   0.76416   0.00000  Uiso   1.00
N829   N     0.35092   0.48593   0.73584   0.00000  Uiso   1.00
N830   N     0.44316   0.65388   0.70453   0.00000  Uiso   1.00
N831   N     0.33354   0.48547   0.89842   0.00000  Uiso   1.00
N832   N     0.55679   0.59358   0.87823   0.00000  Uiso   1.00
O833   O     0.46131   0.57141   0.74633   0.00000  Uiso   1.00
O834   O     0.56191   0.58089   0.75587   0.00000  Uiso   1.00
O835   O     0.42515   0.49293   0.81840   0.00000  Uiso   1.00
O836   O     0.52575   0.50241   0.82793   0.00000  Uiso   1.00
O837   O     0.43809   0.41911   0.74414   0.00000  Uiso   1.00
O838   O     0.53869   0.42859   0.75367   0.00000  Uiso   1.00
O839   O     0.47425   0.49759   0.67207   0.00000  Uiso   1.00
O840   O     0.57485   0.50707   0.68161   0.00000  Uiso   1.00
C841   C     0.84752   0.59985   0.75228   0.00000  Uiso   1.00
C842   C     0.77912   0.50560   0.90394   0.00000  Uiso   1.00
C843   C     0.85067   0.65483   0.76098   0.00000  Uiso   1.00
C844   C     0.79986   0.50074   0.84736   0.00000  Uiso   1.00
C845   C     0.81488   0.34568   0.73974   0.00000  Uiso   1.00
C846   C     0.81915   0.40038   0.74744   0.00000  Uiso   1.00
C847   C     0.86721   0.50373   0.65295   0.00000  Uiso   1.00
C848   C     0.95777   0.56448   0.52974   0.00000  Uiso   1.00
C849   C     0.88778   0.51348   0.59818   0.00000  Uiso   1.00
C850   C     0.71525   0.48817   0.92690   0.00000  Uiso   1.00
C851   C     0.69918   0.47464   0.97818   0.00000  Uiso   1.00
C852   C     0.80754   0.50619   0.98745   0.00000  Uiso   1.00
C853   C     0.74487   0.48111   0.50734   0.00000  Uiso   1.00
C854   C     0.88628   0.34660   0.80049   0.00000  Uiso   1.00
C855   C     0.85376   0.36277   0.84803   0.00000  Uiso   1.00
C856   C     0.88502   0.37731   0.88839   0.00000  Uiso   1.00
C857   C     0.94862   0.37552   0.88156   0.00000  Uiso   1.00
C858   C     0.98223   0.36309   0.83349   0.00000  Uiso   1.00
C859   C     0.95130   0.34891   0.79291   0.00000  Uiso   1.00
C860   C     0.82302   0.52351   0.93626   0.00000  Uiso   1.00
C861   C     0.85416   0.51734   0.51785   0.00000  Uiso   1.00
C862   C     0.91224   0.55117   0.99948   0.00000  Uiso   1.00
C863   C     0.92325   0.57355   0.95219   0.00000  Uiso   1.00
C864   C     0.87968   0.56087   0.92080   0.00000  Uiso   1.00
C865   C     0.84418   0.49726   0.56680   0.00000  Uiso   1.00
C866   C     0.94550   0.54589   0.57900   0.00000  Uiso   1.00
Cu867  Cu    0.77377   0.49439   0.74436   0.00000  Uiso   1.00
Cu868  Cu    0.89290   0.50561   0.75565   0.00000  Uiso   1.00
H869   H     0.97965   0.55896   0.60287   0.00000  Uiso   1.00
H870   H     0.80266   0.63368   0.67580   0.00000  Uiso   1.00
H871   H     0.95577   0.47559   0.92221   0.00000  Uiso   1.00
H872   H     0.67023   0.52273   0.88593   0.00000  Uiso   1.00
H873   H     0.92442   0.58261   0.84874   0.00000  Uiso   1.00
H874   H     0.84878   0.59376   0.86605   0.00000  Uiso   1.00
H875   H     0.80371   0.36145   0.85458   0.00000  Uiso   1.00
H876   H     0.85943   0.38801   0.92545   0.00000  Uiso   1.00
H877   H     0.97193   0.38379   0.91356   0.00000  Uiso   1.00
H878   H     0.69836   0.36267   0.82820   0.00000  Uiso   1.00
H879   H     0.97731   0.33756   0.75630   0.00000  Uiso   1.00
H880   H     0.67063   0.53955   0.78894   0.00000  Uiso   1.00
H881   H     0.99610   0.46044   0.71103   0.00000  Uiso   1.00
H882   H     0.96585   0.60226   0.93966   0.00000  Uiso   1.00
H883   H     0.66884   0.59051   0.51581   0.00000  Uiso   1.00
H884   H     0.80201   0.46982   0.58226   0.00000  Uiso   1.00
H885   H     0.72829   0.46979   0.54658   0.00000  Uiso   1.00
H886   H     0.98409   0.45888   0.99586   0.00000  Uiso   1.00
H887   H     0.73684   0.62894   0.72427   0.00000  Uiso   1.00
N888   N     0.98241   0.51407   0.76416   0.00000  Uiso   1.00
N889   N     0.68426   0.48593   0.73584   0.00000  Uiso   1.00
N890   N     0.77649   0.65388   0.70453   0.00000  Uiso   1.00
N891   N     0.66688   0.48547   0.89842   0.00000  Uiso   1.00
N892   N     0.89012   0.59358   0.87823   0.00000  Uiso   1.00
O893   O     0.79464   0.57141   0.74633   0.00000  Uiso   1.00
O894   O     0.89524   0.58089   0.75587   0.00000  Uiso   1.00
O895   O     0.75848   0.49293   0.81840   0.00000  Uiso   1.00
O896   O     0.85908   0.50241   0.82793   0.00000  Uiso   1.00
O897   O     0.77142   0.41911   0.74414   0.00000  Uiso   1.00
O898   O     0.87203   0.42859   0.75367   0.00000  Uiso   1.00
O899   O     0.80758   0.49759   0.67207   0.00000  Uiso   1.00
O900   O     0.90819   0.50707   0.68161   0.00000  Uiso   1.00
C901   C     0.18085   0.93319   0.75228   0.00000  Uiso   1.00
C902   C     0.11245   0.83893   0.90394   0.00000  Uiso   1.00
C903   C     0.18401   0.98816   0.76098   0.00000  Uiso   1.00
C904   C     0.13320   0.83407   0.84736   0.00000  Uiso   1.00
C905   C     0.14821   0.67901   0.73974   0.00000  Uiso   1.00
C906   C     0.15249   0.73372   0.74744   0.00000  Uiso   1.00
C907   C     0.20054   0.83706   0.65295   0.00000  Uiso   1.00
C908   C     0.29110   0.89781   0.52974   0.00000  Uiso   1.00
C909   C     0.22111   0.84681   0.59818   0.00000  Uiso   1.00
C910   C     0.04858   0.82151   0.92690   0.00000  Uiso   1.00
C911   C     0.03251   0.80797   0.97818   0.00000  Uiso   1.00
C912   C     0.14088   0.83953   0.98745   0.00000  Uiso   1.00
C913   C     0.07820   0.81444   0.50734   0.00000  Uiso   1.00
C914   C     0.21961   0.67993   0.80049   0.00000  Uiso   1.00
C915   C     0.18710   0.69610   0.84803   0.00000  Uiso   1.00
C916   C     0.21835   0.71064   0.88839   0.00000  Uiso   1.00
C917   C     0.28195   0.70886   0.88156   0.00000  Uiso   1.00
C918   C     0.31556   0.69642   0.83349   0.00000  Uiso   1.00
C919   C     0.28463   0.68225   0.79291   0.00000  Uiso   1.00
C920   C     0.15636   0.85684   0.93626   0.00000  Uiso   1.00
C921   C     0.18750   0.85068   0.51785   0.00000  Uiso   1.00
C922   C     0.24557   0.88450   0.99948   0.00000  Uiso   1.00
C923   C     0.25659   0.90688   0.95219   0.00000  Uiso   1.00
C924   C     0.21302   0.89420   0.92080   0.00000  Uiso   1.00
C925   C     0.17751   0.83059   0.56680   0.00000  Uiso   1.00
C926   C     0.27883   0.87922   0.57900   0.00000  Uiso   1.00
Cu927  Cu    0.10710   0.82772   0.74436   0.00000  Uiso   1.00
Cu928  Cu    0.22623   0.83895   0.75565   0.00000  Uiso   1.00
H929   H     0.31298   0.89229   0.60287   0.00000  Uiso   1.00
H930   H     0.13599   0.96701   0.67580   0.00000  Uiso   1.00
H931   H     0.28910   0.80892   0.92221   0.00000  Uiso   1.00
H932   H     0.00356   0.85606   0.88593   0.00000  Uiso   1.00
H933   H     0.25776   0.91594   0.84874   0.00000  Uiso   1.00
H934   H     0.18212   0.92709   0.86605   0.00000  Uiso   1.00
H935   H     0.13705   0.69478   0.85458   0.00000  Uiso   1.00
H936   H     0.19276   0.72134   0.92545   0.00000  Uiso   1.00
H937   H     0.30526   0.71712   0.91356   0.00000  Uiso   1.00
H938   H     0.03169   0.69600   0.82820   0.00000  Uiso   1.00
H939   H     0.31064   0.67089   0.75630   0.00000  Uiso   1.00
H940   H     0.00397   0.87288   0.78894   0.00000  Uiso   1.00
H941   H     0.32943   0.79377   0.71103   0.00000  Uiso   1.00
H942   H     0.29919   0.93560   0.93966   0.00000  Uiso   1.00
H943   H     0.00217   0.92385   0.51581   0.00000  Uiso   1.00
H944   H     0.13535   0.80315   0.58226   0.00000  Uiso   1.00
H945   H     0.06162   0.80312   0.54658   0.00000  Uiso   1.00
H946   H     0.31742   0.79221   0.99586   0.00000  Uiso   1.00
H947   H     0.07017   0.96227   0.72427   0.00000  Uiso   1.00
N948   N     0.31574   0.84741   0.76416   0.00000  Uiso   1.00
N949   N     0.01759   0.81926   0.73584   0.00000  Uiso   1.00
N950   N     0.10983   0.98721   0.70453   0.00000  Uiso   1.00
N951   N     0.00021   0.81881   0.89842   0.00000  Uiso   1.00
N952   N     0.22346   0.92691   0.87823   0.00000  Uiso   1.00
O953   O     0.12797   0.90474   0.74633   0.00000  Uiso   1.00
O954   O     0.22858   0.91422   0.75587   0.00000  Uiso   1.00
O955   O     0.09181   0.82627   0.81840   0.00000  Uiso   1.00
O956   O     0.19242   0.83575   0.82793   0.00000  Uiso   1.00
O957   O     0.10476   0.75245   0.74414   0.00000  Uiso   1.00
O958   O     0.20536   0.76193   0.75367   0.00000  Uiso   1.00
O959   O     0.14092   0.83092   0.67207   0.00000  Uiso   1.00
O960   O     0.24152   0.84040   0.68161   0.00000  Uiso   1.00
C961   C     0.51418   0.93319   0.75228   0.00000  Uiso   1.00
C962   C     0.44578   0.83893   0.90394   0.00000  Uiso   1.00
C963   C     0.51734   0.98816   0.76098   0.00000  Uiso   1.00
C964   C     0.46653   0.83407   0.84736   0.00000  Uiso   1.00
C965   C     0.48155   0.67901   0.73974   0.00000  Uiso   1.00
C966   C     0.48582   0.73372   0.74744   0.00000  Uiso   1.00
C967   C     0.53388   0.83706   0.65295   0.00000  Uiso   1.00
C968   C     0.62444   0.89781   0.52974   0.00000  Uiso   1.00
C969   C     0.55444   0.84681   0.59818   0.00000  Uiso   1.00
C970   C     0.38192   0.82151   0.92690   0.00000  Uiso   1.00
C971   C     0.36584   0.80797   0.97818   0.00000  Uiso   1.00
C972   C     0.47421   0.83953   0.98745   0.00000  Uiso   1.00
C973   C     0.41153   0.81444   0.50734   0.00000  Uiso   1.00
C974   C     0.55294   0.67993   0.80049   0.00000  Uiso   1.00
C975   C     0.52043   0.69610   0.84803   0.00000  Uiso   1.00
C976   C     0.55169   0.71064   0.88839   0.00000  Uiso   1.00
C977   C     0.61529   0.70886   0.88156   0.00000  Uiso   1.00
C978   C     0.64890   0.69642   0.83349   0.00000  Uiso   1.00
C979   C     0.61797   0.68225   0.79291   0.00000  Uiso   1.00
C980   C     0.48969   0.85684   0.93626   0.00000  Uiso   1.00
C981   C     0.52083   0.85068   0.51785   0.00000  Uiso   1.00
C982   C     0.57890   0.88450   0.99948   0.00000  Uiso   1.00
C983   C     0.58992   0.90688   0.95219   0.00000  Uiso   1.00
C984   C     0.54635   0.89420   0.92080   0.00000  Uiso   1.00
C985   C     0.51084   0.83059   0.56680   0.00000  Uiso   1.00
C986   C     0.61216   0.87922   0.57900   0.00000  Uiso   1.00
Cu987  Cu    0.44043   0.82772   0.74436   0.00000  Uiso   1.00
Cu988  Cu    0.55957   0.83895   0.75565   0.00000  Uiso   1.00
H989   H     0.64632   0.89229   0.60287   0.00000  Uiso   1.00
H990   H     0.46933   0.96701   0.67580   0.00000  Uiso   1.00
H991   H     0.62244   0.80892   0.92221   0.00000  Uiso   1.00
H992   H     0.33689   0.85606   0.88593   0.00000  Uiso   1.00
H993   H     0.59109   0.91594   0.84874   0.00000  Uiso   1.00
H994   H     0.51545   0.92709   0.86605   0.00000  Uiso   1.00
H995   H     0.47038   0.69478   0.85458   0.00000  Uiso   1.00
H996   H     0.52610   0.72134   0.92545   0.00000  Uiso   1.00
H997   H     0.63860   0.71712   0.91356   0.00000  Uiso   1.00
H998   H     0.36503   0.69600   0.82820   0.00000  Uiso   1.00
H999   H     0.64398   0.67089   0.75630   0.00000  Uiso   1.00
H1000  H     0.33730   0.87288   0.78894   0.00000  Uiso   1.00
H1001  H     0.66277   0.79377   0.71103   0.00000  Uiso   1.00
H1002  H     0.63252   0.93560   0.93966   0.00000  Uiso   1.00
H1003  H     0.33551   0.92385   0.51581   0.00000  Uiso   1.00
H1004  H     0.46868   0.80315   0.58226   0.00000  Uiso   1.00
H1005  H     0.39496   0.80312   0.54658   0.00000  Uiso   1.00
H1006  H     0.65076   0.79221   0.99586   0.00000  Uiso   1.00
H1007  H     0.40350   0.96227   0.72427   0.00000  Uiso   1.00
N1008  N     0.64908   0.84741   0.76416   0.00000  Uiso   1.00
N1009  N     0.35092   0.81926   0.73584   0.00000  Uiso   1.00
N1010  N     0.44316   0.98721   0.70453   0.00000  Uiso   1.00
N1011  N     0.33354   0.81881   0.89842   0.00000  Uiso   1.00
N1012  N     0.55679   0.92691   0.87823   0.00000  Uiso   1.00
O1013  O     0.46131   0.90474   0.74633   0.00000  Uiso   1.00
O1014  O     0.56191   0.91422   0.75587   0.00000  Uiso   1.00
O1015  O     0.42515   0.82627   0.81840   0.00000  Uiso   1.00
O1016  O     0.52575   0.83575   0.82793   0.00000  Uiso   1.00
O1017  O     0.43809   0.75245   0.74414   0.00000  Uiso   1.00
O1018  O     0.53869   0.76193   0.75367   0.00000  Uiso   1.00
O1019  O     0.47425   0.83092   0.67207   0.00000  Uiso   1.00
O1020  O     0.57485   0.84040   0.68161   0.00000  Uiso   1.00
C1021  C     0.84752   0.93319   0.75228   0.00000  Uiso   1.00
C1022  C     0.77912   0.83893   0.90394   0.00000  Uiso   1.00
C1023  C     0.85067   0.98816   0.76098   0.00000  Uiso   1.00
C1024  C     0.79986   0.83407   0.84736   0.00000  Uiso   1.00
C1025  C     0.81488   0.67901   0.73974   0.00000  Uiso   1.00
C1026  C     0.81915   0.73372   0.74744   0.00000  Uiso   1.00
C1027  C     0.86721   0.83706   0.65295   0.00000  Uiso   1.00
C1028  C     0.95777   0.89781   0.52974   0.00000  Uiso   1.00
C1029  C     0.88778   0.84681   0.59818   0.00000  Uiso   1.00
C1030  C     0.71525   0.82151   0.92690   0.00000  Uiso   1.00
C1031  C     0.69918   0.80797   0.97818   0.00000  Uiso   1.00
C1032  C     0.80754   0.83953   0.98745   0.00000  Uiso   1.00
C1033  C     0.74487   0.81444   0.50734   0.00000  Uiso   1.00
C1034  C     0.88628   0.67993   0.80049   0.00000  Uiso   1.00
C1035  C     0.85376   0.69610   0.84803   0.00000  Uiso   1.00
C1036  C     0.88502   0.71064   0.88839   0.00000  Uiso   1.00
C1037  C     0.94862   0.70886   0.88156   0.00000  Uiso   1.00
C1038  C     0.98223   0.69642   0.83349   0.00000  Uiso   1.00
C1039  C     0.95130   0.68225   0.79291   0.00000  Uiso   1.00
C1040  C     0.82302   0.85684   0.93626   0.00000  Uiso   1.00
C1041  C     0.85416   0.85068   0.51785   0.00000  Uiso   1.00
C1042  C     0.91224   0.88450   0.99948   0.00000  Uiso   1.00
C1043  C     0.92325   0.90688   0.95219   0.00000  Uiso   1.00
C1044  C     0.87968   0.89420   0.92080   0.00000  Uiso   1.00
C1045  C     0.84418   0.83059   0.56680   0.00000  Uiso   1.00
C1046  C     0.94550   0.87922   0.57900   0.00000  Uiso   1.00
Cu1047 Cu    0.77377   0.82772   0.74436   0.00000  Uiso   1.00
Cu1048 Cu    0.89290   0.83895   0.75565   0.00000  Uiso   1.00
H1049  H     0.97965   0.89229   0.60287   0.00000  Uiso   1.00
H1050  H     0.80266   0.96701   0.67580   0.00000  Uiso   1.00
H1051  H     0.95577   0.80892   0.92221   0.00000  Uiso   1.00
H1052  H     0.67023   0.85606   0.88593   0.00000  Uiso   1.00
H1053  H     0.92442   0.91594   0.84874   0.00000  Uiso   1.00
H1054  H     0.84878   0.92709   0.86605   0.00000  Uiso   1.00
H1055  H     0.80371   0.69478   0.85458   0.00000  Uiso   1.00
H1056  H     0.85943   0.72134   0.92545   0.00000  Uiso   1.00
H1057  H     0.97193   0.71712   0.91356   0.00000  Uiso   1.00
H1058  H     0.69836   0.69600   0.82820   0.00000  Uiso   1.00
H1059  H     0.97731   0.67089   0.75630   0.00000  Uiso   1.00
H1060  H     0.67063   0.87288   0.78894   0.00000  Uiso   1.00
H1061  H     0.99610   0.79377   0.71103   0.00000  Uiso   1.00
H1062  H     0.96585   0.93560   0.93966   0.00000  Uiso   1.00
H1063  H     0.66884   0.92385   0.51581   0.00000  Uiso   1.00
H1064  H     0.80201   0.80315   0.58226   0.00000  Uiso   1.00
H1065  H     0.72829   0.80312   0.54658   0.00000  Uiso   1.00
H1066  H     0.98409   0.79221   0.99586   0.00000  Uiso   1.00
H1067  H     0.73684   0.96227   0.72427   0.00000  Uiso   1.00
N1068  N     0.98241   0.84741   0.76416   0.00000  Uiso   1.00
N1069  N     0.68426   0.81926   0.73584   0.00000  Uiso   1.00
N1070  N     0.77649   0.98721   0.70453   0.00000  Uiso   1.00
N1071  N     0.66688   0.81881   0.89842   0.00000  Uiso   1.00
N1072  N     0.89012   0.92691   0.87823   0.00000  Uiso   1.00
O1073  O     0.79464   0.90474   0.74633   0.00000  Uiso   1.00
O1074  O     0.89524   0.91422   0.75587   0.00000  Uiso   1.00
O1075  O     0.75848   0.82627   0.81840   0.00000  Uiso   1.00
O1076  O     0.85908   0.83575   0.82793   0.00000  Uiso   1.00
O1077  O     0.77142   0.75245   0.74414   0.00000  Uiso   1.00
O1078  O     0.87203   0.76193   0.75367   0.00000  Uiso   1.00
O1079  O     0.80758   0.83092   0.67207   0.00000  Uiso   1.00
O1080  O     0.90819   0.84040   0.68161   0.00000  Uiso   1.00
loop_
_geom_bond_atom_site_label_1
_geom_bond_atom_site_label_2
_geom_bond_distance
_geom_bond_site_symmetry_2
_ccdc_geom_bond_type
C1     O54     1.292   .     A
C1     O53     1.289   .     A
C1     C3      1.443   .     S
C2     C4      1.490   .     S
C2     C20     1.428   .     A
C2     C10     1.411   .     A
C3     C185    1.355   .     S
C3     C194    1.492   .     S
C4     O56     1.300   .     A
C4     O55     1.304   .     A
C5     C6      1.430   .     S
C5     C363    1.355   1_545 S
C5     N410    1.441   1_545 S
C6     O58     1.289   .     A
C6     O57     1.286   .     A
C7     O59     1.294   .     A
C7     O60     1.300   .     A
C7     C9      1.463   .     S
C8     C26     1.392   .     A
C8     C562    1.404   1_554 S
C8     H103    1.084   .     S
C9     C25     1.399   .     A
C9     C26     1.398   .     A
C10    N51     1.437   .     S
C10    C11     1.395   .     A
C11    C553    1.388   .     S
C11    H166    1.083   1_455 S
C12    C20     1.423   .     A
C12    C553    1.415   .     S
C12    C561    1.425   .     S
C13    H45     1.077   .     S
C13    C552    1.415   1_554 S
C13    C551    1.388   1_554 S
C14    C19     1.406   .     A
C14    C15     1.407   .     A
C14    C363    1.492   1_545 S
C15    C16     1.398   .     A
C15    H35     1.083   .     S
C16    H36     1.083   .     S
C16    C17     1.398   .     A
C17    C18     1.396   .     A
C17    H37     1.082   .     S
C18    C19     1.397   .     A
C18    H98     1.082   .     S
C19    H39     1.082   .     S
C20    C24     1.427   .     A
C21    C25     1.405   .     A
C21    C552    1.425   1_554 S
C21    C562    1.416   1_554 S
C22    C23     1.388   .     A
C22    C561    1.416   .     S
C22    C548    1.404   .     S
C23    C24     1.391   .     A
C23    H42     1.085   .     S
C24    N52     1.430   .     S
C25    H44     1.077   .     S
C26    H29     1.083   .     S
Cu27   O53     1.987   .     S
Cu27   O59     1.920   .     S
Cu27   O55     1.940   .     S
Cu27   N49     2.018   .     S
Cu27   O57     1.977   .     S
Cu27   Cu28    2.686   .     S
Cu28   O58     1.987   .     S
Cu28   O56     1.920   .     S
Cu28   O60     1.940   .     S
Cu28   N48     2.018   .     S
Cu28   O54     1.977   .     S
H30    N50     1.046   .     S
H31    N111    1.045   .     S
H32    N51     1.045   .     S
H33    N52     1.044   .     S
H34    N52     1.042   .     S
H38    C138    1.082   1_455 S
H40    N168    1.029   1_455 S
H41    N109    1.029   .     S
H43    C128    1.084   1_455 S
H46    C71     1.083   .     S
H47    N50     1.045   .     S
N48    H100    1.029   .     S
N48    N109    1.284   .     S
N49    N168    1.284   1_455 S
N49    H161    1.029   1_455 S
N50    C185    1.441   .     S
N51    H151    1.045   1_455 S
C61    O114    1.292   .     A
C61    O113    1.289   .     A
C61    C63     1.443   .     S
C62    C64     1.490   .     S
C62    C80     1.428   .     A
C62    C70     1.411   .     A
C63    C245    1.355   .     S
C63    C254    1.492   .     S
C64    O116    1.300   .     A
C64    O115    1.304   .     A
C65    C66     1.430   .     S
C65    C423    1.355   1_545 S
C65    N470    1.441   1_545 S
C66    O118    1.289   .     A
C66    O117    1.286   .     A
C67    O119    1.294   .     A
C67    O120    1.300   .     A
C67    C69     1.463   .     S
C68    C86     1.392   .     A
C68    C622    1.404   1_554 S
C68    H163    1.084   .     S
C69    C85     1.399   .     A
C69    C86     1.398   .     A
C70    N111    1.437   .     S
C70    C71     1.395   .     A
C71    C613    1.388   .     S
C72    C80     1.423   .     A
C72    C613    1.415   .     S
C72    C621    1.425   .     S
C73    H105    1.077   .     S
C73    C612    1.415   1_554 S
C73    C611    1.388   1_554 S
C74    C79     1.406   .     A
C74    C75     1.407   .     A
C74    C423    1.492   1_545 S
C75    C76     1.398   .     A
C75    H95     1.083   .     S
C76    H96     1.083   .     S
C76    C77     1.398   .     A
C77    C78     1.396   .     A
C77    H97     1.082   .     S
C78    C79     1.397   .     A
C78    H158    1.082   .     S
C79    H99     1.082   .     S
C80    C84     1.427   .     A
C81    C85     1.405   .     A
C81    C612    1.425   1_554 S
C81    C622    1.416   1_554 S
C82    C83     1.388   .     A
C82    C621    1.416   .     S
C82    C608    1.404   .     S
C83    C84     1.391   .     A
C83    H102    1.085   .     S
C84    N112    1.430   .     S
C85    H104    1.077   .     S
C86    H89     1.083   .     S
Cu87   O113    1.987   .     S
Cu87   O119    1.920   .     S
Cu87   O115    1.940   .     S
Cu87   N109    2.018   .     S
Cu87   O117    1.977   .     S
Cu87   Cu88    2.686   .     S
Cu88   O118    1.987   .     S
Cu88   O116    1.920   .     S
Cu88   O120    1.940   .     S
Cu88   N108    2.018   .     S
Cu88   O114    1.977   .     S
H90    N110    1.046   .     S
H91    N171    1.045   .     S
H92    N111    1.045   .     S
H93    N112    1.044   .     S
H94    N112    1.042   .     S
H101   N169    1.029   .     S
H106   C131    1.083   .     S
H107   N110    1.045   .     S
N108   H160    1.029   .     S
N108   N169    1.284   .     S
N110   C245    1.441   .     S
C121   O174    1.292   .     A
C121   O173    1.289   .     A
C121   C123    1.443   .     S
C122   C124    1.490   .     S
C122   C140    1.428   .     A
C122   C130    1.411   .     A
C123   C305    1.355   .     S
C123   C314    1.492   .     S
C124   O176    1.300   .     A
C124   O175    1.304   .     A
C125   C126    1.430   .     S
C125   C483    1.355   1_545 S
C125   N530    1.441   1_545 S
C126   O178    1.289   .     A
C126   O177    1.286   .     A
C127   O179    1.294   .     A
C127   O180    1.300   .     A
C127   C129    1.463   .     S
C128   C146    1.392   .     A
C128   C682    1.404   1_554 S
C128   H43     1.084   1_655 S
C129   C145    1.399   .     A
C129   C146    1.398   .     A
C130   N171    1.437   .     S
C130   C131    1.395   .     A
C131   C673    1.388   .     S
C132   C140    1.423   .     A
C132   C673    1.415   .     S
C132   C681    1.425   .     S
C133   H165    1.077   .     S
C133   C672    1.415   1_554 S
C133   C671    1.388   1_554 S
C134   C139    1.406   .     A
C134   C135    1.407   .     A
C134   C483    1.492   1_545 S
C135   C136    1.398   .     A
C135   H155    1.083   .     S
C136   H156    1.083   .     S
C136   C137    1.398   .     A
C137   C138    1.396   .     A
C137   H157    1.082   .     S
C138   C139    1.397   .     A
C138   H38     1.082   1_655 S
C139   H159    1.082   .     S
C140   C144    1.427   .     A
C141   C145    1.405   .     A
C141   C672    1.425   1_554 S
C141   C682    1.416   1_554 S
C142   C143    1.388   .     A
C142   C681    1.416   .     S
C142   C668    1.404   .     S
C143   C144    1.391   .     A
C143   H162    1.085   .     S
C144   N172    1.430   .     S
C145   H164    1.077   .     S
C146   H149    1.083   .     S
Cu147  O173    1.987   .     S
Cu147  O179    1.920   .     S
Cu147  O175    1.940   .     S
Cu147  N169    2.018   .     S
Cu147  O177    1.977   .     S
Cu147  Cu148   2.686   .     S
Cu148  O178    1.987   .     S
Cu148  O176    1.920   .     S
Cu148  O180    1.940   .     S
Cu148  N168    2.018   .     S
Cu148  O174    1.977   .     S
H150   N170    1.046   .     S
H151   N51     1.045   1_655 S
H152   N171    1.045   .     S
H153   N172    1.044   .     S
H154   N172    1.042   .     S
H161   N49     1.029   1_655 S
H166   C11     1.083   1_655 S
H167   N170    1.045   .     S
N168   H40     1.029   1_655 S
N168   N49     1.284   1_655 S
N170   C305    1.441   .     S
C181   O234    1.292   .     A
C181   O233    1.289   .     A
C181   C183    1.443   .     S
C182   C184    1.490   .     S
C182   C200    1.428   .     A
C182   C190    1.411   .     A
C183   C365    1.355   .     S
C183   C374    1.492   .     S
C184   O236    1.300   .     A
C184   O235    1.304   .     A
C185   C186    1.430   .     S
C186   O238    1.289   .     A
C186   O237    1.286   .     A
C187   O239    1.294   .     A
C187   O240    1.300   .     A
C187   C189    1.463   .     S
C188   C206    1.392   .     A
C188   C742    1.404   1_554 S
C188   H283    1.084   .     S
C189   C205    1.399   .     A
C189   C206    1.398   .     A
C190   N231    1.437   .     S
C190   C191    1.395   .     A
C191   C733    1.388   .     S
C191   H346    1.083   1_455 S
C192   C200    1.423   .     A
C192   C733    1.415   .     S
C192   C741    1.425   .     S
C193   H225    1.077   .     S
C193   C732    1.415   1_554 S
C193   C731    1.388   1_554 S
C194   C199    1.406   .     A
C194   C195    1.407   .     A
C195   C196    1.398   .     A
C195   H215    1.083   .     S
C196   H216    1.083   .     S
C196   C197    1.398   .     A
C197   C198    1.396   .     A
C197   H217    1.082   .     S
C198   C199    1.397   .     A
C198   H278    1.082   .     S
C199   H219    1.082   .     S
C200   C204    1.427   .     A
C201   C205    1.405   .     A
C201   C732    1.425   1_554 S
C201   C742    1.416   1_554 S
C202   C203    1.388   .     A
C202   C741    1.416   .     S
C202   C728    1.404   .     S
C203   C204    1.391   .     A
C203   H222    1.085   .     S
C204   N232    1.430   .     S
C205   H224    1.077   .     S
C206   H209    1.083   .     S
Cu207  O233    1.987   .     S
Cu207  O239    1.920   .     S
Cu207  O235    1.940   .     S
Cu207  N229    2.018   .     S
Cu207  O237    1.977   .     S
Cu207  Cu208   2.686   .     S
Cu208  O238    1.987   .     S
Cu208  O236    1.920   .     S
Cu208  O240    1.940   .     S
Cu208  N228    2.018   .     S
Cu208  O234    1.977   .     S
H210   N230    1.046   .     S
H211   N291    1.045   .     S
H212   N231    1.045   .     S
H213   N232    1.044   .     S
H214   N232    1.042   .     S
H218   C318    1.082   1_455 S
H220   N348    1.029   1_455 S
H221   N289    1.029   .     S
H223   C308    1.084   1_455 S
H226   C251    1.083   .     S
H227   N230    1.045   .     S
N228   H280    1.029   .     S
N228   N289    1.284   .     S
N229   N348    1.284   1_455 S
N229   H341    1.029   1_455 S
N230   C365    1.441   .     S
N231   H331    1.045   1_455 S
C241   O294    1.292   .     A
C241   O293    1.289   .     A
C241   C243    1.443   .     S
C242   C244    1.490   .     S
C242   C260    1.428   .     A
C242   C250    1.411   .     A
C243   C425    1.355   .     S
C243   C434    1.492   .     S
C244   O296    1.300   .     A
C244   O295    1.304   .     A
C245   C246    1.430   .     S
C246   O298    1.289   .     A
C246   O297    1.286   .     A
C247   O299    1.294   .     A
C247   O300    1.300   .     A
C247   C249    1.463   .     S
C248   C266    1.392   .     A
C248   C802    1.404   1_554 S
C248   H343    1.084   .     S
C249   C265    1.399   .     A
C249   C266    1.398   .     A
C250   N291    1.437   .     S
C250   C251    1.395   .     A
C251   C793    1.388   .     S
C252   C260    1.423   .     A
C252   C793    1.415   .     S
C252   C801    1.425   .     S
C253   H285    1.077   .     S
C253   C792    1.415   1_554 S
C253   C791    1.388   1_554 S
C254   C259    1.406   .     A
C254   C255    1.407   .     A
C255   C256    1.398   .     A
C255   H275    1.083   .     S
C256   H276    1.083   .     S
C256   C257    1.398   .     A
C257   C258    1.396   .     A
C257   H277    1.082   .     S
C258   C259    1.397   .     A
C258   H338    1.082   .     S
C259   H279    1.082   .     S
C260   C264    1.427   .     A
C261   C265    1.405   .     A
C261   C792    1.425   1_554 S
C261   C802    1.416   1_554 S
C262   C263    1.388   .     A
C262   C801    1.416   .     S
C262   C788    1.404   .     S
C263   C264    1.391   .     A
C263   H282    1.085   .     S
C264   N292    1.430   .     S
C265   H284    1.077   .     S
C266   H269    1.083   .     S
Cu267  O293    1.987   .     S
Cu267  O299    1.920   .     S
Cu267  O295    1.940   .     S
Cu267  N289    2.018   .     S
Cu267  O297    1.977   .     S
Cu267  Cu268   2.686   .     S
Cu268  O298    1.987   .     S
Cu268  O296    1.920   .     S
Cu268  O300    1.940   .     S
Cu268  N288    2.018   .     S
Cu268  O294    1.977   .     S
H270   N290    1.046   .     S
H271   N351    1.045   .     S
H272   N291    1.045   .     S
H273   N292    1.044   .     S
H274   N292    1.042   .     S
H281   N349    1.029   .     S
H286   C311    1.083   .     S
H287   N290    1.045   .     S
N288   H340    1.029   .     S
N288   N349    1.284   .     S
N290   C425    1.441   .     S
C301   O354    1.292   .     A
C301   O353    1.289   .     A
C301   C303    1.443   .     S
C302   C304    1.490   .     S
C302   C320    1.428   .     A
C302   C310    1.411   .     A
C303   C485    1.355   .     S
C303   C494    1.492   .     S
C304   O356    1.300   .     A
C304   O355    1.304   .     A
C305   C306    1.430   .     S
C306   O358    1.289   .     A
C306   O357    1.286   .     A
C307   O359    1.294   .     A
C307   O360    1.300   .     A
C307   C309    1.463   .     S
C308   C326    1.392   .     A
C308   C862    1.404   1_554 S
C308   H223    1.084   1_655 S
C309   C325    1.399   .     A
C309   C326    1.398   .     A
C310   N351    1.437   .     S
C310   C311    1.395   .     A
C311   C853    1.388   .     S
C312   C320    1.423   .     A
C312   C853    1.415   .     S
C312   C861    1.425   .     S
C313   H345    1.077   .     S
C313   C852    1.415   1_554 S
C313   C851    1.388   1_554 S
C314   C319    1.406   .     A
C314   C315    1.407   .     A
C315   C316    1.398   .     A
C315   H335    1.083   .     S
C316   H336    1.083   .     S
C316   C317    1.398   .     A
C317   C318    1.396   .     A
C317   H337    1.082   .     S
C318   C319    1.397   .     A
C318   H218    1.082   1_655 S
C319   H339    1.082   .     S
C320   C324    1.427   .     A
C321   C325    1.405   .     A
C321   C852    1.425   1_554 S
C321   C862    1.416   1_554 S
C322   C323    1.388   .     A
C322   C861    1.416   .     S
C322   C848    1.404   .     S
C323   C324    1.391   .     A
C323   H342    1.085   .     S
C324   N352    1.430   .     S
C325   H344    1.077   .     S
C326   H329    1.083   .     S
Cu327  O353    1.987   .     S
Cu327  O359    1.920   .     S
Cu327  O355    1.940   .     S
Cu327  N349    2.018   .     S
Cu327  O357    1.977   .     S
Cu327  Cu328   2.686   .     S
Cu328  O358    1.987   .     S
Cu328  O356    1.920   .     S
Cu328  O360    1.940   .     S
Cu328  N348    2.018   .     S
Cu328  O354    1.977   .     S
H330   N350    1.046   .     S
H331   N231    1.045   1_655 S
H332   N351    1.045   .     S
H333   N352    1.044   .     S
H334   N352    1.042   .     S
H341   N229    1.029   1_655 S
H346   C191    1.083   1_655 S
H347   N350    1.045   .     S
N348   H220    1.029   1_655 S
N348   N229    1.284   1_655 S
N350   C485    1.441   .     S
C361   O414    1.292   .     A
C361   O413    1.289   .     A
C361   C363    1.443   .     S
C362   C364    1.490   .     S
C362   C380    1.428   .     A
C362   C370    1.411   .     A
C363   C5      1.355   1_565 S
C363   C14     1.492   1_565 S
C364   O416    1.300   .     A
C364   O415    1.304   .     A
C365   C366    1.430   .     S
C366   O418    1.289   .     A
C366   O417    1.286   .     A
C367   O419    1.294   .     A
C367   O420    1.300   .     A
C367   C369    1.463   .     S
C368   C386    1.392   .     A
C368   C922    1.404   1_554 S
C368   H463    1.084   .     S
C369   C385    1.399   .     A
C369   C386    1.398   .     A
C370   N411    1.437   .     S
C370   C371    1.395   .     A
C371   C913    1.388   .     S
C371   H526    1.083   1_455 S
C372   C380    1.423   .     A
C372   C913    1.415   .     S
C372   C921    1.425   .     S
C373   H405    1.077   .     S
C373   C912    1.415   1_554 S
C373   C911    1.388   1_554 S
C374   C379    1.406   .     A
C374   C375    1.407   .     A
C375   C376    1.398   .     A
C375   H395    1.083   .     S
C376   H396    1.083   .     S
C376   C377    1.398   .     A
C377   C378    1.396   .     A
C377   H397    1.082   .     S
C378   C379    1.397   .     A
C378   H458    1.082   .     S
C379   H399    1.082   .     S
C380   C384    1.427   .     A
C381   C385    1.405   .     A
C381   C912    1.425   1_554 S
C381   C922    1.416   1_554 S
C382   C383    1.388   .     A
C382   C921    1.416   .     S
C382   C908    1.404   .     S
C383   C384    1.391   .     A
C383   H402    1.085   .     S
C384   N412    1.430   .     S
C385   H404    1.077   .     S
C386   H389    1.083   .     S
Cu387  O413    1.987   .     S
Cu387  O419    1.920   .     S
Cu387  O415    1.940   .     S
Cu387  N409    2.018   .     S
Cu387  O417    1.977   .     S
Cu387  Cu388   2.686   .     S
Cu388  O418    1.987   .     S
Cu388  O416    1.920   .     S
Cu388  O420    1.940   .     S
Cu388  N408    2.018   .     S
Cu388  O414    1.977   .     S
H390   N410    1.046   .     S
H391   N471    1.045   .     S
H392   N411    1.045   .     S
H393   N412    1.044   .     S
H394   N412    1.042   .     S
H398   C498    1.082   1_455 S
H400   N528    1.029   1_455 S
H401   N469    1.029   .     S
H403   C488    1.084   1_455 S
H406   C431    1.083   .     S
H407   N410    1.045   .     S
N408   H460    1.029   .     S
N408   N469    1.284   .     S
N409   N528    1.284   1_455 S
N409   H521    1.029   1_455 S
N410   C5      1.441   1_565 S
N411   H511    1.045   1_455 S
C421   O474    1.292   .     A
C421   O473    1.289   .     A
C421   C423    1.443   .     S
C422   C424    1.490   .     S
C422   C440    1.428   .     A
C422   C430    1.411   .     A
C423   C65     1.355   1_565 S
C423   C74     1.492   1_565 S
C424   O476    1.300   .     A
C424   O475    1.304   .     A
C425   C426    1.430   .     S
C426   O478    1.289   .     A
C426   O477    1.286   .     A
C427   O479    1.294   .     A
C427   O480    1.300   .     A
C427   C429    1.463   .     S
C428   C446    1.392   .     A
C428   C982    1.404   1_554 S
C428   H523    1.084   .     S
C429   C445    1.399   .     A
C429   C446    1.398   .     A
C430   N471    1.437   .     S
C430   C431    1.395   .     A
C431   C973    1.388   .     S
C432   C440    1.423   .     A
C432   C973    1.415   .     S
C432   C981    1.425   .     S
C433   H465    1.077   .     S
C433   C972    1.415   1_554 S
C433   C971    1.388   1_554 S
C434   C439    1.406   .     A
C434   C435    1.407   .     A
C435   C436    1.398   .     A
C435   H455    1.083   .     S
C436   H456    1.083   .     S
C436   C437    1.398   .     A
C437   C438    1.396   .     A
C437   H457    1.082   .     S
C438   C439    1.397   .     A
C438   H518    1.082   .     S
C439   H459    1.082   .     S
C440   C444    1.427   .     A
C441   C445    1.405   .     A
C441   C972    1.425   1_554 S
C441   C982    1.416   1_554 S
C442   C443    1.388   .     A
C442   C981    1.416   .     S
C442   C968    1.404   .     S
C443   C444    1.391   .     A
C443   H462    1.085   .     S
C444   N472    1.430   .     S
C445   H464    1.077   .     S
C446   H449    1.083   .     S
Cu447  O473    1.987   .     S
Cu447  O479    1.920   .     S
Cu447  O475    1.940   .     S
Cu447  N469    2.018   .     S
Cu447  O477    1.977   .     S
Cu447  Cu448   2.686   .     S
Cu448  O478    1.987   .     S
Cu448  O476    1.920   .     S
Cu448  O480    1.940   .     S
Cu448  N468    2.018   .     S
Cu448  O474    1.977   .     S
H450   N470    1.046   .     S
H451   N531    1.045   .     S
H452   N471    1.045   .     S
H453   N472    1.044   .     S
H454   N472    1.042   .     S
H461   N529    1.029   .     S
H466   C491    1.083   .     S
H467   N470    1.045   .     S
N468   H520    1.029   .     S
N468   N529    1.284   .     S
N470   C65     1.441   1_565 S
C481   O534    1.292   .     A
C481   O533    1.289   .     A
C481   C483    1.443   .     S
C482   C484    1.490   .     S
C482   C500    1.428   .     A
C482   C490    1.411   .     A
C483   C125    1.355   1_565 S
C483   C134    1.492   1_565 S
C484   O536    1.300   .     A
C484   O535    1.304   .     A
C485   C486    1.430   .     S
C486   O538    1.289   .     A
C486   O537    1.286   .     A
C487   O539    1.294   .     A
C487   O540    1.300   .     A
C487   C489    1.463   .     S
C488   C506    1.392   .     A
C488   C1042   1.404   1_554 S
C488   H403    1.084   1_655 S
C489   C505    1.399   .     A
C489   C506    1.398   .     A
C490   N531    1.437   .     S
C490   C491    1.395   .     A
C491   C1033   1.388   .     S
C492   C500    1.423   .     A
C492   C1033   1.415   .     S
C492   C1041   1.425   .     S
C493   H525    1.077   .     S
C493   C1032   1.415   1_554 S
C493   C1031   1.388   1_554 S
C494   C499    1.406   .     A
C494   C495    1.407   .     A
C495   C496    1.398   .     A
C495   H515    1.083   .     S
C496   H516    1.083   .     S
C496   C497    1.398   .     A
C497   C498    1.396   .     A
C497   H517    1.082   .     S
C498   C499    1.397   .     A
C498   H398    1.082   1_655 S
C499   H519    1.082   .     S
C500   C504    1.427   .     A
C501   C505    1.405   .     A
C501   C1032   1.425   1_554 S
C501   C1042   1.416   1_554 S
C502   C503    1.388   .     A
C502   C1041   1.416   .     S
C502   C1028   1.404   .     S
C503   C504    1.391   .     A
C503   H522    1.085   .     S
C504   N532    1.430   .     S
C505   H524    1.077   .     S
C506   H509    1.083   .     S
Cu507  O533    1.987   .     S
Cu507  O539    1.920   .     S
Cu507  O535    1.940   .     S
Cu507  N529    2.018   .     S
Cu507  O537    1.977   .     S
Cu507  Cu508   2.686   .     S
Cu508  O538    1.987   .     S
Cu508  O536    1.920   .     S
Cu508  O540    1.940   .     S
Cu508  N528    2.018   .     S
Cu508  O534    1.977   .     S
H510   N530    1.046   .     S
H511   N411    1.045   1_655 S
H512   N531    1.045   .     S
H513   N532    1.044   .     S
H514   N532    1.042   .     S
H521   N409    1.029   1_655 S
H526   C371    1.083   1_655 S
H527   N530    1.045   .     S
N528   H400    1.029   1_655 S
N528   N409    1.284   1_655 S
N530   C125    1.441   1_565 S
C541   O594    1.292   .     A
C541   O593    1.289   .     A
C541   C543    1.443   .     S
C542   C544    1.490   .     S
C542   C560    1.428   .     A
C542   C550    1.411   .     A
C543   C725    1.355   .     S
C543   C734    1.492   .     S
C544   O596    1.300   .     A
C544   O595    1.304   .     A
C545   C546    1.430   .     S
C545   C903    1.355   1_545 S
C545   N950    1.441   1_545 S
C546   O598    1.289   .     A
C546   O597    1.286   .     A
C547   O599    1.294   .     A
C547   O600    1.300   .     A
C547   C549    1.463   .     S
C548   C566    1.392   .     A
C548   H643    1.084   .     S
C549   C565    1.399   .     A
C549   C566    1.398   .     A
C550   N591    1.437   .     S
C550   C551    1.395   .     A
C551   C13     1.388   1_556 S
C551   H706    1.083   1_455 S
C552   C560    1.423   .     A
C552   C13     1.415   1_556 S
C552   C21     1.425   1_556 S
C553   H585    1.077   .     S
C554   C559    1.406   .     A
C554   C555    1.407   .     A
C554   C903    1.492   1_545 S
C555   C556    1.398   .     A
C555   H575    1.083   .     S
C556   H576    1.083   .     S
C556   C557    1.398   .     A
C557   C558    1.396   .     A
C557   H577    1.082   .     S
C558   C559    1.397   .     A
C558   H638    1.082   .     S
C559   H579    1.082   .     S
C560   C564    1.427   .     A
C561   C565    1.405   .     A
C562   C563    1.388   .     A
C562   C21     1.416   1_556 S
C562   C8      1.404   1_556 S
C563   C564    1.391   .     A
C563   H582    1.085   .     S
C564   N592    1.430   .     S
C565   H584    1.077   .     S
C566   H569    1.083   .     S
Cu567  O593    1.987   .     S
Cu567  O599    1.920   .     S
Cu567  O595    1.940   .     S
Cu567  N589    2.018   .     S
Cu567  O597    1.977   .     S
Cu567  Cu568   2.686   .     S
Cu568  O598    1.987   .     S
Cu568  O596    1.920   .     S
Cu568  O600    1.940   .     S
Cu568  N588    2.018   .     S
Cu568  O594    1.977   .     S
H570   N590    1.046   .     S
H571   N651    1.045   .     S
H572   N591    1.045   .     S
H573   N592    1.044   .     S
H574   N592    1.042   .     S
H578   C678    1.082   1_455 S
H580   N708    1.029   1_455 S
H581   N649    1.029   .     S
H583   C668    1.084   1_455 S
H586   C611    1.083   .     S
H587   N590    1.045   .     S
N588   H640    1.029   .     S
N588   N649    1.284   .     S
N589   N708    1.284   1_455 S
N589   H701    1.029   1_455 S
N590   C725    1.441   .     S
N591   H691    1.045   1_455 S
C601   O654    1.292   .     A
C601   O653    1.289   .     A
C601   C603    1.443   .     S
C602   C604    1.490   .     S
C602   C620    1.428   .     A
C602   C610    1.411   .     A
C603   C785    1.355   .     S
C603   C794    1.492   .     S
C604   O656    1.300   .     A
C604   O655    1.304   .     A
C605   C606    1.430   .     S
C605   C963    1.355   1_545 S
C605   N1010   1.441   1_545 S
C606   O658    1.289   .     A
C606   O657    1.286   .     A
C607   O659    1.294   .     A
C607   O660    1.300   .     A
C607   C609    1.463   .     S
C608   C626    1.392   .     A
C608   H703    1.084   .     S
C609   C625    1.399   .     A
C609   C626    1.398   .     A
C610   N651    1.437   .     S
C610   C611    1.395   .     A
C611   C73     1.388   1_556 S
C612   C620    1.423   .     A
C612   C73     1.415   1_556 S
C612   C81     1.425   1_556 S
C613   H645    1.077   .     S
C614   C619    1.406   .     A
C614   C615    1.407   .     A
C614   C963    1.492   1_545 S
C615   C616    1.398   .     A
C615   H635    1.083   .     S
C616   H636    1.083   .     S
C616   C617    1.398   .     A
C617   C618    1.396   .     A
C617   H637    1.082   .     S
C618   C619    1.397   .     A
C618   H698    1.082   .     S
C619   H639    1.082   .     S
C620   C624    1.427   .     A
C621   C625    1.405   .     A
C622   C623    1.388   .     A
C622   C81     1.416   1_556 S
C622   C68     1.404   1_556 S
C623   C624    1.391   .     A
C623   H642    1.085   .     S
C624   N652    1.430   .     S
C625   H644    1.077   .     S
C626   H629    1.083   .     S
Cu627  O653    1.987   .     S
Cu627  O659    1.920   .     S
Cu627  O655    1.940   .     S
Cu627  N649    2.018   .     S
Cu627  O657    1.977   .     S
Cu627  Cu628   2.686   .     S
Cu628  O658    1.987   .     S
Cu628  O656    1.920   .     S
Cu628  O660    1.940   .     S
Cu628  N648    2.018   .     S
Cu628  O654    1.977   .     S
H630   N650    1.046   .     S
H631   N711    1.045   .     S
H632   N651    1.045   .     S
H633   N652    1.044   .     S
H634   N652    1.042   .     S
H641   N709    1.029   .     S
H646   C671    1.083   .     S
H647   N650    1.045   .     S
N648   H700    1.029   .     S
N648   N709    1.284   .     S
N650   C785    1.441   .     S
C661   O714    1.292   .     A
C661   O713    1.289   .     A
C661   C663    1.443   .     S
C662   C664    1.490   .     S
C662   C680    1.428   .     A
C662   C670    1.411   .     A
C663   C845    1.355   .     S
C663   C854    1.492   .     S
C664   O716    1.300   .     A
C664   O715    1.304   .     A
C665   C666    1.430   .     S
C665   C1023   1.355   1_545 S
C665   N1070   1.441   1_545 S
C666   O718    1.289   .     A
C666   O717    1.286   .     A
C667   O719    1.294   .     A
C667   O720    1.300   .     A
C667   C669    1.463   .     S
C668   C686    1.392   .     A
C668   H583    1.084   1_655 S
C669   C685    1.399   .     A
C669   C686    1.398   .     A
C670   N711    1.437   .     S
C670   C671    1.395   .     A
C671   C133    1.388   1_556 S
C672   C680    1.423   .     A
C672   C133    1.415   1_556 S
C672   C141    1.425   1_556 S
C673   H705    1.077   .     S
C674   C679    1.406   .     A
C674   C675    1.407   .     A
C674   C1023   1.492   1_545 S
C675   C676    1.398   .     A
C675   H695    1.083   .     S
C676   H696    1.083   .     S
C676   C677    1.398   .     A
C677   C678    1.396   .     A
C677   H697    1.082   .     S
C678   C679    1.397   .     A
C678   H578    1.082   1_655 S
C679   H699    1.082   .     S
C680   C684    1.427   .     A
C681   C685    1.405   .     A
C682   C683    1.388   .     A
C682   C141    1.416   1_556 S
C682   C128    1.404   1_556 S
C683   C684    1.391   .     A
C683   H702    1.085   .     S
C684   N712    1.430   .     S
C685   H704    1.077   .     S
C686   H689    1.083   .     S
Cu687  O713    1.987   .     S
Cu687  O719    1.920   .     S
Cu687  O715    1.940   .     S
Cu687  N709    2.018   .     S
Cu687  O717    1.977   .     S
Cu687  Cu688   2.686   .     S
Cu688  O718    1.987   .     S
Cu688  O716    1.920   .     S
Cu688  O720    1.940   .     S
Cu688  N708    2.018   .     S
Cu688  O714    1.977   .     S
H690   N710    1.046   .     S
H691   N591    1.045   1_655 S
H692   N711    1.045   .     S
H693   N712    1.044   .     S
H694   N712    1.042   .     S
H701   N589    1.029   1_655 S
H706   C551    1.083   1_655 S
H707   N710    1.045   .     S
N708   H580    1.029   1_655 S
N708   N589    1.284   1_655 S
N710   C845    1.441   .     S
C721   O774    1.292   .     A
C721   O773    1.289   .     A
C721   C723    1.443   .     S
C722   C724    1.490   .     S
C722   C740    1.428   .     A
C722   C730    1.411   .     A
C723   C905    1.355   .     S
C723   C914    1.492   .     S
C724   O776    1.300   .     A
C724   O775    1.304   .     A
C725   C726    1.430   .     S
C726   O778    1.289   .     A
C726   O777    1.286   .     A
C727   O779    1.294   .     A
C727   O780    1.300   .     A
C727   C729    1.463   .     S
C728   C746    1.392   .     A
C728   H823    1.084   .     S
C729   C745    1.399   .     A
C729   C746    1.398   .     A
C730   N771    1.437   .     S
C730   C731    1.395   .     A
C731   C193    1.388   1_556 S
C731   H886    1.083   1_455 S
C732   C740    1.423   .     A
C732   C193    1.415   1_556 S
C732   C201    1.425   1_556 S
C733   H765    1.077   .     S
C734   C739    1.406   .     A
C734   C735    1.407   .     A
C735   C736    1.398   .     A
C735   H755    1.083   .     S
C736   H756    1.083   .     S
C736   C737    1.398   .     A
C737   C738    1.396   .     A
C737   H757    1.082   .     S
C738   C739    1.397   .     A
C738   H818    1.082   .     S
C739   H759    1.082   .     S
C740   C744    1.427   .     A
C741   C745    1.405   .     A
C742   C743    1.388   .     A
C742   C201    1.416   1_556 S
C742   C188    1.404   1_556 S
C743   C744    1.391   .     A
C743   H762    1.085   .     S
C744   N772    1.430   .     S
C745   H764    1.077   .     S
C746   H749    1.083   .     S
Cu747  O773    1.987   .     S
Cu747  O779    1.920   .     S
Cu747  O775    1.940   .     S
Cu747  N769    2.018   .     S
Cu747  O777    1.977   .     S
Cu747  Cu748   2.686   .     S
Cu748  O778    1.987   .     S
Cu748  O776    1.920   .     S
Cu748  O780    1.940   .     S
Cu748  N768    2.018   .     S
Cu748  O774    1.977   .     S
H750   N770    1.046   .     S
H751   N831    1.045   .     S
H752   N771    1.045   .     S
H753   N772    1.044   .     S
H754   N772    1.042   .     S
H758   C858    1.082   1_455 S
H760   N888    1.029   1_455 S
H761   N829    1.029   .     S
H763   C848    1.084   1_455 S
H766   C791    1.083   .     S
H767   N770    1.045   .     S
N768   H820    1.029   .     S
N768   N829    1.284   .     S
N769   N888    1.284   1_455 S
N769   H881    1.029   1_455 S
N770   C905    1.441   .     S
N771   H871    1.045   1_455 S
C781   O834    1.292   .     A
C781   O833    1.289   .     A
C781   C783    1.443   .     S
C782   C784    1.490   .     S
C782   C800    1.428   .     A
C782   C790    1.411   .     A
C783   C965    1.355   .     S
C783   C974    1.492   .     S
C784   O836    1.300   .     A
C784   O835    1.304   .     A
C785   C786    1.430   .     S
C786   O838    1.289   .     A
C786   O837    1.286   .     A
C787   O839    1.294   .     A
C787   O840    1.300   .     A
C787   C789    1.463   .     S
C788   C806    1.392   .     A
C788   H883    1.084   .     S
C789   C805    1.399   .     A
C789   C806    1.398   .     A
C790   N831    1.437   .     S
C790   C791    1.395   .     A
C791   C253    1.388   1_556 S
C792   C800    1.423   .     A
C792   C253    1.415   1_556 S
C792   C261    1.425   1_556 S
C793   H825    1.077   .     S
C794   C799    1.406   .     A
C794   C795    1.407   .     A
C795   C796    1.398   .     A
C795   H815    1.083   .     S
C796   H816    1.083   .     S
C796   C797    1.398   .     A
C797   C798    1.396   .     A
C797   H817    1.082   .     S
C798   C799    1.397   .     A
C798   H878    1.082   .     S
C799   H819    1.082   .     S
C800   C804    1.427   .     A
C801   C805    1.405   .     A
C802   C803    1.388   .     A
C802   C261    1.416   1_556 S
C802   C248    1.404   1_556 S
C803   C804    1.391   .     A
C803   H822    1.085   .     S
C804   N832    1.430   .     S
C805   H824    1.077   .     S
C806   H809    1.083   .     S
Cu807  O833    1.987   .     S
Cu807  O839    1.920   .     S
Cu807  O835    1.940   .     S
Cu807  N829    2.018   .     S
Cu807  O837    1.977   .     S
Cu807  Cu808   2.686   .     S
Cu808  O838    1.987   .     S
Cu808  O836    1.920   .     S
Cu808  O840    1.940   .     S
Cu808  N828    2.018   .     S
Cu808  O834    1.977   .     S
H810   N830    1.046   .     S
H811   N891    1.045   .     S
H812   N831    1.045   .     S
H813   N832    1.044   .     S
H814   N832    1.042   .     S
H821   N889    1.029   .     S
H826   C851    1.083   .     S
H827   N830    1.045   .     S
N828   H880    1.029   .     S
N828   N889    1.284   .     S
N830   C965    1.441   .     S
C841   O894    1.292   .     A
C841   O893    1.289   .     A
C841   C843    1.443   .     S
C842   C844    1.490   .     S
C842   C860    1.428   .     A
C842   C850    1.411   .     A
C843   C1025   1.355   .     S
C843   C1034   1.492   .     S
C844   O896    1.300   .     A
C844   O895    1.304   .     A
C845   C846    1.430   .     S
C846   O898    1.289   .     A
C846   O897    1.286   .     A
C847   O899    1.294   .     A
C847   O900    1.300   .     A
C847   C849    1.463   .     S
C848   C866    1.392   .     A
C848   H763    1.084   1_655 S
C849   C865    1.399   .     A
C849   C866    1.398   .     A
C850   N891    1.437   .     S
C850   C851    1.395   .     A
C851   C313    1.388   1_556 S
C852   C860    1.423   .     A
C852   C313    1.415   1_556 S
C852   C321    1.425   1_556 S
C853   H885    1.077   .     S
C854   C859    1.406   .     A
C854   C855    1.407   .     A
C855   C856    1.398   .     A
C855   H875    1.083   .     S
C856   H876    1.083   .     S
C856   C857    1.398   .     A
C857   C858    1.396   .     A
C857   H877    1.082   .     S
C858   C859    1.397   .     A
C858   H758    1.082   1_655 S
C859   H879    1.082   .     S
C860   C864    1.427   .     A
C861   C865    1.405   .     A
C862   C863    1.388   .     A
C862   C321    1.416   1_556 S
C862   C308    1.404   1_556 S
C863   C864    1.391   .     A
C863   H882    1.085   .     S
C864   N892    1.430   .     S
C865   H884    1.077   .     S
C866   H869    1.083   .     S
Cu867  O893    1.987   .     S
Cu867  O899    1.920   .     S
Cu867  O895    1.940   .     S
Cu867  N889    2.018   .     S
Cu867  O897    1.977   .     S
Cu867  Cu868   2.686   .     S
Cu868  O898    1.987   .     S
Cu868  O896    1.920   .     S
Cu868  O900    1.940   .     S
Cu868  N888    2.018   .     S
Cu868  O894    1.977   .     S
H870   N890    1.046   .     S
H871   N771    1.045   1_655 S
H872   N891    1.045   .     S
H873   N892    1.044   .     S
H874   N892    1.042   .     S
H881   N769    1.029   1_655 S
H886   C731    1.083   1_655 S
H887   N890    1.045   .     S
N888   H760    1.029   1_655 S
N888   N769    1.284   1_655 S
N890   C1025   1.441   .     S
C901   O954    1.292   .     A
C901   O953    1.289   .     A
C901   C903    1.443   .     S
C902   C904    1.490   .     S
C902   C920    1.428   .     A
C902   C910    1.411   .     A
C903   C545    1.355   1_565 S
C903   C554    1.492   1_565 S
C904   O956    1.300   .     A
C904   O955    1.304   .     A
C905   C906    1.430   .     S
C906   O958    1.289   .     A
C906   O957    1.286   .     A
C907   O959    1.294   .     A
C907   O960    1.300   .     A
C907   C909    1.463   .     S
C908   C926    1.392   .     A
C908   H1003   1.084   .     S
C909   C925    1.399   .     A
C909   C926    1.398   .     A
C910   N951    1.437   .     S
C910   C911    1.395   .     A
C911   C373    1.388   1_556 S
C911   H1066   1.083   1_455 S
C912   C920    1.423   .     A
C912   C373    1.415   1_556 S
C912   C381    1.425   1_556 S
C913   H945    1.077   .     S
C914   C919    1.406   .     A
C914   C915    1.407   .     A
C915   C916    1.398   .     A
C915   H935    1.083   .     S
C916   H936    1.083   .     S
C916   C917    1.398   .     A
C917   C918    1.396   .     A
C917   H937    1.082   .     S
C918   C919    1.397   .     A
C918   H998    1.082   .     S
C919   H939    1.082   .     S
C920   C924    1.427   .     A
C921   C925    1.405   .     A
C922   C923    1.388   .     A
C922   C381    1.416   1_556 S
C922   C368    1.404   1_556 S
C923   C924    1.391   .     A
C923   H942    1.085   .     S
C924   N952    1.430   .     S
C925   H944    1.077   .     S
C926   H929    1.083   .     S
Cu927  O953    1.987   .     S
Cu927  O959    1.920   .     S
Cu927  O955    1.940   .     S
Cu927  N949    2.018   .     S
Cu927  O957    1.977   .     S
Cu927  Cu928   2.686   .     S
Cu928  O958    1.987   .     S
Cu928  O956    1.920   .     S
Cu928  O960    1.940   .     S
Cu928  N948    2.018   .     S
Cu928  O954    1.977   .     S
H930   N950    1.046   .     S
H931   N1011   1.045   .     S
H932   N951    1.045   .     S
H933   N952    1.044   .     S
H934   N952    1.042   .     S
H938   C1038   1.082   1_455 S
H940   N1068   1.029   1_455 S
H941   N1009   1.029   .     S
H943   C1028   1.084   1_455 S
H946   C971    1.083   .     S
H947   N950    1.045   .     S
N948   H1000   1.029   .     S
N948   N1009   1.284   .     S
N949   N1068   1.284   1_455 S
N949   H1061   1.029   1_455 S
N950   C545    1.441   1_565 S
N951   H1051   1.045   1_455 S
C961   O1014   1.292   .     A
C961   O1013   1.289   .     A
C961   C963    1.443   .     S
C962   C964    1.490   .     S
C962   C980    1.428   .     A
C962   C970    1.411   .     A
C963   C605    1.355   1_565 S
C963   C614    1.492   1_565 S
C964   O1016   1.300   .     A
C964   O1015   1.304   .     A
C965   C966    1.430   .     S
C966   O1018   1.289   .     A
C966   O1017   1.286   .     A
C967   O1019   1.294   .     A
C967   O1020   1.300   .     A
C967   C969    1.463   .     S
C968   C986    1.392   .     A
C968   H1063   1.084   .     S
C969   C985    1.399   .     A
C969   C986    1.398   .     A
C970   N1011   1.437   .     S
C970   C971    1.395   .     A
C971   C433    1.388   1_556 S
C972   C980    1.423   .     A
C972   C433    1.415   1_556 S
C972   C441    1.425   1_556 S
C973   H1005   1.077   .     S
C974   C979    1.406   .     A
C974   C975    1.407   .     A
C975   C976    1.398   .     A
C975   H995    1.083   .     S
C976   H996    1.083   .     S
C976   C977    1.398   .     A
C977   C978    1.396   .     A
C977   H997    1.082   .     S
C978   C979    1.397   .     A
C978   H1058   1.082   .     S
C979   H999    1.082   .     S
C980   C984    1.427   .     A
C981   C985    1.405   .     A
C982   C983    1.388   .     A
C982   C441    1.416   1_556 S
C982   C428    1.404   1_556 S
C983   C984    1.391   .     A
C983   H1002   1.085   .     S
C984   N1012   1.430   .     S
C985   H1004   1.077   .     S
C986   H989    1.083   .     S
Cu987  O1013   1.987   .     S
Cu987  O1019   1.920   .     S
Cu987  O1015   1.940   .     S
Cu987  N1009   2.018   .     S
Cu987  O1017   1.977   .     S
Cu987  Cu988   2.686   .     S
Cu988  O1018   1.987   .     S
Cu988  O1016   1.920   .     S
Cu988  O1020   1.940   .     S
Cu988  N1008   2.018   .     S
Cu988  O1014   1.977   .     S
H990   N1010   1.046   .     S
H991   N1071   1.045   .     S
H992   N1011   1.045   .     S
H993   N1012   1.044   .     S
H994   N1012   1.042   .     S
H1001  N1069   1.029   .     S
H1006  C1031   1.083   .     S
H1007  N1010   1.045   .     S
N1008  H1060   1.029   .     S
N1008  N1069   1.284   .     S
N1010  C605    1.441   1_565 S
C1021  O1074   1.292   .     A
C1021  O1073   1.289   .     A
C1021  C1023   1.443   .     S
C1022  C1024   1.490   .     S
C1022  C1040   1.428   .     A
C1022  C1030   1.411   .     A
C1023  C665    1.355   1_565 S
C1023  C674    1.492   1_565 S
C1024  O1076   1.300   .     A
C1024  O1075   1.304   .     A
C1025  C1026   1.430   .     S
C1026  O1078   1.289   .     A
C1026  O1077   1.286   .     A
C1027  O1079   1.294   .     A
C1027  O1080   1.300   .     A
C1027  C1029   1.463   .     S
C1028  C1046   1.392   .     A
C1028  H943    1.084   1_655 S
C1029  C1045   1.399   .     A
C1029  C1046   1.398   .     A
C1030  N1071   1.437   .     S
C1030  C1031   1.395   .     A
C1031  C493    1.388   1_556 S
C1032  C1040   1.423   .     A
C1032  C493    1.415   1_556 S
C1032  C501    1.425   1_556 S
C1033  H1065   1.077   .     S
C1034  C1039   1.406   .     A
C1034  C1035   1.407   .     A
C1035  C1036   1.398   .     A
C1035  H1055   1.083   .     S
C1036  H1056   1.083   .     S
C1036  C1037   1.398   .     A
C1037  C1038   1.396   .     A
C1037  H1057   1.082   .     S
C1038  C1039   1.397   .     A
C1038  H938    1.082   1_655 S
C1039  H1059   1.082   .     S
C1040  C1044   1.427   .     A
C1041  C1045   1.405   .     A
C1042  C1043   1.388   .     A
C1042  C501    1.416   1_556 S
C1042  C488    1.404   1_556 S
C1043  C1044   1.391   .     A
C1043  H1062   1.085   .     S
C1044  N1072   1.430   .     S
C1045  H1064   1.077   .     S
C1046  H1049   1.083   .     S
Cu1047 O1073   1.987   .     S
Cu1047 O1079   1.920   .     S
Cu1047 O1075   1.940   .     S
Cu1047 N1069   2.018   .     S
Cu1047 O1077   1.977   .     S
Cu1047 Cu1048  2.686   .     S
Cu1048 O1078   1.987   .     S
Cu1048 O1076   1.920   .     S
Cu1048 O1080   1.940   .     S
Cu1048 N1068   2.018   .     S
Cu1048 O1074   1.977   .     S
H1050  N1070   1.046   .     S
H1051  N951    1.045   1_655 S
H1052  N1071   1.045   .     S
H1053  N1072   1.044   .     S
H1054  N1072   1.042   .     S
H1061  N949    1.029   1_655 S
H1066  C911    1.083   1_655 S
H1067  N1070   1.045   .     S
N1068  H940    1.029   1_655 S
N1068  N949    1.284   1_655 S
N1070  C665    1.441   1_565 S
