data_str_m2_o10_o16_pcu_sym.105
_audit_creation_date              2020-01-03
_audit_creation_method            'Materials Studio'
_symmetry_space_group_name_H-M    'P1'
_symmetry_Int_Tables_number       1
_symmetry_cell_setting            triclinic
loop_
_symmetry_equiv_pos_as_xyz
  x,y,z
_cell_length_a                    22.4996
_cell_length_b                    26.2037
_cell_length_c                    27.0662
_cell_angle_alpha                 95.6163
_cell_angle_beta                  78.5256
_cell_angle_gamma                 103.2595
loop_
_atom_site_label
_atom_site_type_symbol
_atom_site_fract_x
_atom_site_fract_y
_atom_site_fract_z
_atom_site_U_iso_or_equiv
_atom_site_adp_type
_atom_site_occupancy
C1     C     0.18163   0.26670   0.25203   0.00000  Uiso   1.00
C2     C     0.13869   0.16752   0.48688   0.00000  Uiso   1.00
C3     C     0.15514   0.18193   0.43615   0.00000  Uiso   1.00
C4     C     0.18487   0.18174   0.01851   0.00000  Uiso   1.00
C5     C     0.24651   0.20760   0.49802   0.00000  Uiso   1.00
C6     C     0.25899   0.22499   0.44919   0.00000  Uiso   1.00
C7     C     0.21272   0.21556   0.42062   0.00000  Uiso   1.00
C8     C     0.17215   0.17024   0.06946   0.00000  Uiso   1.00
C9     C     0.28102   0.19870   0.07620   0.00000  Uiso   1.00
C10    C     0.11362   0.16278   0.40206   0.00000  Uiso   1.00
C11    C     0.18916   0.32274   0.25509   0.00000  Uiso   1.00
C12    C     0.13375   0.16547   0.34686   0.00000  Uiso   1.00
C13    C     0.14498   0.01074   0.24477   0.00000  Uiso   1.00
C14    C     0.15183   0.06667   0.24800   0.00000  Uiso   1.00
C15    C     0.19993   0.17066   0.15321   0.00000  Uiso   1.00
C16    C     0.29463   0.21567   0.02657   0.00000  Uiso   1.00
C17    C     0.21890   0.17905   0.09860   0.00000  Uiso   1.00
C18    C     0.05345   0.13515   0.42008   0.00000  Uiso   1.00
C19    C     0.03436   0.12279   0.47020   0.00000  Uiso   1.00
C20    C     0.07724   0.13890   0.00341   0.00000  Uiso   1.00
Cu21   Cu    0.10710   0.16105   0.24436   0.00000  Uiso   1.00
Cu22   Cu    0.22623   0.17228   0.25565   0.00000  Uiso   1.00
H23    H     0.10386   0.32028   0.23270   0.00000  Uiso   1.00
H24    H     0.30435   0.24653   0.43251   0.00000  Uiso   1.00
H25    H     0.12558   0.15453   0.08772   0.00000  Uiso   1.00
H26    H     0.02082   0.12147   0.39461   0.00000  Uiso   1.00
H27    H     0.06100   0.13060   0.04189   0.00000  Uiso   1.00
H28    H     0.22237   0.23511   0.38609   0.00000  Uiso   1.00
H29    H     0.23102   0.01317   0.26657   0.00000  Uiso   1.00
N30    N     0.31574   0.18074   0.26416   0.00000  Uiso   1.00
N31    N     0.01759   0.15259   0.23584   0.00000  Uiso   1.00
O32    O     0.12797   0.23807   0.24633   0.00000  Uiso   1.00
O33    O     0.22858   0.24755   0.25587   0.00000  Uiso   1.00
O34    O     0.09181   0.15960   0.31840   0.00000  Uiso   1.00
O35    O     0.19242   0.16908   0.32793   0.00000  Uiso   1.00
O36    O     0.10476   0.08578   0.24414   0.00000  Uiso   1.00
O37    O     0.20536   0.09526   0.25367   0.00000  Uiso   1.00
O38    O     0.14092   0.16425   0.17207   0.00000  Uiso   1.00
O39    O     0.24152   0.17373   0.18161   0.00000  Uiso   1.00
O40    O     0.32850   0.19390   0.09988   0.00000  Uiso   1.00
C41    C     0.01882   0.24196   0.12452   0.00000  Uiso   1.00
H42    H     0.03223   0.23369   0.15969   0.00000  Uiso   1.00
H43    H     0.31830   0.26805   0.13557   0.00000  Uiso   1.00
H44    H     0.06184   0.26226   0.10052   0.00000  Uiso   1.00
O45    O     0.00436   0.20461   0.30513   0.00000  Uiso   1.00
C46    C     0.00333   0.25808   0.30520   0.00000  Uiso   1.00
H47    H     0.29120   0.26560   0.32405   0.00000  Uiso   1.00
H48    H     0.01390   0.27270   0.26654   0.00000  Uiso   1.00
H49    H     0.03875   0.28130   0.32653   0.00000  Uiso   1.00
O50    O     0.00013   0.13419   0.19156   0.00000  Uiso   1.00
C51    C     0.32572   0.07884   0.18803   0.00000  Uiso   1.00
H52    H     0.27569   0.06193   0.19021   0.00000  Uiso   1.00
H53    H     0.00602   0.06193   0.21907   0.00000  Uiso   1.00
C54    C     0.02285   0.05997   0.13590   0.00000  Uiso   1.00
H55    H     0.32276   0.02734   0.12053   0.00000  Uiso   1.00
H56    H     0.03388   0.09209   0.11025   0.00000  Uiso   1.00
C57    C     0.08133   0.04022   0.13584   0.00000  Uiso   1.00
H58    H     0.11870   0.07188   0.14667   0.00000  Uiso   1.00
H59    H     0.09813   0.02517   0.09712   0.00000  Uiso   1.00
H60    H     0.07128   0.00813   0.16198   0.00000  Uiso   1.00
O61    O     0.02279   0.23217   0.00376   0.00000  Uiso   1.00
C62    C     0.04068   0.28737   0.00862   0.00000  Uiso   1.00
H63    H     0.09216   0.29857   0.00235   0.00000  Uiso   1.00
H64    H     0.02312   0.30378   0.04664   0.00000  Uiso   1.00
H65    H     0.02541   0.30582   0.47956   0.00000  Uiso   1.00
O66    O     0.30532   0.09843   0.48442   0.00000  Uiso   1.00
C67    C     0.29299   0.06787   0.02686   0.00000  Uiso   1.00
H68    H     0.28765   0.09346   0.06189   0.00000  Uiso   1.00
H69    H     0.33042   0.04664   0.02653   0.00000  Uiso   1.00
C70    C     0.23205   0.02757   0.02618   0.00000  Uiso   1.00
H71    H     0.19423   0.04834   0.02584   0.00000  Uiso   1.00
H72    H     0.23671   0.00153   0.49128   0.00000  Uiso   1.00
C73    C     0.21452   0.32733   0.07203   0.00000  Uiso   1.00
H74    H     0.25085   0.30543   0.07288   0.00000  Uiso   1.00
H75    H     0.17057   0.29829   0.06984   0.00000  Uiso   1.00
H76    H     0.20831   0.01898   0.10747   0.00000  Uiso   1.00
C77    C     0.51496   0.26670   0.25203   0.00000  Uiso   1.00
C78    C     0.47202   0.16752   0.48688   0.00000  Uiso   1.00
C79    C     0.48848   0.18193   0.43615   0.00000  Uiso   1.00
C80    C     0.51821   0.18174   0.01851   0.00000  Uiso   1.00
C81    C     0.57985   0.20760   0.49802   0.00000  Uiso   1.00
C82    C     0.59233   0.22499   0.44919   0.00000  Uiso   1.00
C83    C     0.54605   0.21556   0.42062   0.00000  Uiso   1.00
C84    C     0.50548   0.17024   0.06946   0.00000  Uiso   1.00
C85    C     0.61436   0.19870   0.07620   0.00000  Uiso   1.00
C86    C     0.44696   0.16278   0.40206   0.00000  Uiso   1.00
C87    C     0.52250   0.32274   0.25509   0.00000  Uiso   1.00
C88    C     0.46708   0.16547   0.34686   0.00000  Uiso   1.00
C89    C     0.47831   0.01074   0.24477   0.00000  Uiso   1.00
C90    C     0.48516   0.06667   0.24800   0.00000  Uiso   1.00
C91    C     0.53326   0.17066   0.15321   0.00000  Uiso   1.00
C92    C     0.62796   0.21567   0.02657   0.00000  Uiso   1.00
C93    C     0.55223   0.17905   0.09860   0.00000  Uiso   1.00
C94    C     0.38678   0.13515   0.42008   0.00000  Uiso   1.00
C95    C     0.36769   0.12279   0.47020   0.00000  Uiso   1.00
C96    C     0.41058   0.13890   0.00341   0.00000  Uiso   1.00
Cu97   Cu    0.44043   0.16105   0.24436   0.00000  Uiso   1.00
Cu98   Cu    0.55957   0.17228   0.25565   0.00000  Uiso   1.00
H99    H     0.43719   0.32028   0.23270   0.00000  Uiso   1.00
H100   H     0.63769   0.24653   0.43251   0.00000  Uiso   1.00
H101   H     0.45891   0.15453   0.08772   0.00000  Uiso   1.00
H102   H     0.35416   0.12147   0.39461   0.00000  Uiso   1.00
H103   H     0.39433   0.13060   0.04189   0.00000  Uiso   1.00
H104   H     0.55570   0.23511   0.38609   0.00000  Uiso   1.00
H105   H     0.56436   0.01317   0.26657   0.00000  Uiso   1.00
N106   N     0.64908   0.18074   0.26416   0.00000  Uiso   1.00
N107   N     0.35092   0.15259   0.23584   0.00000  Uiso   1.00
O108   O     0.46131   0.23807   0.24633   0.00000  Uiso   1.00
O109   O     0.56191   0.24755   0.25587   0.00000  Uiso   1.00
O110   O     0.42515   0.15960   0.31840   0.00000  Uiso   1.00
O111   O     0.52575   0.16908   0.32793   0.00000  Uiso   1.00
O112   O     0.43809   0.08578   0.24414   0.00000  Uiso   1.00
O113   O     0.53869   0.09526   0.25367   0.00000  Uiso   1.00
O114   O     0.47425   0.16425   0.17207   0.00000  Uiso   1.00
O115   O     0.57485   0.17373   0.18161   0.00000  Uiso   1.00
O116   O     0.66183   0.19390   0.09988   0.00000  Uiso   1.00
C117   C     0.35215   0.24196   0.12452   0.00000  Uiso   1.00
H118   H     0.36557   0.23369   0.15969   0.00000  Uiso   1.00
H119   H     0.65163   0.26805   0.13557   0.00000  Uiso   1.00
H120   H     0.39517   0.26226   0.10052   0.00000  Uiso   1.00
O121   O     0.33770   0.20461   0.30513   0.00000  Uiso   1.00
C122   C     0.33666   0.25808   0.30520   0.00000  Uiso   1.00
H123   H     0.62453   0.26560   0.32405   0.00000  Uiso   1.00
H124   H     0.34724   0.27270   0.26654   0.00000  Uiso   1.00
H125   H     0.37208   0.28130   0.32653   0.00000  Uiso   1.00
O126   O     0.33346   0.13419   0.19156   0.00000  Uiso   1.00
C127   C     0.65905   0.07884   0.18803   0.00000  Uiso   1.00
H128   H     0.60902   0.06193   0.19021   0.00000  Uiso   1.00
H129   H     0.33935   0.06193   0.21907   0.00000  Uiso   1.00
C130   C     0.35618   0.05997   0.13590   0.00000  Uiso   1.00
H131   H     0.65609   0.02734   0.12053   0.00000  Uiso   1.00
H132   H     0.36721   0.09209   0.11025   0.00000  Uiso   1.00
C133   C     0.41466   0.04022   0.13584   0.00000  Uiso   1.00
H134   H     0.45204   0.07188   0.14667   0.00000  Uiso   1.00
H135   H     0.43146   0.02517   0.09712   0.00000  Uiso   1.00
H136   H     0.40461   0.00813   0.16198   0.00000  Uiso   1.00
O137   O     0.35612   0.23217   0.00376   0.00000  Uiso   1.00
C138   C     0.37401   0.28737   0.00862   0.00000  Uiso   1.00
H139   H     0.42549   0.29857   0.00235   0.00000  Uiso   1.00
H140   H     0.35646   0.30378   0.04664   0.00000  Uiso   1.00
H141   H     0.35874   0.30582   0.47956   0.00000  Uiso   1.00
O142   O     0.63865   0.09843   0.48442   0.00000  Uiso   1.00
C143   C     0.62632   0.06787   0.02686   0.00000  Uiso   1.00
H144   H     0.62098   0.09346   0.06189   0.00000  Uiso   1.00
H145   H     0.66375   0.04664   0.02653   0.00000  Uiso   1.00
C146   C     0.56538   0.02757   0.02618   0.00000  Uiso   1.00
H147   H     0.52756   0.04834   0.02584   0.00000  Uiso   1.00
H148   H     0.57004   0.00153   0.49128   0.00000  Uiso   1.00
C149   C     0.54786   0.32733   0.07203   0.00000  Uiso   1.00
H150   H     0.58419   0.30543   0.07288   0.00000  Uiso   1.00
H151   H     0.50390   0.29829   0.06984   0.00000  Uiso   1.00
H152   H     0.54164   0.01898   0.10747   0.00000  Uiso   1.00
C153   C     0.84830   0.26670   0.25203   0.00000  Uiso   1.00
C154   C     0.80535   0.16752   0.48688   0.00000  Uiso   1.00
C155   C     0.82181   0.18193   0.43615   0.00000  Uiso   1.00
C156   C     0.85154   0.18174   0.01851   0.00000  Uiso   1.00
C157   C     0.91318   0.20760   0.49802   0.00000  Uiso   1.00
C158   C     0.92566   0.22499   0.44919   0.00000  Uiso   1.00
C159   C     0.87938   0.21556   0.42062   0.00000  Uiso   1.00
C160   C     0.83881   0.17024   0.06946   0.00000  Uiso   1.00
C161   C     0.94769   0.19870   0.07620   0.00000  Uiso   1.00
C162   C     0.78029   0.16278   0.40206   0.00000  Uiso   1.00
C163   C     0.85583   0.32274   0.25509   0.00000  Uiso   1.00
C164   C     0.80042   0.16547   0.34686   0.00000  Uiso   1.00
C165   C     0.81164   0.01074   0.24477   0.00000  Uiso   1.00
C166   C     0.81849   0.06667   0.24800   0.00000  Uiso   1.00
C167   C     0.86660   0.17066   0.15321   0.00000  Uiso   1.00
C168   C     0.96129   0.21567   0.02657   0.00000  Uiso   1.00
C169   C     0.88556   0.17905   0.09860   0.00000  Uiso   1.00
C170   C     0.72012   0.13515   0.42008   0.00000  Uiso   1.00
C171   C     0.70103   0.12279   0.47020   0.00000  Uiso   1.00
C172   C     0.74391   0.13890   0.00341   0.00000  Uiso   1.00
Cu173  Cu    0.77377   0.16105   0.24436   0.00000  Uiso   1.00
Cu174  Cu    0.89290   0.17228   0.25565   0.00000  Uiso   1.00
H175   H     0.77053   0.32028   0.23270   0.00000  Uiso   1.00
H176   H     0.97102   0.24653   0.43251   0.00000  Uiso   1.00
H177   H     0.79224   0.15453   0.08772   0.00000  Uiso   1.00
H178   H     0.68749   0.12147   0.39461   0.00000  Uiso   1.00
H179   H     0.72766   0.13060   0.04189   0.00000  Uiso   1.00
H180   H     0.88903   0.23511   0.38609   0.00000  Uiso   1.00
H181   H     0.89769   0.01317   0.26657   0.00000  Uiso   1.00
N182   N     0.98241   0.18074   0.26416   0.00000  Uiso   1.00
N183   N     0.68426   0.15259   0.23584   0.00000  Uiso   1.00
O184   O     0.79464   0.23807   0.24633   0.00000  Uiso   1.00
O185   O     0.89524   0.24755   0.25587   0.00000  Uiso   1.00
O186   O     0.75848   0.15960   0.31840   0.00000  Uiso   1.00
O187   O     0.85908   0.16908   0.32793   0.00000  Uiso   1.00
O188   O     0.77142   0.08578   0.24414   0.00000  Uiso   1.00
O189   O     0.87203   0.09526   0.25367   0.00000  Uiso   1.00
O190   O     0.80758   0.16425   0.17207   0.00000  Uiso   1.00
O191   O     0.90819   0.17373   0.18161   0.00000  Uiso   1.00
O192   O     0.99516   0.19390   0.09988   0.00000  Uiso   1.00
C193   C     0.68548   0.24196   0.12452   0.00000  Uiso   1.00
H194   H     0.69890   0.23369   0.15969   0.00000  Uiso   1.00
H195   H     0.98496   0.26805   0.13557   0.00000  Uiso   1.00
H196   H     0.72850   0.26226   0.10052   0.00000  Uiso   1.00
O197   O     0.67103   0.20461   0.30513   0.00000  Uiso   1.00
C198   C     0.66999   0.25808   0.30520   0.00000  Uiso   1.00
H199   H     0.95787   0.26560   0.32405   0.00000  Uiso   1.00
H200   H     0.68057   0.27270   0.26654   0.00000  Uiso   1.00
H201   H     0.70542   0.28130   0.32653   0.00000  Uiso   1.00
O202   O     0.66680   0.13419   0.19156   0.00000  Uiso   1.00
C203   C     0.99238   0.07884   0.18803   0.00000  Uiso   1.00
H204   H     0.94236   0.06193   0.19021   0.00000  Uiso   1.00
H205   H     0.67269   0.06193   0.21907   0.00000  Uiso   1.00
C206   C     0.68952   0.05997   0.13590   0.00000  Uiso   1.00
H207   H     0.98942   0.02734   0.12053   0.00000  Uiso   1.00
H208   H     0.70054   0.09209   0.11025   0.00000  Uiso   1.00
C209   C     0.74800   0.04022   0.13584   0.00000  Uiso   1.00
H210   H     0.78537   0.07188   0.14667   0.00000  Uiso   1.00
H211   H     0.76480   0.02517   0.09712   0.00000  Uiso   1.00
H212   H     0.73794   0.00813   0.16198   0.00000  Uiso   1.00
O213   O     0.68945   0.23217   0.00376   0.00000  Uiso   1.00
C214   C     0.70734   0.28737   0.00862   0.00000  Uiso   1.00
H215   H     0.75882   0.29857   0.00235   0.00000  Uiso   1.00
H216   H     0.68979   0.30378   0.04664   0.00000  Uiso   1.00
H217   H     0.69208   0.30582   0.47956   0.00000  Uiso   1.00
O218   O     0.97198   0.09843   0.48442   0.00000  Uiso   1.00
C219   C     0.95966   0.06787   0.02686   0.00000  Uiso   1.00
H220   H     0.95431   0.09346   0.06189   0.00000  Uiso   1.00
H221   H     0.99709   0.04664   0.02653   0.00000  Uiso   1.00
C222   C     0.89872   0.02757   0.02618   0.00000  Uiso   1.00
H223   H     0.86089   0.04834   0.02584   0.00000  Uiso   1.00
H224   H     0.90338   0.00153   0.49128   0.00000  Uiso   1.00
C225   C     0.88119   0.32733   0.07203   0.00000  Uiso   1.00
H226   H     0.91752   0.30543   0.07288   0.00000  Uiso   1.00
H227   H     0.83724   0.29829   0.06984   0.00000  Uiso   1.00
H228   H     0.87497   0.01898   0.10747   0.00000  Uiso   1.00
C229   C     0.18163   0.60003   0.25203   0.00000  Uiso   1.00
C230   C     0.13869   0.50086   0.48688   0.00000  Uiso   1.00
C231   C     0.15514   0.51527   0.43615   0.00000  Uiso   1.00
C232   C     0.18487   0.51508   0.01851   0.00000  Uiso   1.00
C233   C     0.24651   0.54093   0.49802   0.00000  Uiso   1.00
C234   C     0.25899   0.55832   0.44919   0.00000  Uiso   1.00
C235   C     0.21272   0.54890   0.42062   0.00000  Uiso   1.00
C236   C     0.17215   0.50358   0.06946   0.00000  Uiso   1.00
C237   C     0.28102   0.53203   0.07620   0.00000  Uiso   1.00
C238   C     0.11362   0.49612   0.40206   0.00000  Uiso   1.00
C239   C     0.18916   0.65607   0.25509   0.00000  Uiso   1.00
C240   C     0.13375   0.49880   0.34686   0.00000  Uiso   1.00
C241   C     0.14498   0.34407   0.24477   0.00000  Uiso   1.00
C242   C     0.15183   0.40000   0.24800   0.00000  Uiso   1.00
C243   C     0.19993   0.50399   0.15321   0.00000  Uiso   1.00
C244   C     0.29463   0.54900   0.02657   0.00000  Uiso   1.00
C245   C     0.21890   0.51238   0.09860   0.00000  Uiso   1.00
C246   C     0.05345   0.46848   0.42008   0.00000  Uiso   1.00
C247   C     0.03436   0.45612   0.47020   0.00000  Uiso   1.00
C248   C     0.07724   0.47224   0.00341   0.00000  Uiso   1.00
Cu249  Cu    0.10710   0.49439   0.24436   0.00000  Uiso   1.00
Cu250  Cu    0.22623   0.50561   0.25565   0.00000  Uiso   1.00
H251   H     0.10386   0.65361   0.23270   0.00000  Uiso   1.00
H252   H     0.30435   0.57986   0.43251   0.00000  Uiso   1.00
H253   H     0.12558   0.48786   0.08772   0.00000  Uiso   1.00
H254   H     0.02082   0.45480   0.39461   0.00000  Uiso   1.00
H255   H     0.06100   0.46393   0.04189   0.00000  Uiso   1.00
H256   H     0.22237   0.56844   0.38609   0.00000  Uiso   1.00
H257   H     0.23102   0.34650   0.26657   0.00000  Uiso   1.00
N258   N     0.31574   0.51407   0.26416   0.00000  Uiso   1.00
N259   N     0.01759   0.48593   0.23584   0.00000  Uiso   1.00
O260   O     0.12797   0.57141   0.24633   0.00000  Uiso   1.00
O261   O     0.22858   0.58089   0.25587   0.00000  Uiso   1.00
O262   O     0.09181   0.49293   0.31840   0.00000  Uiso   1.00
O263   O     0.19242   0.50241   0.32793   0.00000  Uiso   1.00
O264   O     0.10476   0.41911   0.24414   0.00000  Uiso   1.00
O265   O     0.20536   0.42859   0.25367   0.00000  Uiso   1.00
O266   O     0.14092   0.49759   0.17207   0.00000  Uiso   1.00
O267   O     0.24152   0.50707   0.18161   0.00000  Uiso   1.00
O268   O     0.32850   0.52723   0.09988   0.00000  Uiso   1.00
C269   C     0.01882   0.57530   0.12452   0.00000  Uiso   1.00
H270   H     0.03223   0.56702   0.15969   0.00000  Uiso   1.00
H271   H     0.31830   0.60138   0.13557   0.00000  Uiso   1.00
H272   H     0.06184   0.59559   0.10052   0.00000  Uiso   1.00
O273   O     0.00436   0.53795   0.30513   0.00000  Uiso   1.00
C274   C     0.00333   0.59142   0.30520   0.00000  Uiso   1.00
H275   H     0.29120   0.59893   0.32405   0.00000  Uiso   1.00
H276   H     0.01390   0.60603   0.26654   0.00000  Uiso   1.00
H277   H     0.03875   0.61463   0.32653   0.00000  Uiso   1.00
O278   O     0.00013   0.46753   0.19156   0.00000  Uiso   1.00
C279   C     0.32572   0.41218   0.18803   0.00000  Uiso   1.00
H280   H     0.27569   0.39526   0.19021   0.00000  Uiso   1.00
H281   H     0.00602   0.39527   0.21907   0.00000  Uiso   1.00
C282   C     0.02285   0.39330   0.13590   0.00000  Uiso   1.00
H283   H     0.32276   0.36068   0.12053   0.00000  Uiso   1.00
H284   H     0.03388   0.42542   0.11025   0.00000  Uiso   1.00
C285   C     0.08133   0.37356   0.13584   0.00000  Uiso   1.00
H286   H     0.11870   0.40521   0.14667   0.00000  Uiso   1.00
H287   H     0.09813   0.35851   0.09712   0.00000  Uiso   1.00
H288   H     0.07128   0.34146   0.16198   0.00000  Uiso   1.00
O289   O     0.02279   0.56551   0.00376   0.00000  Uiso   1.00
C290   C     0.04068   0.62070   0.00862   0.00000  Uiso   1.00
H291   H     0.09216   0.63190   0.00235   0.00000  Uiso   1.00
H292   H     0.02312   0.63711   0.04664   0.00000  Uiso   1.00
H293   H     0.02541   0.63915   0.47956   0.00000  Uiso   1.00
O294   O     0.30532   0.43176   0.48442   0.00000  Uiso   1.00
C295   C     0.29299   0.40120   0.02686   0.00000  Uiso   1.00
H296   H     0.28765   0.42679   0.06189   0.00000  Uiso   1.00
H297   H     0.33042   0.37997   0.02653   0.00000  Uiso   1.00
C298   C     0.23205   0.36090   0.02618   0.00000  Uiso   1.00
H299   H     0.19423   0.38167   0.02584   0.00000  Uiso   1.00
H300   H     0.23671   0.33486   0.49128   0.00000  Uiso   1.00
C301   C     0.21452   0.66066   0.07203   0.00000  Uiso   1.00
H302   H     0.25085   0.63876   0.07288   0.00000  Uiso   1.00
H303   H     0.17057   0.63162   0.06984   0.00000  Uiso   1.00
H304   H     0.20831   0.35231   0.10747   0.00000  Uiso   1.00
C305   C     0.51496   0.60003   0.25203   0.00000  Uiso   1.00
C306   C     0.47202   0.50086   0.48688   0.00000  Uiso   1.00
C307   C     0.48848   0.51527   0.43615   0.00000  Uiso   1.00
C308   C     0.51821   0.51508   0.01851   0.00000  Uiso   1.00
C309   C     0.57985   0.54093   0.49802   0.00000  Uiso   1.00
C310   C     0.59233   0.55832   0.44919   0.00000  Uiso   1.00
C311   C     0.54605   0.54890   0.42062   0.00000  Uiso   1.00
C312   C     0.50548   0.50358   0.06946   0.00000  Uiso   1.00
C313   C     0.61436   0.53203   0.07620   0.00000  Uiso   1.00
C314   C     0.44696   0.49612   0.40206   0.00000  Uiso   1.00
C315   C     0.52250   0.65607   0.25509   0.00000  Uiso   1.00
C316   C     0.46708   0.49880   0.34686   0.00000  Uiso   1.00
C317   C     0.47831   0.34407   0.24477   0.00000  Uiso   1.00
C318   C     0.48516   0.40000   0.24800   0.00000  Uiso   1.00
C319   C     0.53326   0.50399   0.15321   0.00000  Uiso   1.00
C320   C     0.62796   0.54900   0.02657   0.00000  Uiso   1.00
C321   C     0.55223   0.51238   0.09860   0.00000  Uiso   1.00
C322   C     0.38678   0.46848   0.42008   0.00000  Uiso   1.00
C323   C     0.36769   0.45612   0.47020   0.00000  Uiso   1.00
C324   C     0.41058   0.47224   0.00341   0.00000  Uiso   1.00
Cu325  Cu    0.44043   0.49439   0.24436   0.00000  Uiso   1.00
Cu326  Cu    0.55957   0.50561   0.25565   0.00000  Uiso   1.00
H327   H     0.43719   0.65361   0.23270   0.00000  Uiso   1.00
H328   H     0.63769   0.57986   0.43251   0.00000  Uiso   1.00
H329   H     0.45891   0.48786   0.08772   0.00000  Uiso   1.00
H330   H     0.35416   0.45480   0.39461   0.00000  Uiso   1.00
H331   H     0.39433   0.46393   0.04189   0.00000  Uiso   1.00
H332   H     0.55570   0.56844   0.38609   0.00000  Uiso   1.00
H333   H     0.56436   0.34650   0.26657   0.00000  Uiso   1.00
N334   N     0.64908   0.51407   0.26416   0.00000  Uiso   1.00
N335   N     0.35092   0.48593   0.23584   0.00000  Uiso   1.00
O336   O     0.46131   0.57141   0.24633   0.00000  Uiso   1.00
O337   O     0.56191   0.58089   0.25587   0.00000  Uiso   1.00
O338   O     0.42515   0.49293   0.31840   0.00000  Uiso   1.00
O339   O     0.52575   0.50241   0.32793   0.00000  Uiso   1.00
O340   O     0.43809   0.41911   0.24414   0.00000  Uiso   1.00
O341   O     0.53869   0.42859   0.25367   0.00000  Uiso   1.00
O342   O     0.47425   0.49759   0.17207   0.00000  Uiso   1.00
O343   O     0.57485   0.50707   0.18161   0.00000  Uiso   1.00
O344   O     0.66183   0.52723   0.09988   0.00000  Uiso   1.00
C345   C     0.35215   0.57530   0.12452   0.00000  Uiso   1.00
H346   H     0.36557   0.56702   0.15969   0.00000  Uiso   1.00
H347   H     0.65163   0.60138   0.13557   0.00000  Uiso   1.00
H348   H     0.39517   0.59559   0.10052   0.00000  Uiso   1.00
O349   O     0.33770   0.53795   0.30513   0.00000  Uiso   1.00
C350   C     0.33666   0.59142   0.30520   0.00000  Uiso   1.00
H351   H     0.62453   0.59893   0.32405   0.00000  Uiso   1.00
H352   H     0.34724   0.60603   0.26654   0.00000  Uiso   1.00
H353   H     0.37208   0.61463   0.32653   0.00000  Uiso   1.00
O354   O     0.33346   0.46753   0.19156   0.00000  Uiso   1.00
C355   C     0.65905   0.41218   0.18803   0.00000  Uiso   1.00
H356   H     0.60902   0.39526   0.19021   0.00000  Uiso   1.00
H357   H     0.33935   0.39527   0.21907   0.00000  Uiso   1.00
C358   C     0.35618   0.39330   0.13590   0.00000  Uiso   1.00
H359   H     0.65609   0.36068   0.12053   0.00000  Uiso   1.00
H360   H     0.36721   0.42542   0.11025   0.00000  Uiso   1.00
C361   C     0.41466   0.37356   0.13584   0.00000  Uiso   1.00
H362   H     0.45204   0.40521   0.14667   0.00000  Uiso   1.00
H363   H     0.43146   0.35851   0.09712   0.00000  Uiso   1.00
H364   H     0.40461   0.34146   0.16198   0.00000  Uiso   1.00
O365   O     0.35612   0.56551   0.00376   0.00000  Uiso   1.00
C366   C     0.37401   0.62070   0.00862   0.00000  Uiso   1.00
H367   H     0.42549   0.63190   0.00235   0.00000  Uiso   1.00
H368   H     0.35646   0.63711   0.04664   0.00000  Uiso   1.00
H369   H     0.35874   0.63915   0.47956   0.00000  Uiso   1.00
O370   O     0.63865   0.43176   0.48442   0.00000  Uiso   1.00
C371   C     0.62632   0.40120   0.02686   0.00000  Uiso   1.00
H372   H     0.62098   0.42679   0.06189   0.00000  Uiso   1.00
H373   H     0.66375   0.37997   0.02653   0.00000  Uiso   1.00
C374   C     0.56538   0.36090   0.02618   0.00000  Uiso   1.00
H375   H     0.52756   0.38167   0.02584   0.00000  Uiso   1.00
H376   H     0.57004   0.33486   0.49128   0.00000  Uiso   1.00
C377   C     0.54786   0.66066   0.07203   0.00000  Uiso   1.00
H378   H     0.58419   0.63876   0.07288   0.00000  Uiso   1.00
H379   H     0.50390   0.63162   0.06984   0.00000  Uiso   1.00
H380   H     0.54164   0.35231   0.10747   0.00000  Uiso   1.00
C381   C     0.84830   0.60003   0.25203   0.00000  Uiso   1.00
C382   C     0.80535   0.50086   0.48688   0.00000  Uiso   1.00
C383   C     0.82181   0.51527   0.43615   0.00000  Uiso   1.00
C384   C     0.85154   0.51508   0.01851   0.00000  Uiso   1.00
C385   C     0.91318   0.54093   0.49802   0.00000  Uiso   1.00
C386   C     0.92566   0.55832   0.44919   0.00000  Uiso   1.00
C387   C     0.87938   0.54890   0.42062   0.00000  Uiso   1.00
C388   C     0.83881   0.50358   0.06946   0.00000  Uiso   1.00
C389   C     0.94769   0.53203   0.07620   0.00000  Uiso   1.00
C390   C     0.78029   0.49612   0.40206   0.00000  Uiso   1.00
C391   C     0.85583   0.65607   0.25509   0.00000  Uiso   1.00
C392   C     0.80042   0.49880   0.34686   0.00000  Uiso   1.00
C393   C     0.81164   0.34407   0.24477   0.00000  Uiso   1.00
C394   C     0.81849   0.40000   0.24800   0.00000  Uiso   1.00
C395   C     0.86660   0.50399   0.15321   0.00000  Uiso   1.00
C396   C     0.96129   0.54900   0.02657   0.00000  Uiso   1.00
C397   C     0.88556   0.51238   0.09860   0.00000  Uiso   1.00
C398   C     0.72012   0.46848   0.42008   0.00000  Uiso   1.00
C399   C     0.70103   0.45612   0.47020   0.00000  Uiso   1.00
C400   C     0.74391   0.47224   0.00341   0.00000  Uiso   1.00
Cu401  Cu    0.77377   0.49439   0.24436   0.00000  Uiso   1.00
Cu402  Cu    0.89290   0.50561   0.25565   0.00000  Uiso   1.00
H403   H     0.77053   0.65361   0.23270   0.00000  Uiso   1.00
H404   H     0.97102   0.57986   0.43251   0.00000  Uiso   1.00
H405   H     0.79224   0.48786   0.08772   0.00000  Uiso   1.00
H406   H     0.68749   0.45480   0.39461   0.00000  Uiso   1.00
H407   H     0.72766   0.46393   0.04189   0.00000  Uiso   1.00
H408   H     0.88903   0.56844   0.38609   0.00000  Uiso   1.00
H409   H     0.89769   0.34650   0.26657   0.00000  Uiso   1.00
N410   N     0.98241   0.51407   0.26416   0.00000  Uiso   1.00
N411   N     0.68426   0.48593   0.23584   0.00000  Uiso   1.00
O412   O     0.79464   0.57141   0.24633   0.00000  Uiso   1.00
O413   O     0.89524   0.58089   0.25587   0.00000  Uiso   1.00
O414   O     0.75848   0.49293   0.31840   0.00000  Uiso   1.00
O415   O     0.85908   0.50241   0.32793   0.00000  Uiso   1.00
O416   O     0.77142   0.41911   0.24414   0.00000  Uiso   1.00
O417   O     0.87203   0.42859   0.25367   0.00000  Uiso   1.00
O418   O     0.80758   0.49759   0.17207   0.00000  Uiso   1.00
O419   O     0.90819   0.50707   0.18161   0.00000  Uiso   1.00
O420   O     0.99516   0.52723   0.09988   0.00000  Uiso   1.00
C421   C     0.68548   0.57530   0.12452   0.00000  Uiso   1.00
H422   H     0.69890   0.56702   0.15969   0.00000  Uiso   1.00
H423   H     0.98496   0.60138   0.13557   0.00000  Uiso   1.00
H424   H     0.72850   0.59559   0.10052   0.00000  Uiso   1.00
O425   O     0.67103   0.53795   0.30513   0.00000  Uiso   1.00
C426   C     0.66999   0.59142   0.30520   0.00000  Uiso   1.00
H427   H     0.95787   0.59893   0.32405   0.00000  Uiso   1.00
H428   H     0.68057   0.60603   0.26654   0.00000  Uiso   1.00
H429   H     0.70542   0.61463   0.32653   0.00000  Uiso   1.00
O430   O     0.66680   0.46753   0.19156   0.00000  Uiso   1.00
C431   C     0.99238   0.41218   0.18803   0.00000  Uiso   1.00
H432   H     0.94236   0.39526   0.19021   0.00000  Uiso   1.00
H433   H     0.67269   0.39527   0.21907   0.00000  Uiso   1.00
C434   C     0.68952   0.39330   0.13590   0.00000  Uiso   1.00
H435   H     0.98942   0.36068   0.12053   0.00000  Uiso   1.00
H436   H     0.70054   0.42542   0.11025   0.00000  Uiso   1.00
C437   C     0.74800   0.37356   0.13584   0.00000  Uiso   1.00
H438   H     0.78537   0.40521   0.14667   0.00000  Uiso   1.00
H439   H     0.76480   0.35851   0.09712   0.00000  Uiso   1.00
H440   H     0.73794   0.34146   0.16198   0.00000  Uiso   1.00
O441   O     0.68945   0.56551   0.00376   0.00000  Uiso   1.00
C442   C     0.70734   0.62070   0.00862   0.00000  Uiso   1.00
H443   H     0.75882   0.63190   0.00235   0.00000  Uiso   1.00
H444   H     0.68979   0.63711   0.04664   0.00000  Uiso   1.00
H445   H     0.69208   0.63915   0.47956   0.00000  Uiso   1.00
O446   O     0.97198   0.43176   0.48442   0.00000  Uiso   1.00
C447   C     0.95966   0.40120   0.02686   0.00000  Uiso   1.00
H448   H     0.95431   0.42679   0.06189   0.00000  Uiso   1.00
H449   H     0.99709   0.37997   0.02653   0.00000  Uiso   1.00
C450   C     0.89872   0.36090   0.02618   0.00000  Uiso   1.00
H451   H     0.86089   0.38167   0.02584   0.00000  Uiso   1.00
H452   H     0.90338   0.33486   0.49128   0.00000  Uiso   1.00
C453   C     0.88119   0.66066   0.07203   0.00000  Uiso   1.00
H454   H     0.91752   0.63876   0.07288   0.00000  Uiso   1.00
H455   H     0.83724   0.63162   0.06984   0.00000  Uiso   1.00
H456   H     0.87497   0.35231   0.10747   0.00000  Uiso   1.00
C457   C     0.18163   0.93337   0.25203   0.00000  Uiso   1.00
C458   C     0.13869   0.83419   0.48688   0.00000  Uiso   1.00
C459   C     0.15514   0.84860   0.43615   0.00000  Uiso   1.00
C460   C     0.18487   0.84841   0.01851   0.00000  Uiso   1.00
C461   C     0.24651   0.87427   0.49802   0.00000  Uiso   1.00
C462   C     0.25899   0.89166   0.44919   0.00000  Uiso   1.00
C463   C     0.21272   0.88223   0.42062   0.00000  Uiso   1.00
C464   C     0.17215   0.83691   0.06946   0.00000  Uiso   1.00
C465   C     0.28102   0.86537   0.07620   0.00000  Uiso   1.00
C466   C     0.11362   0.82945   0.40206   0.00000  Uiso   1.00
C467   C     0.18916   0.98940   0.25509   0.00000  Uiso   1.00
C468   C     0.13375   0.83213   0.34686   0.00000  Uiso   1.00
C469   C     0.14498   0.67741   0.24477   0.00000  Uiso   1.00
C470   C     0.15183   0.73334   0.24800   0.00000  Uiso   1.00
C471   C     0.19993   0.83732   0.15321   0.00000  Uiso   1.00
C472   C     0.29463   0.88234   0.02657   0.00000  Uiso   1.00
C473   C     0.21890   0.84572   0.09860   0.00000  Uiso   1.00
C474   C     0.05345   0.80182   0.42008   0.00000  Uiso   1.00
C475   C     0.03436   0.78946   0.47020   0.00000  Uiso   1.00
C476   C     0.07724   0.80557   0.00341   0.00000  Uiso   1.00
Cu477  Cu    0.10710   0.82772   0.24436   0.00000  Uiso   1.00
Cu478  Cu    0.22623   0.83895   0.25565   0.00000  Uiso   1.00
H479   H     0.10386   0.98694   0.23270   0.00000  Uiso   1.00
H480   H     0.30435   0.91319   0.43251   0.00000  Uiso   1.00
H481   H     0.12558   0.82119   0.08772   0.00000  Uiso   1.00
H482   H     0.02082   0.78813   0.39461   0.00000  Uiso   1.00
H483   H     0.06100   0.79727   0.04189   0.00000  Uiso   1.00
H484   H     0.22237   0.90177   0.38609   0.00000  Uiso   1.00
H485   H     0.23102   0.67984   0.26657   0.00000  Uiso   1.00
N486   N     0.31574   0.84741   0.26416   0.00000  Uiso   1.00
N487   N     0.01759   0.81926   0.23584   0.00000  Uiso   1.00
O488   O     0.12797   0.90474   0.24633   0.00000  Uiso   1.00
O489   O     0.22858   0.91422   0.25587   0.00000  Uiso   1.00
O490   O     0.09181   0.82627   0.31840   0.00000  Uiso   1.00
O491   O     0.19242   0.83575   0.32793   0.00000  Uiso   1.00
O492   O     0.10476   0.75245   0.24414   0.00000  Uiso   1.00
O493   O     0.20536   0.76193   0.25367   0.00000  Uiso   1.00
O494   O     0.14092   0.83092   0.17207   0.00000  Uiso   1.00
O495   O     0.24152   0.84040   0.18161   0.00000  Uiso   1.00
O496   O     0.32850   0.86057   0.09988   0.00000  Uiso   1.00
C497   C     0.01882   0.90863   0.12452   0.00000  Uiso   1.00
H498   H     0.03223   0.90035   0.15969   0.00000  Uiso   1.00
H499   H     0.31830   0.93471   0.13557   0.00000  Uiso   1.00
H500   H     0.06184   0.92893   0.10052   0.00000  Uiso   1.00
O501   O     0.00436   0.87128   0.30513   0.00000  Uiso   1.00
C502   C     0.00333   0.92475   0.30520   0.00000  Uiso   1.00
H503   H     0.29120   0.93227   0.32405   0.00000  Uiso   1.00
H504   H     0.01390   0.93937   0.26654   0.00000  Uiso   1.00
H505   H     0.03875   0.94796   0.32653   0.00000  Uiso   1.00
O506   O     0.00013   0.80086   0.19156   0.00000  Uiso   1.00
C507   C     0.32572   0.74551   0.18803   0.00000  Uiso   1.00
H508   H     0.27569   0.72859   0.19021   0.00000  Uiso   1.00
H509   H     0.00602   0.72860   0.21907   0.00000  Uiso   1.00
C510   C     0.02285   0.72664   0.13590   0.00000  Uiso   1.00
H511   H     0.32276   0.69401   0.12053   0.00000  Uiso   1.00
H512   H     0.03388   0.75876   0.11025   0.00000  Uiso   1.00
C513   C     0.08133   0.70689   0.13584   0.00000  Uiso   1.00
H514   H     0.11870   0.73855   0.14667   0.00000  Uiso   1.00
H515   H     0.09813   0.69184   0.09712   0.00000  Uiso   1.00
H516   H     0.07128   0.67480   0.16198   0.00000  Uiso   1.00
O517   O     0.02279   0.89884   0.00376   0.00000  Uiso   1.00
C518   C     0.04068   0.95404   0.00862   0.00000  Uiso   1.00
H519   H     0.09216   0.96523   0.00235   0.00000  Uiso   1.00
H520   H     0.02312   0.97044   0.04664   0.00000  Uiso   1.00
H521   H     0.02541   0.97249   0.47956   0.00000  Uiso   1.00
O522   O     0.30532   0.76510   0.48442   0.00000  Uiso   1.00
C523   C     0.29299   0.73453   0.02686   0.00000  Uiso   1.00
H524   H     0.28765   0.76012   0.06189   0.00000  Uiso   1.00
H525   H     0.33042   0.71330   0.02653   0.00000  Uiso   1.00
C526   C     0.23205   0.69423   0.02618   0.00000  Uiso   1.00
H527   H     0.19423   0.71500   0.02584   0.00000  Uiso   1.00
H528   H     0.23671   0.66820   0.49128   0.00000  Uiso   1.00
C529   C     0.21452   0.99399   0.07203   0.00000  Uiso   1.00
H530   H     0.25085   0.97209   0.07288   0.00000  Uiso   1.00
H531   H     0.17057   0.96495   0.06984   0.00000  Uiso   1.00
H532   H     0.20831   0.68565   0.10747   0.00000  Uiso   1.00
C533   C     0.51496   0.93337   0.25203   0.00000  Uiso   1.00
C534   C     0.47202   0.83419   0.48688   0.00000  Uiso   1.00
C535   C     0.48848   0.84860   0.43615   0.00000  Uiso   1.00
C536   C     0.51821   0.84841   0.01851   0.00000  Uiso   1.00
C537   C     0.57985   0.87427   0.49802   0.00000  Uiso   1.00
C538   C     0.59233   0.89166   0.44919   0.00000  Uiso   1.00
C539   C     0.54605   0.88223   0.42062   0.00000  Uiso   1.00
C540   C     0.50548   0.83691   0.06946   0.00000  Uiso   1.00
C541   C     0.61436   0.86537   0.07620   0.00000  Uiso   1.00
C542   C     0.44696   0.82945   0.40206   0.00000  Uiso   1.00
C543   C     0.52250   0.98940   0.25509   0.00000  Uiso   1.00
C544   C     0.46708   0.83213   0.34686   0.00000  Uiso   1.00
C545   C     0.47831   0.67741   0.24477   0.00000  Uiso   1.00
C546   C     0.48516   0.73334   0.24800   0.00000  Uiso   1.00
C547   C     0.53326   0.83732   0.15321   0.00000  Uiso   1.00
C548   C     0.62796   0.88234   0.02657   0.00000  Uiso   1.00
C549   C     0.55223   0.84572   0.09860   0.00000  Uiso   1.00
C550   C     0.38678   0.80182   0.42008   0.00000  Uiso   1.00
C551   C     0.36769   0.78946   0.47020   0.00000  Uiso   1.00
C552   C     0.41058   0.80557   0.00341   0.00000  Uiso   1.00
Cu553  Cu    0.44043   0.82772   0.24436   0.00000  Uiso   1.00
Cu554  Cu    0.55957   0.83895   0.25565   0.00000  Uiso   1.00
H555   H     0.43719   0.98694   0.23270   0.00000  Uiso   1.00
H556   H     0.63769   0.91319   0.43251   0.00000  Uiso   1.00
H557   H     0.45891   0.82119   0.08772   0.00000  Uiso   1.00
H558   H     0.35416   0.78813   0.39461   0.00000  Uiso   1.00
H559   H     0.39433   0.79727   0.04189   0.00000  Uiso   1.00
H560   H     0.55570   0.90177   0.38609   0.00000  Uiso   1.00
H561   H     0.56436   0.67984   0.26657   0.00000  Uiso   1.00
N562   N     0.64908   0.84741   0.26416   0.00000  Uiso   1.00
N563   N     0.35092   0.81926   0.23584   0.00000  Uiso   1.00
O564   O     0.46131   0.90474   0.24633   0.00000  Uiso   1.00
O565   O     0.56191   0.91422   0.25587   0.00000  Uiso   1.00
O566   O     0.42515   0.82627   0.31840   0.00000  Uiso   1.00
O567   O     0.52575   0.83575   0.32793   0.00000  Uiso   1.00
O568   O     0.43809   0.75245   0.24414   0.00000  Uiso   1.00
O569   O     0.53869   0.76193   0.25367   0.00000  Uiso   1.00
O570   O     0.47425   0.83092   0.17207   0.00000  Uiso   1.00
O571   O     0.57485   0.84040   0.18161   0.00000  Uiso   1.00
O572   O     0.66183   0.86057   0.09988   0.00000  Uiso   1.00
C573   C     0.35215   0.90863   0.12452   0.00000  Uiso   1.00
H574   H     0.36557   0.90035   0.15969   0.00000  Uiso   1.00
H575   H     0.65163   0.93471   0.13557   0.00000  Uiso   1.00
H576   H     0.39517   0.92893   0.10052   0.00000  Uiso   1.00
O577   O     0.33770   0.87128   0.30513   0.00000  Uiso   1.00
C578   C     0.33666   0.92475   0.30520   0.00000  Uiso   1.00
H579   H     0.62453   0.93227   0.32405   0.00000  Uiso   1.00
H580   H     0.34724   0.93937   0.26654   0.00000  Uiso   1.00
H581   H     0.37208   0.94796   0.32653   0.00000  Uiso   1.00
O582   O     0.33346   0.80086   0.19156   0.00000  Uiso   1.00
C583   C     0.65905   0.74551   0.18803   0.00000  Uiso   1.00
H584   H     0.60902   0.72859   0.19021   0.00000  Uiso   1.00
H585   H     0.33935   0.72860   0.21907   0.00000  Uiso   1.00
C586   C     0.35618   0.72664   0.13590   0.00000  Uiso   1.00
H587   H     0.65609   0.69401   0.12053   0.00000  Uiso   1.00
H588   H     0.36721   0.75876   0.11025   0.00000  Uiso   1.00
C589   C     0.41466   0.70689   0.13584   0.00000  Uiso   1.00
H590   H     0.45204   0.73855   0.14667   0.00000  Uiso   1.00
H591   H     0.43146   0.69184   0.09712   0.00000  Uiso   1.00
H592   H     0.40461   0.67480   0.16198   0.00000  Uiso   1.00
O593   O     0.35612   0.89884   0.00376   0.00000  Uiso   1.00
C594   C     0.37401   0.95404   0.00862   0.00000  Uiso   1.00
H595   H     0.42549   0.96523   0.00235   0.00000  Uiso   1.00
H596   H     0.35646   0.97044   0.04664   0.00000  Uiso   1.00
H597   H     0.35874   0.97249   0.47956   0.00000  Uiso   1.00
O598   O     0.63865   0.76510   0.48442   0.00000  Uiso   1.00
C599   C     0.62632   0.73453   0.02686   0.00000  Uiso   1.00
H600   H     0.62098   0.76012   0.06189   0.00000  Uiso   1.00
H601   H     0.66375   0.71330   0.02653   0.00000  Uiso   1.00
C602   C     0.56538   0.69423   0.02618   0.00000  Uiso   1.00
H603   H     0.52756   0.71500   0.02584   0.00000  Uiso   1.00
H604   H     0.57004   0.66820   0.49128   0.00000  Uiso   1.00
C605   C     0.54786   0.99399   0.07203   0.00000  Uiso   1.00
H606   H     0.58419   0.97209   0.07288   0.00000  Uiso   1.00
H607   H     0.50390   0.96495   0.06984   0.00000  Uiso   1.00
H608   H     0.54164   0.68565   0.10747   0.00000  Uiso   1.00
C609   C     0.84830   0.93337   0.25203   0.00000  Uiso   1.00
C610   C     0.80535   0.83419   0.48688   0.00000  Uiso   1.00
C611   C     0.82181   0.84860   0.43615   0.00000  Uiso   1.00
C612   C     0.85154   0.84841   0.01851   0.00000  Uiso   1.00
C613   C     0.91318   0.87427   0.49802   0.00000  Uiso   1.00
C614   C     0.92566   0.89166   0.44919   0.00000  Uiso   1.00
C615   C     0.87938   0.88223   0.42062   0.00000  Uiso   1.00
C616   C     0.83881   0.83691   0.06946   0.00000  Uiso   1.00
C617   C     0.94769   0.86537   0.07620   0.00000  Uiso   1.00
C618   C     0.78029   0.82945   0.40206   0.00000  Uiso   1.00
C619   C     0.85583   0.98940   0.25509   0.00000  Uiso   1.00
C620   C     0.80042   0.83213   0.34686   0.00000  Uiso   1.00
C621   C     0.81164   0.67741   0.24477   0.00000  Uiso   1.00
C622   C     0.81849   0.73334   0.24800   0.00000  Uiso   1.00
C623   C     0.86660   0.83732   0.15321   0.00000  Uiso   1.00
C624   C     0.96129   0.88234   0.02657   0.00000  Uiso   1.00
C625   C     0.88556   0.84572   0.09860   0.00000  Uiso   1.00
C626   C     0.72012   0.80182   0.42008   0.00000  Uiso   1.00
C627   C     0.70103   0.78946   0.47020   0.00000  Uiso   1.00
C628   C     0.74391   0.80557   0.00341   0.00000  Uiso   1.00
Cu629  Cu    0.77377   0.82772   0.24436   0.00000  Uiso   1.00
Cu630  Cu    0.89290   0.83895   0.25565   0.00000  Uiso   1.00
H631   H     0.77053   0.98694   0.23270   0.00000  Uiso   1.00
H632   H     0.97102   0.91319   0.43251   0.00000  Uiso   1.00
H633   H     0.79224   0.82119   0.08772   0.00000  Uiso   1.00
H634   H     0.68749   0.78813   0.39461   0.00000  Uiso   1.00
H635   H     0.72766   0.79727   0.04189   0.00000  Uiso   1.00
H636   H     0.88903   0.90177   0.38609   0.00000  Uiso   1.00
H637   H     0.89769   0.67984   0.26657   0.00000  Uiso   1.00
N638   N     0.98241   0.84741   0.26416   0.00000  Uiso   1.00
N639   N     0.68426   0.81926   0.23584   0.00000  Uiso   1.00
O640   O     0.79464   0.90474   0.24633   0.00000  Uiso   1.00
O641   O     0.89524   0.91422   0.25587   0.00000  Uiso   1.00
O642   O     0.75848   0.82627   0.31840   0.00000  Uiso   1.00
O643   O     0.85908   0.83575   0.32793   0.00000  Uiso   1.00
O644   O     0.77142   0.75245   0.24414   0.00000  Uiso   1.00
O645   O     0.87203   0.76193   0.25367   0.00000  Uiso   1.00
O646   O     0.80758   0.83092   0.17207   0.00000  Uiso   1.00
O647   O     0.90819   0.84040   0.18161   0.00000  Uiso   1.00
O648   O     0.99516   0.86057   0.09988   0.00000  Uiso   1.00
C649   C     0.68548   0.90863   0.12452   0.00000  Uiso   1.00
H650   H     0.69890   0.90035   0.15969   0.00000  Uiso   1.00
H651   H     0.98496   0.93471   0.13557   0.00000  Uiso   1.00
H652   H     0.72850   0.92893   0.10052   0.00000  Uiso   1.00
O653   O     0.67103   0.87128   0.30513   0.00000  Uiso   1.00
C654   C     0.66999   0.92475   0.30520   0.00000  Uiso   1.00
H655   H     0.95787   0.93227   0.32405   0.00000  Uiso   1.00
H656   H     0.68057   0.93937   0.26654   0.00000  Uiso   1.00
H657   H     0.70542   0.94796   0.32653   0.00000  Uiso   1.00
O658   O     0.66680   0.80086   0.19156   0.00000  Uiso   1.00
C659   C     0.99238   0.74551   0.18803   0.00000  Uiso   1.00
H660   H     0.94236   0.72859   0.19021   0.00000  Uiso   1.00
H661   H     0.67269   0.72860   0.21907   0.00000  Uiso   1.00
C662   C     0.68952   0.72664   0.13590   0.00000  Uiso   1.00
H663   H     0.98942   0.69401   0.12053   0.00000  Uiso   1.00
H664   H     0.70054   0.75876   0.11025   0.00000  Uiso   1.00
C665   C     0.74800   0.70689   0.13584   0.00000  Uiso   1.00
H666   H     0.78537   0.73855   0.14667   0.00000  Uiso   1.00
H667   H     0.76480   0.69184   0.09712   0.00000  Uiso   1.00
H668   H     0.73794   0.67480   0.16198   0.00000  Uiso   1.00
O669   O     0.68945   0.89884   0.00376   0.00000  Uiso   1.00
C670   C     0.70734   0.95404   0.00862   0.00000  Uiso   1.00
H671   H     0.75882   0.96523   0.00235   0.00000  Uiso   1.00
H672   H     0.68979   0.97044   0.04664   0.00000  Uiso   1.00
H673   H     0.69208   0.97249   0.47956   0.00000  Uiso   1.00
O674   O     0.97198   0.76510   0.48442   0.00000  Uiso   1.00
C675   C     0.95966   0.73453   0.02686   0.00000  Uiso   1.00
H676   H     0.95431   0.76012   0.06189   0.00000  Uiso   1.00
H677   H     0.99709   0.71330   0.02653   0.00000  Uiso   1.00
C678   C     0.89872   0.69423   0.02618   0.00000  Uiso   1.00
H679   H     0.86089   0.71500   0.02584   0.00000  Uiso   1.00
H680   H     0.90338   0.66820   0.49128   0.00000  Uiso   1.00
C681   C     0.88119   0.99399   0.07203   0.00000  Uiso   1.00
H682   H     0.91752   0.97209   0.07288   0.00000  Uiso   1.00
H683   H     0.83724   0.96495   0.06984   0.00000  Uiso   1.00
H684   H     0.87497   0.68565   0.10747   0.00000  Uiso   1.00
C685   C     0.18163   0.26670   0.75203   0.00000  Uiso   1.00
C686   C     0.13869   0.16752   0.98688   0.00000  Uiso   1.00
C687   C     0.15514   0.18193   0.93615   0.00000  Uiso   1.00
C688   C     0.18487   0.18174   0.51851   0.00000  Uiso   1.00
C689   C     0.24651   0.20760   0.99802   0.00000  Uiso   1.00
C690   C     0.25899   0.22499   0.94919   0.00000  Uiso   1.00
C691   C     0.21272   0.21556   0.92062   0.00000  Uiso   1.00
C692   C     0.17215   0.17024   0.56946   0.00000  Uiso   1.00
C693   C     0.28102   0.19870   0.57620   0.00000  Uiso   1.00
C694   C     0.11362   0.16278   0.90206   0.00000  Uiso   1.00
C695   C     0.18916   0.32274   0.75509   0.00000  Uiso   1.00
C696   C     0.13375   0.16547   0.84686   0.00000  Uiso   1.00
C697   C     0.14498   0.01074   0.74477   0.00000  Uiso   1.00
C698   C     0.15183   0.06667   0.74800   0.00000  Uiso   1.00
C699   C     0.19993   0.17066   0.65321   0.00000  Uiso   1.00
C700   C     0.29463   0.21567   0.52657   0.00000  Uiso   1.00
C701   C     0.21890   0.17905   0.59860   0.00000  Uiso   1.00
C702   C     0.05345   0.13515   0.92008   0.00000  Uiso   1.00
C703   C     0.03436   0.12279   0.97020   0.00000  Uiso   1.00
C704   C     0.07724   0.13890   0.50341   0.00000  Uiso   1.00
Cu705  Cu    0.10710   0.16105   0.74436   0.00000  Uiso   1.00
Cu706  Cu    0.22623   0.17228   0.75565   0.00000  Uiso   1.00
H707   H     0.10386   0.32028   0.73270   0.00000  Uiso   1.00
H708   H     0.30435   0.24653   0.93251   0.00000  Uiso   1.00
H709   H     0.12558   0.15453   0.58772   0.00000  Uiso   1.00
H710   H     0.02082   0.12147   0.89461   0.00000  Uiso   1.00
H711   H     0.06100   0.13060   0.54189   0.00000  Uiso   1.00
H712   H     0.22237   0.23511   0.88609   0.00000  Uiso   1.00
H713   H     0.23102   0.01317   0.76657   0.00000  Uiso   1.00
N714   N     0.31574   0.18074   0.76416   0.00000  Uiso   1.00
N715   N     0.01759   0.15259   0.73584   0.00000  Uiso   1.00
O716   O     0.12797   0.23807   0.74633   0.00000  Uiso   1.00
O717   O     0.22858   0.24755   0.75587   0.00000  Uiso   1.00
O718   O     0.09181   0.15960   0.81840   0.00000  Uiso   1.00
O719   O     0.19242   0.16908   0.82793   0.00000  Uiso   1.00
O720   O     0.10476   0.08578   0.74414   0.00000  Uiso   1.00
O721   O     0.20536   0.09526   0.75367   0.00000  Uiso   1.00
O722   O     0.14092   0.16425   0.67207   0.00000  Uiso   1.00
O723   O     0.24152   0.17373   0.68161   0.00000  Uiso   1.00
O724   O     0.32850   0.19390   0.59988   0.00000  Uiso   1.00
C725   C     0.01882   0.24196   0.62452   0.00000  Uiso   1.00
H726   H     0.03223   0.23369   0.65969   0.00000  Uiso   1.00
H727   H     0.31830   0.26805   0.63557   0.00000  Uiso   1.00
H728   H     0.06184   0.26226   0.60052   0.00000  Uiso   1.00
O729   O     0.00436   0.20461   0.80513   0.00000  Uiso   1.00
C730   C     0.00333   0.25808   0.80520   0.00000  Uiso   1.00
H731   H     0.29120   0.26560   0.82405   0.00000  Uiso   1.00
H732   H     0.01390   0.27270   0.76654   0.00000  Uiso   1.00
H733   H     0.03875   0.28130   0.82653   0.00000  Uiso   1.00
O734   O     0.00013   0.13419   0.69156   0.00000  Uiso   1.00
C735   C     0.32572   0.07884   0.68803   0.00000  Uiso   1.00
H736   H     0.27569   0.06193   0.69021   0.00000  Uiso   1.00
H737   H     0.00602   0.06193   0.71907   0.00000  Uiso   1.00
C738   C     0.02285   0.05997   0.63590   0.00000  Uiso   1.00
H739   H     0.32276   0.02734   0.62053   0.00000  Uiso   1.00
H740   H     0.03388   0.09209   0.61025   0.00000  Uiso   1.00
C741   C     0.08133   0.04022   0.63584   0.00000  Uiso   1.00
H742   H     0.11870   0.07188   0.64667   0.00000  Uiso   1.00
H743   H     0.09813   0.02517   0.59712   0.00000  Uiso   1.00
H744   H     0.07128   0.00813   0.66198   0.00000  Uiso   1.00
O745   O     0.02279   0.23217   0.50376   0.00000  Uiso   1.00
C746   C     0.04068   0.28737   0.50862   0.00000  Uiso   1.00
H747   H     0.09216   0.29857   0.50235   0.00000  Uiso   1.00
H748   H     0.02312   0.30378   0.54664   0.00000  Uiso   1.00
H749   H     0.02541   0.30582   0.97956   0.00000  Uiso   1.00
O750   O     0.30532   0.09843   0.98442   0.00000  Uiso   1.00
C751   C     0.29299   0.06787   0.52686   0.00000  Uiso   1.00
H752   H     0.28765   0.09346   0.56189   0.00000  Uiso   1.00
H753   H     0.33042   0.04664   0.52653   0.00000  Uiso   1.00
C754   C     0.23205   0.02757   0.52618   0.00000  Uiso   1.00
H755   H     0.19423   0.04834   0.52584   0.00000  Uiso   1.00
H756   H     0.23671   0.00153   0.99128   0.00000  Uiso   1.00
C757   C     0.21452   0.32733   0.57203   0.00000  Uiso   1.00
H758   H     0.25085   0.30543   0.57288   0.00000  Uiso   1.00
H759   H     0.17057   0.29829   0.56984   0.00000  Uiso   1.00
H760   H     0.20831   0.01898   0.60747   0.00000  Uiso   1.00
C761   C     0.51496   0.26670   0.75203   0.00000  Uiso   1.00
C762   C     0.47202   0.16752   0.98688   0.00000  Uiso   1.00
C763   C     0.48848   0.18193   0.93615   0.00000  Uiso   1.00
C764   C     0.51821   0.18174   0.51851   0.00000  Uiso   1.00
C765   C     0.57985   0.20760   0.99802   0.00000  Uiso   1.00
C766   C     0.59233   0.22499   0.94919   0.00000  Uiso   1.00
C767   C     0.54605   0.21556   0.92062   0.00000  Uiso   1.00
C768   C     0.50548   0.17024   0.56946   0.00000  Uiso   1.00
C769   C     0.61436   0.19870   0.57620   0.00000  Uiso   1.00
C770   C     0.44696   0.16278   0.90206   0.00000  Uiso   1.00
C771   C     0.52250   0.32274   0.75509   0.00000  Uiso   1.00
C772   C     0.46708   0.16547   0.84686   0.00000  Uiso   1.00
C773   C     0.47831   0.01074   0.74477   0.00000  Uiso   1.00
C774   C     0.48516   0.06667   0.74800   0.00000  Uiso   1.00
C775   C     0.53326   0.17066   0.65321   0.00000  Uiso   1.00
C776   C     0.62796   0.21567   0.52657   0.00000  Uiso   1.00
C777   C     0.55223   0.17905   0.59860   0.00000  Uiso   1.00
C778   C     0.38678   0.13515   0.92008   0.00000  Uiso   1.00
C779   C     0.36769   0.12279   0.97020   0.00000  Uiso   1.00
C780   C     0.41058   0.13890   0.50341   0.00000  Uiso   1.00
Cu781  Cu    0.44043   0.16105   0.74436   0.00000  Uiso   1.00
Cu782  Cu    0.55957   0.17228   0.75565   0.00000  Uiso   1.00
H783   H     0.43719   0.32028   0.73270   0.00000  Uiso   1.00
H784   H     0.63769   0.24653   0.93251   0.00000  Uiso   1.00
H785   H     0.45891   0.15453   0.58772   0.00000  Uiso   1.00
H786   H     0.35416   0.12147   0.89461   0.00000  Uiso   1.00
H787   H     0.39433   0.13060   0.54189   0.00000  Uiso   1.00
H788   H     0.55570   0.23511   0.88609   0.00000  Uiso   1.00
H789   H     0.56436   0.01317   0.76657   0.00000  Uiso   1.00
N790   N     0.64908   0.18074   0.76416   0.00000  Uiso   1.00
N791   N     0.35092   0.15259   0.73584   0.00000  Uiso   1.00
O792   O     0.46131   0.23807   0.74633   0.00000  Uiso   1.00
O793   O     0.56191   0.24755   0.75587   0.00000  Uiso   1.00
O794   O     0.42515   0.15960   0.81840   0.00000  Uiso   1.00
O795   O     0.52575   0.16908   0.82793   0.00000  Uiso   1.00
O796   O     0.43809   0.08578   0.74414   0.00000  Uiso   1.00
O797   O     0.53869   0.09526   0.75367   0.00000  Uiso   1.00
O798   O     0.47425   0.16425   0.67207   0.00000  Uiso   1.00
O799   O     0.57485   0.17373   0.68161   0.00000  Uiso   1.00
O800   O     0.66183   0.19390   0.59988   0.00000  Uiso   1.00
C801   C     0.35215   0.24196   0.62452   0.00000  Uiso   1.00
H802   H     0.36557   0.23369   0.65969   0.00000  Uiso   1.00
H803   H     0.65163   0.26805   0.63557   0.00000  Uiso   1.00
H804   H     0.39517   0.26226   0.60052   0.00000  Uiso   1.00
O805   O     0.33770   0.20461   0.80513   0.00000  Uiso   1.00
C806   C     0.33666   0.25808   0.80520   0.00000  Uiso   1.00
H807   H     0.62453   0.26560   0.82405   0.00000  Uiso   1.00
H808   H     0.34724   0.27270   0.76654   0.00000  Uiso   1.00
H809   H     0.37208   0.28130   0.82653   0.00000  Uiso   1.00
O810   O     0.33346   0.13419   0.69156   0.00000  Uiso   1.00
C811   C     0.65905   0.07884   0.68803   0.00000  Uiso   1.00
H812   H     0.60902   0.06193   0.69021   0.00000  Uiso   1.00
H813   H     0.33935   0.06193   0.71907   0.00000  Uiso   1.00
C814   C     0.35618   0.05997   0.63590   0.00000  Uiso   1.00
H815   H     0.65609   0.02734   0.62053   0.00000  Uiso   1.00
H816   H     0.36721   0.09209   0.61025   0.00000  Uiso   1.00
C817   C     0.41466   0.04022   0.63584   0.00000  Uiso   1.00
H818   H     0.45204   0.07188   0.64667   0.00000  Uiso   1.00
H819   H     0.43146   0.02517   0.59712   0.00000  Uiso   1.00
H820   H     0.40461   0.00813   0.66198   0.00000  Uiso   1.00
O821   O     0.35612   0.23217   0.50376   0.00000  Uiso   1.00
C822   C     0.37401   0.28737   0.50862   0.00000  Uiso   1.00
H823   H     0.42549   0.29857   0.50235   0.00000  Uiso   1.00
H824   H     0.35646   0.30378   0.54664   0.00000  Uiso   1.00
H825   H     0.35874   0.30582   0.97956   0.00000  Uiso   1.00
O826   O     0.63865   0.09843   0.98442   0.00000  Uiso   1.00
C827   C     0.62632   0.06787   0.52686   0.00000  Uiso   1.00
H828   H     0.62098   0.09346   0.56189   0.00000  Uiso   1.00
H829   H     0.66375   0.04664   0.52653   0.00000  Uiso   1.00
C830   C     0.56538   0.02757   0.52618   0.00000  Uiso   1.00
H831   H     0.52756   0.04834   0.52584   0.00000  Uiso   1.00
H832   H     0.57004   0.00153   0.99128   0.00000  Uiso   1.00
C833   C     0.54786   0.32733   0.57203   0.00000  Uiso   1.00
H834   H     0.58419   0.30543   0.57288   0.00000  Uiso   1.00
H835   H     0.50390   0.29829   0.56984   0.00000  Uiso   1.00
H836   H     0.54164   0.01898   0.60747   0.00000  Uiso   1.00
C837   C     0.84830   0.26670   0.75203   0.00000  Uiso   1.00
C838   C     0.80535   0.16752   0.98688   0.00000  Uiso   1.00
C839   C     0.82181   0.18193   0.93615   0.00000  Uiso   1.00
C840   C     0.85154   0.18174   0.51851   0.00000  Uiso   1.00
C841   C     0.91318   0.20760   0.99802   0.00000  Uiso   1.00
C842   C     0.92566   0.22499   0.94919   0.00000  Uiso   1.00
C843   C     0.87938   0.21556   0.92062   0.00000  Uiso   1.00
C844   C     0.83881   0.17024   0.56946   0.00000  Uiso   1.00
C845   C     0.94769   0.19870   0.57620   0.00000  Uiso   1.00
C846   C     0.78029   0.16278   0.90206   0.00000  Uiso   1.00
C847   C     0.85583   0.32274   0.75509   0.00000  Uiso   1.00
C848   C     0.80042   0.16547   0.84686   0.00000  Uiso   1.00
C849   C     0.81164   0.01074   0.74477   0.00000  Uiso   1.00
C850   C     0.81849   0.06667   0.74800   0.00000  Uiso   1.00
C851   C     0.86660   0.17066   0.65321   0.00000  Uiso   1.00
C852   C     0.96129   0.21567   0.52657   0.00000  Uiso   1.00
C853   C     0.88556   0.17905   0.59860   0.00000  Uiso   1.00
C854   C     0.72012   0.13515   0.92008   0.00000  Uiso   1.00
C855   C     0.70103   0.12279   0.97020   0.00000  Uiso   1.00
C856   C     0.74391   0.13890   0.50341   0.00000  Uiso   1.00
Cu857  Cu    0.77377   0.16105   0.74436   0.00000  Uiso   1.00
Cu858  Cu    0.89290   0.17228   0.75565   0.00000  Uiso   1.00
H859   H     0.77053   0.32028   0.73270   0.00000  Uiso   1.00
H860   H     0.97102   0.24653   0.93251   0.00000  Uiso   1.00
H861   H     0.79224   0.15453   0.58772   0.00000  Uiso   1.00
H862   H     0.68749   0.12147   0.89461   0.00000  Uiso   1.00
H863   H     0.72766   0.13060   0.54189   0.00000  Uiso   1.00
H864   H     0.88903   0.23511   0.88609   0.00000  Uiso   1.00
H865   H     0.89769   0.01317   0.76657   0.00000  Uiso   1.00
N866   N     0.98241   0.18074   0.76416   0.00000  Uiso   1.00
N867   N     0.68426   0.15259   0.73584   0.00000  Uiso   1.00
O868   O     0.79464   0.23807   0.74633   0.00000  Uiso   1.00
O869   O     0.89524   0.24755   0.75587   0.00000  Uiso   1.00
O870   O     0.75848   0.15960   0.81840   0.00000  Uiso   1.00
O871   O     0.85908   0.16908   0.82793   0.00000  Uiso   1.00
O872   O     0.77142   0.08578   0.74414   0.00000  Uiso   1.00
O873   O     0.87203   0.09526   0.75367   0.00000  Uiso   1.00
O874   O     0.80758   0.16425   0.67207   0.00000  Uiso   1.00
O875   O     0.90819   0.17373   0.68161   0.00000  Uiso   1.00
O876   O     0.99516   0.19390   0.59988   0.00000  Uiso   1.00
C877   C     0.68548   0.24196   0.62452   0.00000  Uiso   1.00
H878   H     0.69890   0.23369   0.65969   0.00000  Uiso   1.00
H879   H     0.98496   0.26805   0.63557   0.00000  Uiso   1.00
H880   H     0.72850   0.26226   0.60052   0.00000  Uiso   1.00
O881   O     0.67103   0.20461   0.80513   0.00000  Uiso   1.00
C882   C     0.66999   0.25808   0.80520   0.00000  Uiso   1.00
H883   H     0.95787   0.26560   0.82405   0.00000  Uiso   1.00
H884   H     0.68057   0.27270   0.76654   0.00000  Uiso   1.00
H885   H     0.70542   0.28130   0.82653   0.00000  Uiso   1.00
O886   O     0.66680   0.13419   0.69156   0.00000  Uiso   1.00
C887   C     0.99238   0.07884   0.68803   0.00000  Uiso   1.00
H888   H     0.94236   0.06193   0.69021   0.00000  Uiso   1.00
H889   H     0.67269   0.06193   0.71907   0.00000  Uiso   1.00
C890   C     0.68952   0.05997   0.63590   0.00000  Uiso   1.00
H891   H     0.98942   0.02734   0.62053   0.00000  Uiso   1.00
H892   H     0.70054   0.09209   0.61025   0.00000  Uiso   1.00
C893   C     0.74800   0.04022   0.63584   0.00000  Uiso   1.00
H894   H     0.78537   0.07188   0.64667   0.00000  Uiso   1.00
H895   H     0.76480   0.02517   0.59712   0.00000  Uiso   1.00
H896   H     0.73794   0.00813   0.66198   0.00000  Uiso   1.00
O897   O     0.68945   0.23217   0.50376   0.00000  Uiso   1.00
C898   C     0.70734   0.28737   0.50862   0.00000  Uiso   1.00
H899   H     0.75882   0.29857   0.50235   0.00000  Uiso   1.00
H900   H     0.68979   0.30378   0.54664   0.00000  Uiso   1.00
H901   H     0.69208   0.30582   0.97956   0.00000  Uiso   1.00
O902   O     0.97198   0.09843   0.98442   0.00000  Uiso   1.00
C903   C     0.95966   0.06787   0.52686   0.00000  Uiso   1.00
H904   H     0.95431   0.09346   0.56189   0.00000  Uiso   1.00
H905   H     0.99709   0.04664   0.52653   0.00000  Uiso   1.00
C906   C     0.89872   0.02757   0.52618   0.00000  Uiso   1.00
H907   H     0.86089   0.04834   0.52584   0.00000  Uiso   1.00
H908   H     0.90338   0.00153   0.99128   0.00000  Uiso   1.00
C909   C     0.88119   0.32733   0.57203   0.00000  Uiso   1.00
H910   H     0.91752   0.30543   0.57288   0.00000  Uiso   1.00
H911   H     0.83724   0.29829   0.56984   0.00000  Uiso   1.00
H912   H     0.87497   0.01898   0.60747   0.00000  Uiso   1.00
C913   C     0.18163   0.60003   0.75203   0.00000  Uiso   1.00
C914   C     0.13869   0.50086   0.98688   0.00000  Uiso   1.00
C915   C     0.15514   0.51527   0.93615   0.00000  Uiso   1.00
C916   C     0.18487   0.51508   0.51851   0.00000  Uiso   1.00
C917   C     0.24651   0.54093   0.99802   0.00000  Uiso   1.00
C918   C     0.25899   0.55832   0.94919   0.00000  Uiso   1.00
C919   C     0.21272   0.54890   0.92062   0.00000  Uiso   1.00
C920   C     0.17215   0.50358   0.56946   0.00000  Uiso   1.00
C921   C     0.28102   0.53203   0.57620   0.00000  Uiso   1.00
C922   C     0.11362   0.49612   0.90206   0.00000  Uiso   1.00
C923   C     0.18916   0.65607   0.75509   0.00000  Uiso   1.00
C924   C     0.13375   0.49880   0.84686   0.00000  Uiso   1.00
C925   C     0.14498   0.34407   0.74477   0.00000  Uiso   1.00
C926   C     0.15183   0.40000   0.74800   0.00000  Uiso   1.00
C927   C     0.19993   0.50399   0.65321   0.00000  Uiso   1.00
C928   C     0.29463   0.54900   0.52657   0.00000  Uiso   1.00
C929   C     0.21890   0.51238   0.59860   0.00000  Uiso   1.00
C930   C     0.05345   0.46848   0.92008   0.00000  Uiso   1.00
C931   C     0.03436   0.45612   0.97020   0.00000  Uiso   1.00
C932   C     0.07724   0.47224   0.50341   0.00000  Uiso   1.00
Cu933  Cu    0.10710   0.49439   0.74436   0.00000  Uiso   1.00
Cu934  Cu    0.22623   0.50561   0.75565   0.00000  Uiso   1.00
H935   H     0.10386   0.65361   0.73270   0.00000  Uiso   1.00
H936   H     0.30435   0.57986   0.93251   0.00000  Uiso   1.00
H937   H     0.12558   0.48786   0.58772   0.00000  Uiso   1.00
H938   H     0.02082   0.45480   0.89461   0.00000  Uiso   1.00
H939   H     0.06100   0.46393   0.54189   0.00000  Uiso   1.00
H940   H     0.22237   0.56844   0.88609   0.00000  Uiso   1.00
H941   H     0.23102   0.34650   0.76657   0.00000  Uiso   1.00
N942   N     0.31574   0.51407   0.76416   0.00000  Uiso   1.00
N943   N     0.01759   0.48593   0.73584   0.00000  Uiso   1.00
O944   O     0.12797   0.57141   0.74633   0.00000  Uiso   1.00
O945   O     0.22858   0.58089   0.75587   0.00000  Uiso   1.00
O946   O     0.09181   0.49293   0.81840   0.00000  Uiso   1.00
O947   O     0.19242   0.50241   0.82793   0.00000  Uiso   1.00
O948   O     0.10476   0.41911   0.74414   0.00000  Uiso   1.00
O949   O     0.20536   0.42859   0.75367   0.00000  Uiso   1.00
O950   O     0.14092   0.49759   0.67207   0.00000  Uiso   1.00
O951   O     0.24152   0.50707   0.68161   0.00000  Uiso   1.00
O952   O     0.32850   0.52723   0.59988   0.00000  Uiso   1.00
C953   C     0.01882   0.57530   0.62452   0.00000  Uiso   1.00
H954   H     0.03223   0.56702   0.65969   0.00000  Uiso   1.00
H955   H     0.31830   0.60138   0.63557   0.00000  Uiso   1.00
H956   H     0.06184   0.59559   0.60052   0.00000  Uiso   1.00
O957   O     0.00436   0.53795   0.80513   0.00000  Uiso   1.00
C958   C     0.00333   0.59142   0.80520   0.00000  Uiso   1.00
H959   H     0.29120   0.59893   0.82405   0.00000  Uiso   1.00
H960   H     0.01390   0.60603   0.76654   0.00000  Uiso   1.00
H961   H     0.03875   0.61463   0.82653   0.00000  Uiso   1.00
O962   O     0.00013   0.46753   0.69156   0.00000  Uiso   1.00
C963   C     0.32572   0.41218   0.68803   0.00000  Uiso   1.00
H964   H     0.27569   0.39526   0.69021   0.00000  Uiso   1.00
H965   H     0.00602   0.39527   0.71907   0.00000  Uiso   1.00
C966   C     0.02285   0.39330   0.63590   0.00000  Uiso   1.00
H967   H     0.32276   0.36068   0.62053   0.00000  Uiso   1.00
H968   H     0.03388   0.42542   0.61025   0.00000  Uiso   1.00
C969   C     0.08133   0.37356   0.63584   0.00000  Uiso   1.00
H970   H     0.11870   0.40521   0.64667   0.00000  Uiso   1.00
H971   H     0.09813   0.35851   0.59712   0.00000  Uiso   1.00
H972   H     0.07128   0.34146   0.66198   0.00000  Uiso   1.00
O973   O     0.02279   0.56551   0.50376   0.00000  Uiso   1.00
C974   C     0.04068   0.62070   0.50862   0.00000  Uiso   1.00
H975   H     0.09216   0.63190   0.50235   0.00000  Uiso   1.00
H976   H     0.02312   0.63711   0.54664   0.00000  Uiso   1.00
H977   H     0.02541   0.63915   0.97956   0.00000  Uiso   1.00
O978   O     0.30532   0.43176   0.98442   0.00000  Uiso   1.00
C979   C     0.29299   0.40120   0.52686   0.00000  Uiso   1.00
H980   H     0.28765   0.42679   0.56189   0.00000  Uiso   1.00
H981   H     0.33042   0.37997   0.52653   0.00000  Uiso   1.00
C982   C     0.23205   0.36090   0.52618   0.00000  Uiso   1.00
H983   H     0.19423   0.38167   0.52584   0.00000  Uiso   1.00
H984   H     0.23671   0.33486   0.99128   0.00000  Uiso   1.00
C985   C     0.21452   0.66066   0.57203   0.00000  Uiso   1.00
H986   H     0.25085   0.63876   0.57288   0.00000  Uiso   1.00
H987   H     0.17057   0.63162   0.56984   0.00000  Uiso   1.00
H988   H     0.20831   0.35231   0.60747   0.00000  Uiso   1.00
C989   C     0.51496   0.60003   0.75203   0.00000  Uiso   1.00
C990   C     0.47202   0.50086   0.98688   0.00000  Uiso   1.00
C991   C     0.48848   0.51527   0.93615   0.00000  Uiso   1.00
C992   C     0.51821   0.51508   0.51851   0.00000  Uiso   1.00
C993   C     0.57985   0.54093   0.99802   0.00000  Uiso   1.00
C994   C     0.59233   0.55832   0.94919   0.00000  Uiso   1.00
C995   C     0.54605   0.54890   0.92062   0.00000  Uiso   1.00
C996   C     0.50548   0.50358   0.56946   0.00000  Uiso   1.00
C997   C     0.61436   0.53203   0.57620   0.00000  Uiso   1.00
C998   C     0.44696   0.49612   0.90206   0.00000  Uiso   1.00
C999   C     0.52250   0.65607   0.75509   0.00000  Uiso   1.00
C1000  C     0.46708   0.49880   0.84686   0.00000  Uiso   1.00
C1001  C     0.47831   0.34407   0.74477   0.00000  Uiso   1.00
C1002  C     0.48516   0.40000   0.74800   0.00000  Uiso   1.00
C1003  C     0.53326   0.50399   0.65321   0.00000  Uiso   1.00
C1004  C     0.62796   0.54900   0.52657   0.00000  Uiso   1.00
C1005  C     0.55223   0.51238   0.59860   0.00000  Uiso   1.00
C1006  C     0.38678   0.46848   0.92008   0.00000  Uiso   1.00
C1007  C     0.36769   0.45612   0.97020   0.00000  Uiso   1.00
C1008  C     0.41058   0.47224   0.50341   0.00000  Uiso   1.00
Cu1009 Cu    0.44043   0.49439   0.74436   0.00000  Uiso   1.00
Cu1010 Cu    0.55957   0.50561   0.75565   0.00000  Uiso   1.00
H1011  H     0.43719   0.65361   0.73270   0.00000  Uiso   1.00
H1012  H     0.63769   0.57986   0.93251   0.00000  Uiso   1.00
H1013  H     0.45891   0.48786   0.58772   0.00000  Uiso   1.00
H1014  H     0.35416   0.45480   0.89461   0.00000  Uiso   1.00
H1015  H     0.39433   0.46393   0.54189   0.00000  Uiso   1.00
H1016  H     0.55570   0.56844   0.88609   0.00000  Uiso   1.00
H1017  H     0.56436   0.34650   0.76657   0.00000  Uiso   1.00
N1018  N     0.64908   0.51407   0.76416   0.00000  Uiso   1.00
N1019  N     0.35092   0.48593   0.73584   0.00000  Uiso   1.00
O1020  O     0.46131   0.57141   0.74633   0.00000  Uiso   1.00
O1021  O     0.56191   0.58089   0.75587   0.00000  Uiso   1.00
O1022  O     0.42515   0.49293   0.81840   0.00000  Uiso   1.00
O1023  O     0.52575   0.50241   0.82793   0.00000  Uiso   1.00
O1024  O     0.43809   0.41911   0.74414   0.00000  Uiso   1.00
O1025  O     0.53869   0.42859   0.75367   0.00000  Uiso   1.00
O1026  O     0.47425   0.49759   0.67207   0.00000  Uiso   1.00
O1027  O     0.57485   0.50707   0.68161   0.00000  Uiso   1.00
O1028  O     0.66183   0.52723   0.59988   0.00000  Uiso   1.00
C1029  C     0.35215   0.57530   0.62452   0.00000  Uiso   1.00
H1030  H     0.36557   0.56702   0.65969   0.00000  Uiso   1.00
H1031  H     0.65163   0.60138   0.63557   0.00000  Uiso   1.00
H1032  H     0.39517   0.59559   0.60052   0.00000  Uiso   1.00
O1033  O     0.33770   0.53795   0.80513   0.00000  Uiso   1.00
C1034  C     0.33666   0.59142   0.80520   0.00000  Uiso   1.00
H1035  H     0.62453   0.59893   0.82405   0.00000  Uiso   1.00
H1036  H     0.34724   0.60603   0.76654   0.00000  Uiso   1.00
H1037  H     0.37208   0.61463   0.82653   0.00000  Uiso   1.00
O1038  O     0.33346   0.46753   0.69156   0.00000  Uiso   1.00
C1039  C     0.65905   0.41218   0.68803   0.00000  Uiso   1.00
H1040  H     0.60902   0.39526   0.69021   0.00000  Uiso   1.00
H1041  H     0.33935   0.39527   0.71907   0.00000  Uiso   1.00
C1042  C     0.35618   0.39330   0.63590   0.00000  Uiso   1.00
H1043  H     0.65609   0.36068   0.62053   0.00000  Uiso   1.00
H1044  H     0.36721   0.42542   0.61025   0.00000  Uiso   1.00
C1045  C     0.41466   0.37356   0.63584   0.00000  Uiso   1.00
H1046  H     0.45204   0.40521   0.64667   0.00000  Uiso   1.00
H1047  H     0.43146   0.35851   0.59712   0.00000  Uiso   1.00
H1048  H     0.40461   0.34146   0.66198   0.00000  Uiso   1.00
O1049  O     0.35612   0.56551   0.50376   0.00000  Uiso   1.00
C1050  C     0.37401   0.62070   0.50862   0.00000  Uiso   1.00
H1051  H     0.42549   0.63190   0.50235   0.00000  Uiso   1.00
H1052  H     0.35646   0.63711   0.54664   0.00000  Uiso   1.00
H1053  H     0.35874   0.63915   0.97956   0.00000  Uiso   1.00
O1054  O     0.63865   0.43176   0.98442   0.00000  Uiso   1.00
C1055  C     0.62632   0.40120   0.52686   0.00000  Uiso   1.00
H1056  H     0.62098   0.42679   0.56189   0.00000  Uiso   1.00
H1057  H     0.66375   0.37997   0.52653   0.00000  Uiso   1.00
C1058  C     0.56538   0.36090   0.52618   0.00000  Uiso   1.00
H1059  H     0.52756   0.38167   0.52584   0.00000  Uiso   1.00
H1060  H     0.57004   0.33486   0.99128   0.00000  Uiso   1.00
C1061  C     0.54786   0.66066   0.57203   0.00000  Uiso   1.00
H1062  H     0.58419   0.63876   0.57288   0.00000  Uiso   1.00
H1063  H     0.50390   0.63162   0.56984   0.00000  Uiso   1.00
H1064  H     0.54164   0.35231   0.60747   0.00000  Uiso   1.00
C1065  C     0.84830   0.60003   0.75203   0.00000  Uiso   1.00
C1066  C     0.80535   0.50086   0.98688   0.00000  Uiso   1.00
C1067  C     0.82181   0.51527   0.93615   0.00000  Uiso   1.00
C1068  C     0.85154   0.51508   0.51851   0.00000  Uiso   1.00
C1069  C     0.91318   0.54093   0.99802   0.00000  Uiso   1.00
C1070  C     0.92566   0.55832   0.94919   0.00000  Uiso   1.00
C1071  C     0.87938   0.54890   0.92062   0.00000  Uiso   1.00
C1072  C     0.83881   0.50358   0.56946   0.00000  Uiso   1.00
C1073  C     0.94769   0.53203   0.57620   0.00000  Uiso   1.00
C1074  C     0.78029   0.49612   0.90206   0.00000  Uiso   1.00
C1075  C     0.85583   0.65607   0.75509   0.00000  Uiso   1.00
C1076  C     0.80042   0.49880   0.84686   0.00000  Uiso   1.00
C1077  C     0.81164   0.34407   0.74477   0.00000  Uiso   1.00
C1078  C     0.81849   0.40000   0.74800   0.00000  Uiso   1.00
C1079  C     0.86660   0.50399   0.65321   0.00000  Uiso   1.00
C1080  C     0.96129   0.54900   0.52657   0.00000  Uiso   1.00
C1081  C     0.88556   0.51238   0.59860   0.00000  Uiso   1.00
C1082  C     0.72012   0.46848   0.92008   0.00000  Uiso   1.00
C1083  C     0.70103   0.45612   0.97020   0.00000  Uiso   1.00
C1084  C     0.74391   0.47224   0.50341   0.00000  Uiso   1.00
Cu1085 Cu    0.77377   0.49439   0.74436   0.00000  Uiso   1.00
Cu1086 Cu    0.89290   0.50561   0.75565   0.00000  Uiso   1.00
H1087  H     0.77053   0.65361   0.73270   0.00000  Uiso   1.00
H1088  H     0.97102   0.57986   0.93251   0.00000  Uiso   1.00
H1089  H     0.79224   0.48786   0.58772   0.00000  Uiso   1.00
H1090  H     0.68749   0.45480   0.89461   0.00000  Uiso   1.00
H1091  H     0.72766   0.46393   0.54189   0.00000  Uiso   1.00
H1092  H     0.88903   0.56844   0.88609   0.00000  Uiso   1.00
H1093  H     0.89769   0.34650   0.76657   0.00000  Uiso   1.00
N1094  N     0.98241   0.51407   0.76416   0.00000  Uiso   1.00
N1095  N     0.68426   0.48593   0.73584   0.00000  Uiso   1.00
O1096  O     0.79464   0.57141   0.74633   0.00000  Uiso   1.00
O1097  O     0.89524   0.58089   0.75587   0.00000  Uiso   1.00
O1098  O     0.75848   0.49293   0.81840   0.00000  Uiso   1.00
O1099  O     0.85908   0.50241   0.82793   0.00000  Uiso   1.00
O1100  O     0.77142   0.41911   0.74414   0.00000  Uiso   1.00
O1101  O     0.87203   0.42859   0.75367   0.00000  Uiso   1.00
O1102  O     0.80758   0.49759   0.67207   0.00000  Uiso   1.00
O1103  O     0.90819   0.50707   0.68161   0.00000  Uiso   1.00
O1104  O     0.99516   0.52723   0.59988   0.00000  Uiso   1.00
C1105  C     0.68548   0.57530   0.62452   0.00000  Uiso   1.00
H1106  H     0.69890   0.56702   0.65969   0.00000  Uiso   1.00
H1107  H     0.98496   0.60138   0.63557   0.00000  Uiso   1.00
H1108  H     0.72850   0.59559   0.60052   0.00000  Uiso   1.00
O1109  O     0.67103   0.53795   0.80513   0.00000  Uiso   1.00
C1110  C     0.66999   0.59142   0.80520   0.00000  Uiso   1.00
H1111  H     0.95787   0.59893   0.82405   0.00000  Uiso   1.00
H1112  H     0.68057   0.60603   0.76654   0.00000  Uiso   1.00
H1113  H     0.70542   0.61463   0.82653   0.00000  Uiso   1.00
O1114  O     0.66680   0.46753   0.69156   0.00000  Uiso   1.00
C1115  C     0.99238   0.41218   0.68803   0.00000  Uiso   1.00
H1116  H     0.94236   0.39526   0.69021   0.00000  Uiso   1.00
H1117  H     0.67269   0.39527   0.71907   0.00000  Uiso   1.00
C1118  C     0.68952   0.39330   0.63590   0.00000  Uiso   1.00
H1119  H     0.98942   0.36068   0.62053   0.00000  Uiso   1.00
H1120  H     0.70054   0.42542   0.61025   0.00000  Uiso   1.00
C1121  C     0.74800   0.37356   0.63584   0.00000  Uiso   1.00
H1122  H     0.78537   0.40521   0.64667   0.00000  Uiso   1.00
H1123  H     0.76480   0.35851   0.59712   0.00000  Uiso   1.00
H1124  H     0.73794   0.34146   0.66198   0.00000  Uiso   1.00
O1125  O     0.68945   0.56551   0.50376   0.00000  Uiso   1.00
C1126  C     0.70734   0.62070   0.50862   0.00000  Uiso   1.00
H1127  H     0.75882   0.63190   0.50235   0.00000  Uiso   1.00
H1128  H     0.68979   0.63711   0.54664   0.00000  Uiso   1.00
H1129  H     0.69208   0.63915   0.97956   0.00000  Uiso   1.00
O1130  O     0.97198   0.43176   0.98442   0.00000  Uiso   1.00
C1131  C     0.95966   0.40120   0.52686   0.00000  Uiso   1.00
H1132  H     0.95431   0.42679   0.56189   0.00000  Uiso   1.00
H1133  H     0.99709   0.37997   0.52653   0.00000  Uiso   1.00
C1134  C     0.89872   0.36090   0.52618   0.00000  Uiso   1.00
H1135  H     0.86089   0.38167   0.52584   0.00000  Uiso   1.00
H1136  H     0.90338   0.33486   0.99128   0.00000  Uiso   1.00
C1137  C     0.88119   0.66066   0.57203   0.00000  Uiso   1.00
H1138  H     0.91752   0.63876   0.57288   0.00000  Uiso   1.00
H1139  H     0.83724   0.63162   0.56984   0.00000  Uiso   1.00
H1140  H     0.87497   0.35231   0.60747   0.00000  Uiso   1.00
C1141  C     0.18163   0.93337   0.75203   0.00000  Uiso   1.00
C1142  C     0.13869   0.83419   0.98688   0.00000  Uiso   1.00
C1143  C     0.15514   0.84860   0.93615   0.00000  Uiso   1.00
C1144  C     0.18487   0.84841   0.51851   0.00000  Uiso   1.00
C1145  C     0.24651   0.87427   0.99802   0.00000  Uiso   1.00
C1146  C     0.25899   0.89166   0.94919   0.00000  Uiso   1.00
C1147  C     0.21272   0.88223   0.92062   0.00000  Uiso   1.00
C1148  C     0.17215   0.83691   0.56946   0.00000  Uiso   1.00
C1149  C     0.28102   0.86537   0.57620   0.00000  Uiso   1.00
C1150  C     0.11362   0.82945   0.90206   0.00000  Uiso   1.00
C1151  C     0.18916   0.98940   0.75509   0.00000  Uiso   1.00
C1152  C     0.13375   0.83213   0.84686   0.00000  Uiso   1.00
C1153  C     0.14498   0.67741   0.74477   0.00000  Uiso   1.00
C1154  C     0.15183   0.73334   0.74800   0.00000  Uiso   1.00
C1155  C     0.19993   0.83732   0.65321   0.00000  Uiso   1.00
C1156  C     0.29463   0.88234   0.52657   0.00000  Uiso   1.00
C1157  C     0.21890   0.84572   0.59860   0.00000  Uiso   1.00
C1158  C     0.05345   0.80182   0.92008   0.00000  Uiso   1.00
C1159  C     0.03436   0.78946   0.97020   0.00000  Uiso   1.00
C1160  C     0.07724   0.80557   0.50341   0.00000  Uiso   1.00
Cu1161 Cu    0.10710   0.82772   0.74436   0.00000  Uiso   1.00
Cu1162 Cu    0.22623   0.83895   0.75565   0.00000  Uiso   1.00
H1163  H     0.10386   0.98694   0.73270   0.00000  Uiso   1.00
H1164  H     0.30435   0.91319   0.93251   0.00000  Uiso   1.00
H1165  H     0.12558   0.82119   0.58772   0.00000  Uiso   1.00
H1166  H     0.02082   0.78813   0.89461   0.00000  Uiso   1.00
H1167  H     0.06100   0.79727   0.54189   0.00000  Uiso   1.00
H1168  H     0.22237   0.90177   0.88609   0.00000  Uiso   1.00
H1169  H     0.23102   0.67984   0.76657   0.00000  Uiso   1.00
N1170  N     0.31574   0.84741   0.76416   0.00000  Uiso   1.00
N1171  N     0.01759   0.81926   0.73584   0.00000  Uiso   1.00
O1172  O     0.12797   0.90474   0.74633   0.00000  Uiso   1.00
O1173  O     0.22858   0.91422   0.75587   0.00000  Uiso   1.00
O1174  O     0.09181   0.82627   0.81840   0.00000  Uiso   1.00
O1175  O     0.19242   0.83575   0.82793   0.00000  Uiso   1.00
O1176  O     0.10476   0.75245   0.74414   0.00000  Uiso   1.00
O1177  O     0.20536   0.76193   0.75367   0.00000  Uiso   1.00
O1178  O     0.14092   0.83092   0.67207   0.00000  Uiso   1.00
O1179  O     0.24152   0.84040   0.68161   0.00000  Uiso   1.00
O1180  O     0.32850   0.86057   0.59988   0.00000  Uiso   1.00
C1181  C     0.01882   0.90863   0.62452   0.00000  Uiso   1.00
H1182  H     0.03223   0.90035   0.65969   0.00000  Uiso   1.00
H1183  H     0.31830   0.93471   0.63557   0.00000  Uiso   1.00
H1184  H     0.06184   0.92893   0.60052   0.00000  Uiso   1.00
O1185  O     0.00436   0.87128   0.80513   0.00000  Uiso   1.00
C1186  C     0.00333   0.92475   0.80520   0.00000  Uiso   1.00
H1187  H     0.29120   0.93227   0.82405   0.00000  Uiso   1.00
H1188  H     0.01390   0.93937   0.76654   0.00000  Uiso   1.00
H1189  H     0.03875   0.94796   0.82653   0.00000  Uiso   1.00
O1190  O     0.00013   0.80086   0.69156   0.00000  Uiso   1.00
C1191  C     0.32572   0.74551   0.68803   0.00000  Uiso   1.00
H1192  H     0.27569   0.72859   0.69021   0.00000  Uiso   1.00
H1193  H     0.00602   0.72860   0.71907   0.00000  Uiso   1.00
C1194  C     0.02285   0.72664   0.63590   0.00000  Uiso   1.00
H1195  H     0.32276   0.69401   0.62053   0.00000  Uiso   1.00
H1196  H     0.03388   0.75876   0.61025   0.00000  Uiso   1.00
C1197  C     0.08133   0.70689   0.63584   0.00000  Uiso   1.00
H1198  H     0.11870   0.73855   0.64667   0.00000  Uiso   1.00
H1199  H     0.09813   0.69184   0.59712   0.00000  Uiso   1.00
H1200  H     0.07128   0.67480   0.66198   0.00000  Uiso   1.00
O1201  O     0.02279   0.89884   0.50376   0.00000  Uiso   1.00
C1202  C     0.04068   0.95404   0.50862   0.00000  Uiso   1.00
H1203  H     0.09216   0.96523   0.50235   0.00000  Uiso   1.00
H1204  H     0.02312   0.97044   0.54664   0.00000  Uiso   1.00
H1205  H     0.02541   0.97249   0.97956   0.00000  Uiso   1.00
O1206  O     0.30532   0.76510   0.98442   0.00000  Uiso   1.00
C1207  C     0.29299   0.73453   0.52686   0.00000  Uiso   1.00
H1208  H     0.28765   0.76012   0.56189   0.00000  Uiso   1.00
H1209  H     0.33042   0.71330   0.52653   0.00000  Uiso   1.00
C1210  C     0.23205   0.69423   0.52618   0.00000  Uiso   1.00
H1211  H     0.19423   0.71500   0.52584   0.00000  Uiso   1.00
H1212  H     0.23671   0.66820   0.99128   0.00000  Uiso   1.00
C1213  C     0.21452   0.99399   0.57203   0.00000  Uiso   1.00
H1214  H     0.25085   0.97209   0.57288   0.00000  Uiso   1.00
H1215  H     0.17057   0.96495   0.56984   0.00000  Uiso   1.00
H1216  H     0.20831   0.68565   0.60747   0.00000  Uiso   1.00
C1217  C     0.51496   0.93337   0.75203   0.00000  Uiso   1.00
C1218  C     0.47202   0.83419   0.98688   0.00000  Uiso   1.00
C1219  C     0.48848   0.84860   0.93615   0.00000  Uiso   1.00
C1220  C     0.51821   0.84841   0.51851   0.00000  Uiso   1.00
C1221  C     0.57985   0.87427   0.99802   0.00000  Uiso   1.00
C1222  C     0.59233   0.89166   0.94919   0.00000  Uiso   1.00
C1223  C     0.54605   0.88223   0.92062   0.00000  Uiso   1.00
C1224  C     0.50548   0.83691   0.56946   0.00000  Uiso   1.00
C1225  C     0.61436   0.86537   0.57620   0.00000  Uiso   1.00
C1226  C     0.44696   0.82945   0.90206   0.00000  Uiso   1.00
C1227  C     0.52250   0.98940   0.75509   0.00000  Uiso   1.00
C1228  C     0.46708   0.83213   0.84686   0.00000  Uiso   1.00
C1229  C     0.47831   0.67741   0.74477   0.00000  Uiso   1.00
C1230  C     0.48516   0.73334   0.74800   0.00000  Uiso   1.00
C1231  C     0.53326   0.83732   0.65321   0.00000  Uiso   1.00
C1232  C     0.62796   0.88234   0.52657   0.00000  Uiso   1.00
C1233  C     0.55223   0.84572   0.59860   0.00000  Uiso   1.00
C1234  C     0.38678   0.80182   0.92008   0.00000  Uiso   1.00
C1235  C     0.36769   0.78946   0.97020   0.00000  Uiso   1.00
C1236  C     0.41058   0.80557   0.50341   0.00000  Uiso   1.00
Cu1237 Cu    0.44043   0.82772   0.74436   0.00000  Uiso   1.00
Cu1238 Cu    0.55957   0.83895   0.75565   0.00000  Uiso   1.00
H1239  H     0.43719   0.98694   0.73270   0.00000  Uiso   1.00
H1240  H     0.63769   0.91319   0.93251   0.00000  Uiso   1.00
H1241  H     0.45891   0.82119   0.58772   0.00000  Uiso   1.00
H1242  H     0.35416   0.78813   0.89461   0.00000  Uiso   1.00
H1243  H     0.39433   0.79727   0.54189   0.00000  Uiso   1.00
H1244  H     0.55570   0.90177   0.88609   0.00000  Uiso   1.00
H1245  H     0.56436   0.67984   0.76657   0.00000  Uiso   1.00
N1246  N     0.64908   0.84741   0.76416   0.00000  Uiso   1.00
N1247  N     0.35092   0.81926   0.73584   0.00000  Uiso   1.00
O1248  O     0.46131   0.90474   0.74633   0.00000  Uiso   1.00
O1249  O     0.56191   0.91422   0.75587   0.00000  Uiso   1.00
O1250  O     0.42515   0.82627   0.81840   0.00000  Uiso   1.00
O1251  O     0.52575   0.83575   0.82793   0.00000  Uiso   1.00
O1252  O     0.43809   0.75245   0.74414   0.00000  Uiso   1.00
O1253  O     0.53869   0.76193   0.75367   0.00000  Uiso   1.00
O1254  O     0.47425   0.83092   0.67207   0.00000  Uiso   1.00
O1255  O     0.57485   0.84040   0.68161   0.00000  Uiso   1.00
O1256  O     0.66183   0.86057   0.59988   0.00000  Uiso   1.00
C1257  C     0.35215   0.90863   0.62452   0.00000  Uiso   1.00
H1258  H     0.36557   0.90035   0.65969   0.00000  Uiso   1.00
H1259  H     0.65163   0.93471   0.63557   0.00000  Uiso   1.00
H1260  H     0.39517   0.92893   0.60052   0.00000  Uiso   1.00
O1261  O     0.33770   0.87128   0.80513   0.00000  Uiso   1.00
C1262  C     0.33666   0.92475   0.80520   0.00000  Uiso   1.00
H1263  H     0.62453   0.93227   0.82405   0.00000  Uiso   1.00
H1264  H     0.34724   0.93937   0.76654   0.00000  Uiso   1.00
H1265  H     0.37208   0.94796   0.82653   0.00000  Uiso   1.00
O1266  O     0.33346   0.80086   0.69156   0.00000  Uiso   1.00
C1267  C     0.65905   0.74551   0.68803   0.00000  Uiso   1.00
H1268  H     0.60902   0.72859   0.69021   0.00000  Uiso   1.00
H1269  H     0.33935   0.72860   0.71907   0.00000  Uiso   1.00
C1270  C     0.35618   0.72664   0.63590   0.00000  Uiso   1.00
H1271  H     0.65609   0.69401   0.62053   0.00000  Uiso   1.00
H1272  H     0.36721   0.75876   0.61025   0.00000  Uiso   1.00
C1273  C     0.41466   0.70689   0.63584   0.00000  Uiso   1.00
H1274  H     0.45204   0.73855   0.64667   0.00000  Uiso   1.00
H1275  H     0.43146   0.69184   0.59712   0.00000  Uiso   1.00
H1276  H     0.40461   0.67480   0.66198   0.00000  Uiso   1.00
O1277  O     0.35612   0.89884   0.50376   0.00000  Uiso   1.00
C1278  C     0.37401   0.95404   0.50862   0.00000  Uiso   1.00
H1279  H     0.42549   0.96523   0.50235   0.00000  Uiso   1.00
H1280  H     0.35646   0.97044   0.54664   0.00000  Uiso   1.00
H1281  H     0.35874   0.97249   0.97956   0.00000  Uiso   1.00
O1282  O     0.63865   0.76510   0.98442   0.00000  Uiso   1.00
C1283  C     0.62632   0.73453   0.52686   0.00000  Uiso   1.00
H1284  H     0.62098   0.76012   0.56189   0.00000  Uiso   1.00
H1285  H     0.66375   0.71330   0.52653   0.00000  Uiso   1.00
C1286  C     0.56538   0.69423   0.52618   0.00000  Uiso   1.00
H1287  H     0.52756   0.71500   0.52584   0.00000  Uiso   1.00
H1288  H     0.57004   0.66820   0.99128   0.00000  Uiso   1.00
C1289  C     0.54786   0.99399   0.57203   0.00000  Uiso   1.00
H1290  H     0.58419   0.97209   0.57288   0.00000  Uiso   1.00
H1291  H     0.50390   0.96495   0.56984   0.00000  Uiso   1.00
H1292  H     0.54164   0.68565   0.60747   0.00000  Uiso   1.00
C1293  C     0.84830   0.93337   0.75203   0.00000  Uiso   1.00
C1294  C     0.80535   0.83419   0.98688   0.00000  Uiso   1.00
C1295  C     0.82181   0.84860   0.93615   0.00000  Uiso   1.00
C1296  C     0.85154   0.84841   0.51851   0.00000  Uiso   1.00
C1297  C     0.91318   0.87427   0.99802   0.00000  Uiso   1.00
C1298  C     0.92566   0.89166   0.94919   0.00000  Uiso   1.00
C1299  C     0.87938   0.88223   0.92062   0.00000  Uiso   1.00
C1300  C     0.83881   0.83691   0.56946   0.00000  Uiso   1.00
C1301  C     0.94769   0.86537   0.57620   0.00000  Uiso   1.00
C1302  C     0.78029   0.82945   0.90206   0.00000  Uiso   1.00
C1303  C     0.85583   0.98940   0.75509   0.00000  Uiso   1.00
C1304  C     0.80042   0.83213   0.84686   0.00000  Uiso   1.00
C1305  C     0.81164   0.67741   0.74477   0.00000  Uiso   1.00
C1306  C     0.81849   0.73334   0.74800   0.00000  Uiso   1.00
C1307  C     0.86660   0.83732   0.65321   0.00000  Uiso   1.00
C1308  C     0.96129   0.88234   0.52657   0.00000  Uiso   1.00
C1309  C     0.88556   0.84572   0.59860   0.00000  Uiso   1.00
C1310  C     0.72012   0.80182   0.92008   0.00000  Uiso   1.00
C1311  C     0.70103   0.78946   0.97020   0.00000  Uiso   1.00
C1312  C     0.74391   0.80557   0.50341   0.00000  Uiso   1.00
Cu1313 Cu    0.77377   0.82772   0.74436   0.00000  Uiso   1.00
Cu1314 Cu    0.89290   0.83895   0.75565   0.00000  Uiso   1.00
H1315  H     0.77053   0.98694   0.73270   0.00000  Uiso   1.00
H1316  H     0.97102   0.91319   0.93251   0.00000  Uiso   1.00
H1317  H     0.79224   0.82119   0.58772   0.00000  Uiso   1.00
H1318  H     0.68749   0.78813   0.89461   0.00000  Uiso   1.00
H1319  H     0.72766   0.79727   0.54189   0.00000  Uiso   1.00
H1320  H     0.88903   0.90177   0.88609   0.00000  Uiso   1.00
H1321  H     0.89769   0.67984   0.76657   0.00000  Uiso   1.00
N1322  N     0.98241   0.84741   0.76416   0.00000  Uiso   1.00
N1323  N     0.68426   0.81926   0.73584   0.00000  Uiso   1.00
O1324  O     0.79464   0.90474   0.74633   0.00000  Uiso   1.00
O1325  O     0.89524   0.91422   0.75587   0.00000  Uiso   1.00
O1326  O     0.75848   0.82627   0.81840   0.00000  Uiso   1.00
O1327  O     0.85908   0.83575   0.82793   0.00000  Uiso   1.00
O1328  O     0.77142   0.75245   0.74414   0.00000  Uiso   1.00
O1329  O     0.87203   0.76193   0.75367   0.00000  Uiso   1.00
O1330  O     0.80758   0.83092   0.67207   0.00000  Uiso   1.00
O1331  O     0.90819   0.84040   0.68161   0.00000  Uiso   1.00
O1332  O     0.99516   0.86057   0.59988   0.00000  Uiso   1.00
C1333  C     0.68548   0.90863   0.62452   0.00000  Uiso   1.00
H1334  H     0.69890   0.90035   0.65969   0.00000  Uiso   1.00
H1335  H     0.98496   0.93471   0.63557   0.00000  Uiso   1.00
H1336  H     0.72850   0.92893   0.60052   0.00000  Uiso   1.00
O1337  O     0.67103   0.87128   0.80513   0.00000  Uiso   1.00
C1338  C     0.66999   0.92475   0.80520   0.00000  Uiso   1.00
H1339  H     0.95787   0.93227   0.82405   0.00000  Uiso   1.00
H1340  H     0.68057   0.93937   0.76654   0.00000  Uiso   1.00
H1341  H     0.70542   0.94796   0.82653   0.00000  Uiso   1.00
O1342  O     0.66680   0.80086   0.69156   0.00000  Uiso   1.00
C1343  C     0.99238   0.74551   0.68803   0.00000  Uiso   1.00
H1344  H     0.94236   0.72859   0.69021   0.00000  Uiso   1.00
H1345  H     0.67269   0.72860   0.71907   0.00000  Uiso   1.00
C1346  C     0.68952   0.72664   0.63590   0.00000  Uiso   1.00
H1347  H     0.98942   0.69401   0.62053   0.00000  Uiso   1.00
H1348  H     0.70054   0.75876   0.61025   0.00000  Uiso   1.00
C1349  C     0.74800   0.70689   0.63584   0.00000  Uiso   1.00
H1350  H     0.78537   0.73855   0.64667   0.00000  Uiso   1.00
H1351  H     0.76480   0.69184   0.59712   0.00000  Uiso   1.00
H1352  H     0.73794   0.67480   0.66198   0.00000  Uiso   1.00
O1353  O     0.68945   0.89884   0.50376   0.00000  Uiso   1.00
C1354  C     0.70734   0.95404   0.50862   0.00000  Uiso   1.00
H1355  H     0.75882   0.96523   0.50235   0.00000  Uiso   1.00
H1356  H     0.68979   0.97044   0.54664   0.00000  Uiso   1.00
H1357  H     0.69208   0.97249   0.97956   0.00000  Uiso   1.00
O1358  O     0.97198   0.76510   0.98442   0.00000  Uiso   1.00
C1359  C     0.95966   0.73453   0.52686   0.00000  Uiso   1.00
H1360  H     0.95431   0.76012   0.56189   0.00000  Uiso   1.00
H1361  H     0.99709   0.71330   0.52653   0.00000  Uiso   1.00
C1362  C     0.89872   0.69423   0.52618   0.00000  Uiso   1.00
H1363  H     0.86089   0.71500   0.52584   0.00000  Uiso   1.00
H1364  H     0.90338   0.66820   0.99128   0.00000  Uiso   1.00
C1365  C     0.88119   0.99399   0.57203   0.00000  Uiso   1.00
H1366  H     0.91752   0.97209   0.57288   0.00000  Uiso   1.00
H1367  H     0.83724   0.96495   0.56984   0.00000  Uiso   1.00
H1368  H     0.87497   0.68565   0.60747   0.00000  Uiso   1.00
loop_
_geom_bond_atom_site_label_1
_geom_bond_atom_site_label_2
_geom_bond_distance
_geom_bond_site_symmetry_2
_ccdc_geom_bond_type
C1     O33     1.294   .     A
C1     O32     1.296   .     A
C1     C11     1.435   .     S
C2     C3      1.414   .     A
C2     C688    1.437   .     S
C2     C704    1.420   .     S
C3     C10     1.419   .     A
C3     C7      1.401   .     A
C4     C8      1.400   .     A
C4     C686    1.437   1_554 S
C4     C689    1.424   1_554 S
C5     C6      1.395   .     A
C5     C688    1.424   .     S
C5     C700    1.418   .     S
C6     H24     1.080   .     S
C6     C7      1.381   .     A
C7     H28     1.070   .     S
C8     C17     1.402   .     A
C8     H25     1.071   .     S
C9     C17     1.407   .     A
C9     C16     1.409   .     A
C9     O40     1.385   .     S
C10    C12     1.476   .     S
C10    C18     1.397   .     A
C11    C241    1.332   .     S
C11    H257    1.087   .     S
C12    O35     1.303   .     A
C12    O34     1.307   .     A
C13    C14     1.434   .     S
C13    C467    1.332   1_545 S
C13    H479    1.080   1_545 S
C14    O36     1.297   .     A
C14    O37     1.293   .     A
C15    O38     1.303   .     A
C15    O39     1.309   .     A
C15    C17     1.478   .     S
C16    C689    1.418   1_554 S
C16    O137    1.386   .     S
C18    H26     1.084   .     S
C18    C19     1.386   .     A
C19    C704    1.415   .     S
C19    O218    1.396   1_455 S
C20    H27     1.059   .     S
C20    C703    1.415   1_554 S
C20    C686    1.420   1_554 S
Cu21   Cu22    2.704   .     S
Cu21   O36     1.960   .     S
Cu21   O32     1.962   .     S
Cu21   O34     1.967   .     S
Cu21   O38     1.956   .     S
Cu21   N31     2.032   .     S
Cu22   O35     1.956   .     S
Cu22   O39     1.967   .     S
Cu22   O33     1.960   .     S
Cu22   N30     2.032   .     S
Cu22   O37     1.962   .     S
H23    C241    1.080   .     S
H29    C467    1.087   1_545 S
N30    N107    1.294   .     S
N30    O121    1.344   .     S
N31    O50     1.346   .     S
N31    N182    1.294   1_455 S
O40    C117    1.408   .     S
C41    H42     1.109   .     S
C41    H44     1.106   .     S
C41    O192    1.408   1_455 S
C41    H195    1.116   1_455 S
H43    C117    1.116   .     S
O45    C46     1.407   .     S
O45    N182    1.344   1_455 S
C46    H49     1.109   .     S
C46    H48     1.112   .     S
C46    H199    1.100   1_455 S
H47    C122    1.100   .     S
O50    C203    1.417   1_455 S
C51    H52     1.103   .     S
C51    O126    1.417   .     S
C51    H129    1.111   .     S
C51    C130    1.529   .     S
H53    C203    1.111   1_455 S
C54    H56     1.096   .     S
C54    C57     1.520   .     S
C54    C203    1.529   1_455 S
C54    H207    1.109   1_455 S
H55    C130    1.109   .     S
C57    H58     1.101   .     S
C57    H59     1.108   .     S
C57    H60     1.107   .     S
O61    C62     1.410   .     S
O61    C168    1.386   1_455 S
C62    H63     1.110   .     S
C62    H64     1.109   .     S
C62    H749    1.108   1_554 S
H65    C746    1.108   .     S
O66    C95     1.396   .     S
O66    C751    1.411   .     S
C67    C70     1.529   .     S
C67    H68     1.109   .     S
C67    H69     1.109   .     S
C67    O750    1.411   1_554 S
C70    H71     1.112   .     S
C70    H756    1.112   1_554 S
C70    C529    1.526   1_545 S
H72    C754    1.112   .     S
C73    H75     1.109   .     S
C73    H74     1.106   .     S
C73    C298    1.526   .     S
C73    H304    1.111   .     S
H76    C529    1.111   1_545 S
C77    O109    1.294   .     A
C77    O108    1.296   .     A
C77    C87     1.435   .     S
C78    C79     1.414   .     A
C78    C764    1.437   .     S
C78    C780    1.420   .     S
C79    C86     1.419   .     A
C79    C83     1.401   .     A
C80    C84     1.400   .     A
C80    C762    1.437   1_554 S
C80    C765    1.424   1_554 S
C81    C82     1.395   .     A
C81    C764    1.424   .     S
C81    C776    1.418   .     S
C82    H100    1.080   .     S
C82    C83     1.381   .     A
C83    H104    1.070   .     S
C84    C93     1.402   .     A
C84    H101    1.071   .     S
C85    C93     1.407   .     A
C85    C92     1.409   .     A
C85    O116    1.385   .     S
C86    C88     1.476   .     S
C86    C94     1.397   .     A
C87    C317    1.332   .     S
C87    H333    1.087   .     S
C88    O111    1.303   .     A
C88    O110    1.307   .     A
C89    C90     1.434   .     S
C89    C543    1.332   1_545 S
C89    H555    1.080   1_545 S
C90    O112    1.297   .     A
C90    O113    1.293   .     A
C91    O114    1.303   .     A
C91    O115    1.309   .     A
C91    C93     1.478   .     S
C92    C765    1.418   1_554 S
C92    O213    1.386   .     S
C94    H102    1.084   .     S
C94    C95     1.386   .     A
C95    C780    1.415   .     S
C96    H103    1.059   .     S
C96    C779    1.415   1_554 S
C96    C762    1.420   1_554 S
Cu97   Cu98    2.704   .     S
Cu97   O112    1.960   .     S
Cu97   O108    1.962   .     S
Cu97   O110    1.967   .     S
Cu97   O114    1.956   .     S
Cu97   N107    2.032   .     S
Cu98   O111    1.956   .     S
Cu98   O115    1.967   .     S
Cu98   O109    1.960   .     S
Cu98   N106    2.032   .     S
Cu98   O113    1.962   .     S
H99    C317    1.080   .     S
H105   C543    1.087   1_545 S
N106   N183    1.294   .     S
N106   O197    1.344   .     S
N107   O126    1.346   .     S
O116   C193    1.408   .     S
C117   H118    1.109   .     S
C117   H120    1.106   .     S
H119   C193    1.116   .     S
O121   C122    1.407   .     S
C122   H125    1.109   .     S
C122   H124    1.112   .     S
H123   C198    1.100   .     S
C127   H128    1.103   .     S
C127   O202    1.417   .     S
C127   H205    1.111   .     S
C127   C206    1.529   .     S
C130   H132    1.096   .     S
C130   C133    1.520   .     S
H131   C206    1.109   .     S
C133   H134    1.101   .     S
C133   H135    1.108   .     S
C133   H136    1.107   .     S
O137   C138    1.410   .     S
C138   H139    1.110   .     S
C138   H140    1.109   .     S
C138   H825    1.108   1_554 S
H141   C822    1.108   .     S
O142   C171    1.396   .     S
O142   C827    1.411   .     S
C143   C146    1.529   .     S
C143   H144    1.109   .     S
C143   H145    1.109   .     S
C143   O826    1.411   1_554 S
C146   H147    1.112   .     S
C146   H832    1.112   1_554 S
C146   C605    1.526   1_545 S
H148   C830    1.112   .     S
C149   H151    1.109   .     S
C149   H150    1.106   .     S
C149   C374    1.526   .     S
C149   H380    1.111   .     S
H152   C605    1.111   1_545 S
C153   O185    1.294   .     A
C153   O184    1.296   .     A
C153   C163    1.435   .     S
C154   C155    1.414   .     A
C154   C840    1.437   .     S
C154   C856    1.420   .     S
C155   C162    1.419   .     A
C155   C159    1.401   .     A
C156   C160    1.400   .     A
C156   C838    1.437   1_554 S
C156   C841    1.424   1_554 S
C157   C158    1.395   .     A
C157   C840    1.424   .     S
C157   C852    1.418   .     S
C158   H176    1.080   .     S
C158   C159    1.381   .     A
C159   H180    1.070   .     S
C160   C169    1.402   .     A
C160   H177    1.071   .     S
C161   C169    1.407   .     A
C161   C168    1.409   .     A
C161   O192    1.385   .     S
C162   C164    1.476   .     S
C162   C170    1.397   .     A
C163   C393    1.332   .     S
C163   H409    1.087   .     S
C164   O187    1.303   .     A
C164   O186    1.307   .     A
C165   C166    1.434   .     S
C165   C619    1.332   1_545 S
C165   H631    1.080   1_545 S
C166   O188    1.297   .     A
C166   O189    1.293   .     A
C167   O190    1.303   .     A
C167   O191    1.309   .     A
C167   C169    1.478   .     S
C168   C841    1.418   1_554 S
C168   O61     1.386   1_655 S
C170   H178    1.084   .     S
C170   C171    1.386   .     A
C171   C856    1.415   .     S
C172   H179    1.059   .     S
C172   C855    1.415   1_554 S
C172   C838    1.420   1_554 S
Cu173  Cu174   2.704   .     S
Cu173  O188    1.960   .     S
Cu173  O184    1.962   .     S
Cu173  O186    1.967   .     S
Cu173  O190    1.956   .     S
Cu173  N183    2.032   .     S
Cu174  O187    1.956   .     S
Cu174  O191    1.967   .     S
Cu174  O185    1.960   .     S
Cu174  N182    2.032   .     S
Cu174  O189    1.962   .     S
H175   C393    1.080   .     S
H181   C619    1.087   1_545 S
N182   N31     1.294   1_655 S
N182   O45     1.344   1_655 S
N183   O202    1.346   .     S
O192   C41     1.408   1_655 S
C193   H194    1.109   .     S
C193   H196    1.106   .     S
H195   C41     1.116   1_655 S
O197   C198    1.407   .     S
C198   H201    1.109   .     S
C198   H200    1.112   .     S
H199   C46     1.100   1_655 S
C203   H204    1.103   .     S
C203   O50     1.417   1_655 S
C203   H53     1.111   1_655 S
C203   C54     1.529   1_655 S
C206   H208    1.096   .     S
C206   C209    1.520   .     S
H207   C54     1.109   1_655 S
C209   H210    1.101   .     S
C209   H211    1.108   .     S
C209   H212    1.107   .     S
O213   C214    1.410   .     S
C214   H215    1.110   .     S
C214   H216    1.109   .     S
C214   H901    1.108   1_554 S
H217   C898    1.108   .     S
O218   C19     1.396   1_655 S
O218   C903    1.411   .     S
C219   C222    1.529   .     S
C219   H220    1.109   .     S
C219   H221    1.109   .     S
C219   O902    1.411   1_554 S
C222   H223    1.112   .     S
C222   H908    1.112   1_554 S
C222   C681    1.526   1_545 S
H224   C906    1.112   .     S
C225   H227    1.109   .     S
C225   H226    1.106   .     S
C225   C450    1.526   .     S
C225   H456    1.111   .     S
H228   C681    1.111   1_545 S
C229   O261    1.294   .     A
C229   O260    1.296   .     A
C229   C239    1.435   .     S
C230   C231    1.414   .     A
C230   C916    1.437   .     S
C230   C932    1.420   .     S
C231   C238    1.419   .     A
C231   C235    1.401   .     A
C232   C236    1.400   .     A
C232   C914    1.437   1_554 S
C232   C917    1.424   1_554 S
C233   C234    1.395   .     A
C233   C916    1.424   .     S
C233   C928    1.418   .     S
C234   H252    1.080   .     S
C234   C235    1.381   .     A
C235   H256    1.070   .     S
C236   C245    1.402   .     A
C236   H253    1.071   .     S
C237   C245    1.407   .     A
C237   C244    1.409   .     A
C237   O268    1.385   .     S
C238   C240    1.476   .     S
C238   C246    1.397   .     A
C239   C469    1.332   .     S
C239   H485    1.087   .     S
C240   O263    1.303   .     A
C240   O262    1.307   .     A
C241   C242    1.434   .     S
C242   O264    1.297   .     A
C242   O265    1.293   .     A
C243   O266    1.303   .     A
C243   O267    1.309   .     A
C243   C245    1.478   .     S
C244   C917    1.418   1_554 S
C244   O365    1.386   .     S
C246   H254    1.084   .     S
C246   C247    1.386   .     A
C247   C932    1.415   .     S
C247   O446    1.396   1_455 S
C248   H255    1.059   .     S
C248   C931    1.415   1_554 S
C248   C914    1.420   1_554 S
Cu249  Cu250   2.704   .     S
Cu249  O264    1.960   .     S
Cu249  O260    1.962   .     S
Cu249  O262    1.967   .     S
Cu249  O266    1.956   .     S
Cu249  N259    2.032   .     S
Cu250  O263    1.956   .     S
Cu250  O267    1.967   .     S
Cu250  O261    1.960   .     S
Cu250  N258    2.032   .     S
Cu250  O265    1.962   .     S
H251   C469    1.080   .     S
N258   N335    1.294   .     S
N258   O349    1.344   .     S
N259   O278    1.346   .     S
N259   N410    1.294   1_455 S
O268   C345    1.408   .     S
C269   H270    1.109   .     S
C269   H272    1.106   .     S
C269   O420    1.408   1_455 S
C269   H423    1.116   1_455 S
H271   C345    1.116   .     S
O273   C274    1.407   .     S
O273   N410    1.344   1_455 S
C274   H277    1.109   .     S
C274   H276    1.112   .     S
C274   H427    1.100   1_455 S
H275   C350    1.100   .     S
O278   C431    1.417   1_455 S
C279   H280    1.103   .     S
C279   O354    1.417   .     S
C279   H357    1.111   .     S
C279   C358    1.529   .     S
H281   C431    1.111   1_455 S
C282   H284    1.096   .     S
C282   C285    1.520   .     S
C282   C431    1.529   1_455 S
C282   H435    1.109   1_455 S
H283   C358    1.109   .     S
C285   H286    1.101   .     S
C285   H287    1.108   .     S
C285   H288    1.107   .     S
O289   C290    1.410   .     S
O289   C396    1.386   1_455 S
C290   H291    1.110   .     S
C290   H292    1.109   .     S
C290   H977    1.108   1_554 S
H293   C974    1.108   .     S
O294   C323    1.396   .     S
O294   C979    1.411   .     S
C295   C298    1.529   .     S
C295   H296    1.109   .     S
C295   H297    1.109   .     S
C295   O978    1.411   1_554 S
C298   H299    1.112   .     S
C298   H984    1.112   1_554 S
H300   C982    1.112   .     S
C301   H303    1.109   .     S
C301   H302    1.106   .     S
C301   C526    1.526   .     S
C301   H532    1.111   .     S
C305   O337    1.294   .     A
C305   O336    1.296   .     A
C305   C315    1.435   .     S
C306   C307    1.414   .     A
C306   C992    1.437   .     S
C306   C1008   1.420   .     S
C307   C314    1.419   .     A
C307   C311    1.401   .     A
C308   C312    1.400   .     A
C308   C990    1.437   1_554 S
C308   C993    1.424   1_554 S
C309   C310    1.395   .     A
C309   C992    1.424   .     S
C309   C1004   1.418   .     S
C310   H328    1.080   .     S
C310   C311    1.381   .     A
C311   H332    1.070   .     S
C312   C321    1.402   .     A
C312   H329    1.071   .     S
C313   C321    1.407   .     A
C313   C320    1.409   .     A
C313   O344    1.385   .     S
C314   C316    1.476   .     S
C314   C322    1.397   .     A
C315   C545    1.332   .     S
C315   H561    1.087   .     S
C316   O339    1.303   .     A
C316   O338    1.307   .     A
C317   C318    1.434   .     S
C318   O340    1.297   .     A
C318   O341    1.293   .     A
C319   O342    1.303   .     A
C319   O343    1.309   .     A
C319   C321    1.478   .     S
C320   C993    1.418   1_554 S
C320   O441    1.386   .     S
C322   H330    1.084   .     S
C322   C323    1.386   .     A
C323   C1008   1.415   .     S
C324   H331    1.059   .     S
C324   C1007   1.415   1_554 S
C324   C990    1.420   1_554 S
Cu325  Cu326   2.704   .     S
Cu325  O340    1.960   .     S
Cu325  O336    1.962   .     S
Cu325  O338    1.967   .     S
Cu325  O342    1.956   .     S
Cu325  N335    2.032   .     S
Cu326  O339    1.956   .     S
Cu326  O343    1.967   .     S
Cu326  O337    1.960   .     S
Cu326  N334    2.032   .     S
Cu326  O341    1.962   .     S
H327   C545    1.080   .     S
N334   N411    1.294   .     S
N334   O425    1.344   .     S
N335   O354    1.346   .     S
O344   C421    1.408   .     S
C345   H346    1.109   .     S
C345   H348    1.106   .     S
H347   C421    1.116   .     S
O349   C350    1.407   .     S
C350   H353    1.109   .     S
C350   H352    1.112   .     S
H351   C426    1.100   .     S
C355   H356    1.103   .     S
C355   O430    1.417   .     S
C355   H433    1.111   .     S
C355   C434    1.529   .     S
C358   H360    1.096   .     S
C358   C361    1.520   .     S
H359   C434    1.109   .     S
C361   H362    1.101   .     S
C361   H363    1.108   .     S
C361   H364    1.107   .     S
O365   C366    1.410   .     S
C366   H367    1.110   .     S
C366   H368    1.109   .     S
C366   H1053   1.108   1_554 S
H369   C1050   1.108   .     S
O370   C399    1.396   .     S
O370   C1055   1.411   .     S
C371   C374    1.529   .     S
C371   H372    1.109   .     S
C371   H373    1.109   .     S
C371   O1054   1.411   1_554 S
C374   H375    1.112   .     S
C374   H1060   1.112   1_554 S
H376   C1058   1.112   .     S
C377   H379    1.109   .     S
C377   H378    1.106   .     S
C377   C602    1.526   .     S
C377   H608    1.111   .     S
C381   O413    1.294   .     A
C381   O412    1.296   .     A
C381   C391    1.435   .     S
C382   C383    1.414   .     A
C382   C1068   1.437   .     S
C382   C1084   1.420   .     S
C383   C390    1.419   .     A
C383   C387    1.401   .     A
C384   C388    1.400   .     A
C384   C1066   1.437   1_554 S
C384   C1069   1.424   1_554 S
C385   C386    1.395   .     A
C385   C1068   1.424   .     S
C385   C1080   1.418   .     S
C386   H404    1.080   .     S
C386   C387    1.381   .     A
C387   H408    1.070   .     S
C388   C397    1.402   .     A
C388   H405    1.071   .     S
C389   C397    1.407   .     A
C389   C396    1.409   .     A
C389   O420    1.385   .     S
C390   C392    1.476   .     S
C390   C398    1.397   .     A
C391   C621    1.332   .     S
C391   H637    1.087   .     S
C392   O415    1.303   .     A
C392   O414    1.307   .     A
C393   C394    1.434   .     S
C394   O416    1.297   .     A
C394   O417    1.293   .     A
C395   O418    1.303   .     A
C395   O419    1.309   .     A
C395   C397    1.478   .     S
C396   C1069   1.418   1_554 S
C396   O289    1.386   1_655 S
C398   H406    1.084   .     S
C398   C399    1.386   .     A
C399   C1084   1.415   .     S
C400   H407    1.059   .     S
C400   C1083   1.415   1_554 S
C400   C1066   1.420   1_554 S
Cu401  Cu402   2.704   .     S
Cu401  O416    1.960   .     S
Cu401  O412    1.962   .     S
Cu401  O414    1.967   .     S
Cu401  O418    1.956   .     S
Cu401  N411    2.032   .     S
Cu402  O415    1.956   .     S
Cu402  O419    1.967   .     S
Cu402  O413    1.960   .     S
Cu402  N410    2.032   .     S
Cu402  O417    1.962   .     S
H403   C621    1.080   .     S
N410   N259    1.294   1_655 S
N410   O273    1.344   1_655 S
N411   O430    1.346   .     S
O420   C269    1.408   1_655 S
C421   H422    1.109   .     S
C421   H424    1.106   .     S
H423   C269    1.116   1_655 S
O425   C426    1.407   .     S
C426   H429    1.109   .     S
C426   H428    1.112   .     S
H427   C274    1.100   1_655 S
C431   H432    1.103   .     S
C431   O278    1.417   1_655 S
C431   H281    1.111   1_655 S
C431   C282    1.529   1_655 S
C434   H436    1.096   .     S
C434   C437    1.520   .     S
H435   C282    1.109   1_655 S
C437   H438    1.101   .     S
C437   H439    1.108   .     S
C437   H440    1.107   .     S
O441   C442    1.410   .     S
C442   H443    1.110   .     S
C442   H444    1.109   .     S
C442   H1129   1.108   1_554 S
H445   C1126   1.108   .     S
O446   C247    1.396   1_655 S
O446   C1131   1.411   .     S
C447   C450    1.529   .     S
C447   H448    1.109   .     S
C447   H449    1.109   .     S
C447   O1130   1.411   1_554 S
C450   H451    1.112   .     S
C450   H1136   1.112   1_554 S
H452   C1134   1.112   .     S
C453   H455    1.109   .     S
C453   H454    1.106   .     S
C453   C678    1.526   .     S
C453   H684    1.111   .     S
C457   O489    1.294   .     A
C457   O488    1.296   .     A
C457   C467    1.435   .     S
C458   C459    1.414   .     A
C458   C1144   1.437   .     S
C458   C1160   1.420   .     S
C459   C466    1.419   .     A
C459   C463    1.401   .     A
C460   C464    1.400   .     A
C460   C1142   1.437   1_554 S
C460   C1145   1.424   1_554 S
C461   C462    1.395   .     A
C461   C1144   1.424   .     S
C461   C1156   1.418   .     S
C462   H480    1.080   .     S
C462   C463    1.381   .     A
C463   H484    1.070   .     S
C464   C473    1.402   .     A
C464   H481    1.071   .     S
C465   C473    1.407   .     A
C465   C472    1.409   .     A
C465   O496    1.385   .     S
C466   C468    1.476   .     S
C466   C474    1.397   .     A
C467   C13     1.332   1_565 S
C467   H29     1.087   1_565 S
C468   O491    1.303   .     A
C468   O490    1.307   .     A
C469   C470    1.434   .     S
C470   O492    1.297   .     A
C470   O493    1.293   .     A
C471   O494    1.303   .     A
C471   O495    1.309   .     A
C471   C473    1.478   .     S
C472   C1145   1.418   1_554 S
C472   O593    1.386   .     S
C474   H482    1.084   .     S
C474   C475    1.386   .     A
C475   C1160   1.415   .     S
C475   O674    1.396   1_455 S
C476   H483    1.059   .     S
C476   C1159   1.415   1_554 S
C476   C1142   1.420   1_554 S
Cu477  Cu478   2.704   .     S
Cu477  O492    1.960   .     S
Cu477  O488    1.962   .     S
Cu477  O490    1.967   .     S
Cu477  O494    1.956   .     S
Cu477  N487    2.032   .     S
Cu478  O491    1.956   .     S
Cu478  O495    1.967   .     S
Cu478  O489    1.960   .     S
Cu478  N486    2.032   .     S
Cu478  O493    1.962   .     S
H479   C13     1.080   1_565 S
N486   N563    1.294   .     S
N486   O577    1.344   .     S
N487   O506    1.346   .     S
N487   N638    1.294   1_455 S
O496   C573    1.408   .     S
C497   H498    1.109   .     S
C497   H500    1.106   .     S
C497   O648    1.408   1_455 S
C497   H651    1.116   1_455 S
H499   C573    1.116   .     S
O501   C502    1.407   .     S
O501   N638    1.344   1_455 S
C502   H505    1.109   .     S
C502   H504    1.112   .     S
C502   H655    1.100   1_455 S
H503   C578    1.100   .     S
O506   C659    1.417   1_455 S
C507   H508    1.103   .     S
C507   O582    1.417   .     S
C507   H585    1.111   .     S
C507   C586    1.529   .     S
H509   C659    1.111   1_455 S
C510   H512    1.096   .     S
C510   C513    1.520   .     S
C510   C659    1.529   1_455 S
C510   H663    1.109   1_455 S
H511   C586    1.109   .     S
C513   H514    1.101   .     S
C513   H515    1.108   .     S
C513   H516    1.107   .     S
O517   C518    1.410   .     S
O517   C624    1.386   1_455 S
C518   H519    1.110   .     S
C518   H520    1.109   .     S
C518   H1205   1.108   1_554 S
H521   C1202   1.108   .     S
O522   C551    1.396   .     S
O522   C1207   1.411   .     S
C523   C526    1.529   .     S
C523   H524    1.109   .     S
C523   H525    1.109   .     S
C523   O1206   1.411   1_554 S
C526   H527    1.112   .     S
C526   H1212   1.112   1_554 S
H528   C1210   1.112   .     S
C529   H531    1.109   .     S
C529   H530    1.106   .     S
C529   C70     1.526   1_565 S
C529   H76     1.111   1_565 S
C533   O565    1.294   .     A
C533   O564    1.296   .     A
C533   C543    1.435   .     S
C534   C535    1.414   .     A
C534   C1220   1.437   .     S
C534   C1236   1.420   .     S
C535   C542    1.419   .     A
C535   C539    1.401   .     A
C536   C540    1.400   .     A
C536   C1218   1.437   1_554 S
C536   C1221   1.424   1_554 S
C537   C538    1.395   .     A
C537   C1220   1.424   .     S
C537   C1232   1.418   .     S
C538   H556    1.080   .     S
C538   C539    1.381   .     A
C539   H560    1.070   .     S
C540   C549    1.402   .     A
C540   H557    1.071   .     S
C541   C549    1.407   .     A
C541   C548    1.409   .     A
C541   O572    1.385   .     S
C542   C544    1.476   .     S
C542   C550    1.397   .     A
C543   C89     1.332   1_565 S
C543   H105    1.087   1_565 S
C544   O567    1.303   .     A
C544   O566    1.307   .     A
C545   C546    1.434   .     S
C546   O568    1.297   .     A
C546   O569    1.293   .     A
C547   O570    1.303   .     A
C547   O571    1.309   .     A
C547   C549    1.478   .     S
C548   C1221   1.418   1_554 S
C548   O669    1.386   .     S
C550   H558    1.084   .     S
C550   C551    1.386   .     A
C551   C1236   1.415   .     S
C552   H559    1.059   .     S
C552   C1235   1.415   1_554 S
C552   C1218   1.420   1_554 S
Cu553  Cu554   2.704   .     S
Cu553  O568    1.960   .     S
Cu553  O564    1.962   .     S
Cu553  O566    1.967   .     S
Cu553  O570    1.956   .     S
Cu553  N563    2.032   .     S
Cu554  O567    1.956   .     S
Cu554  O571    1.967   .     S
Cu554  O565    1.960   .     S
Cu554  N562    2.032   .     S
Cu554  O569    1.962   .     S
H555   C89     1.080   1_565 S
N562   N639    1.294   .     S
N562   O653    1.344   .     S
N563   O582    1.346   .     S
O572   C649    1.408   .     S
C573   H574    1.109   .     S
C573   H576    1.106   .     S
H575   C649    1.116   .     S
O577   C578    1.407   .     S
C578   H581    1.109   .     S
C578   H580    1.112   .     S
H579   C654    1.100   .     S
C583   H584    1.103   .     S
C583   O658    1.417   .     S
C583   H661    1.111   .     S
C583   C662    1.529   .     S
C586   H588    1.096   .     S
C586   C589    1.520   .     S
H587   C662    1.109   .     S
C589   H590    1.101   .     S
C589   H591    1.108   .     S
C589   H592    1.107   .     S
O593   C594    1.410   .     S
C594   H595    1.110   .     S
C594   H596    1.109   .     S
C594   H1281   1.108   1_554 S
H597   C1278   1.108   .     S
O598   C627    1.396   .     S
O598   C1283   1.411   .     S
C599   C602    1.529   .     S
C599   H600    1.109   .     S
C599   H601    1.109   .     S
C599   O1282   1.411   1_554 S
C602   H603    1.112   .     S
C602   H1288   1.112   1_554 S
H604   C1286   1.112   .     S
C605   H607    1.109   .     S
C605   H606    1.106   .     S
C605   C146    1.526   1_565 S
C605   H152    1.111   1_565 S
C609   O641    1.294   .     A
C609   O640    1.296   .     A
C609   C619    1.435   .     S
C610   C611    1.414   .     A
C610   C1296   1.437   .     S
C610   C1312   1.420   .     S
C611   C618    1.419   .     A
C611   C615    1.401   .     A
C612   C616    1.400   .     A
C612   C1294   1.437   1_554 S
C612   C1297   1.424   1_554 S
C613   C614    1.395   .     A
C613   C1296   1.424   .     S
C613   C1308   1.418   .     S
C614   H632    1.080   .     S
C614   C615    1.381   .     A
C615   H636    1.070   .     S
C616   C625    1.402   .     A
C616   H633    1.071   .     S
C617   C625    1.407   .     A
C617   C624    1.409   .     A
C617   O648    1.385   .     S
C618   C620    1.476   .     S
C618   C626    1.397   .     A
C619   C165    1.332   1_565 S
C619   H181    1.087   1_565 S
C620   O643    1.303   .     A
C620   O642    1.307   .     A
C621   C622    1.434   .     S
C622   O644    1.297   .     A
C622   O645    1.293   .     A
C623   O646    1.303   .     A
C623   O647    1.309   .     A
C623   C625    1.478   .     S
C624   C1297   1.418   1_554 S
C624   O517    1.386   1_655 S
C626   H634    1.084   .     S
C626   C627    1.386   .     A
C627   C1312   1.415   .     S
C628   H635    1.059   .     S
C628   C1311   1.415   1_554 S
C628   C1294   1.420   1_554 S
Cu629  Cu630   2.704   .     S
Cu629  O644    1.960   .     S
Cu629  O640    1.962   .     S
Cu629  O642    1.967   .     S
Cu629  O646    1.956   .     S
Cu629  N639    2.032   .     S
Cu630  O643    1.956   .     S
Cu630  O647    1.967   .     S
Cu630  O641    1.960   .     S
Cu630  N638    2.032   .     S
Cu630  O645    1.962   .     S
H631   C165    1.080   1_565 S
N638   N487    1.294   1_655 S
N638   O501    1.344   1_655 S
N639   O658    1.346   .     S
O648   C497    1.408   1_655 S
C649   H650    1.109   .     S
C649   H652    1.106   .     S
H651   C497    1.116   1_655 S
O653   C654    1.407   .     S
C654   H657    1.109   .     S
C654   H656    1.112   .     S
H655   C502    1.100   1_655 S
C659   H660    1.103   .     S
C659   O506    1.417   1_655 S
C659   H509    1.111   1_655 S
C659   C510    1.529   1_655 S
C662   H664    1.096   .     S
C662   C665    1.520   .     S
H663   C510    1.109   1_655 S
C665   H666    1.101   .     S
C665   H667    1.108   .     S
C665   H668    1.107   .     S
O669   C670    1.410   .     S
C670   H671    1.110   .     S
C670   H672    1.109   .     S
C670   H1357   1.108   1_554 S
H673   C1354   1.108   .     S
O674   C475    1.396   1_655 S
O674   C1359   1.411   .     S
C675   C678    1.529   .     S
C675   H676    1.109   .     S
C675   H677    1.109   .     S
C675   O1358   1.411   1_554 S
C678   H679    1.112   .     S
C678   H1364   1.112   1_554 S
H680   C1362   1.112   .     S
C681   H683    1.109   .     S
C681   H682    1.106   .     S
C681   C222    1.526   1_565 S
C681   H228    1.111   1_565 S
C685   O717    1.294   .     A
C685   O716    1.296   .     A
C685   C695    1.435   .     S
C686   C687    1.414   .     A
C686   C4      1.437   1_556 S
C686   C20     1.420   1_556 S
C687   C694    1.419   .     A
C687   C691    1.401   .     A
C688   C692    1.400   .     A
C689   C690    1.395   .     A
C689   C4      1.424   1_556 S
C689   C16     1.418   1_556 S
C690   H708    1.080   .     S
C690   C691    1.381   .     A
C691   H712    1.070   .     S
C692   C701    1.402   .     A
C692   H709    1.071   .     S
C693   C701    1.407   .     A
C693   C700    1.409   .     A
C693   O724    1.385   .     S
C694   C696    1.476   .     S
C694   C702    1.397   .     A
C695   C925    1.332   .     S
C695   H941    1.087   .     S
C696   O719    1.303   .     A
C696   O718    1.307   .     A
C697   C698    1.434   .     S
C697   C1151   1.332   1_545 S
C697   H1163   1.080   1_545 S
C698   O720    1.297   .     A
C698   O721    1.293   .     A
C699   O722    1.303   .     A
C699   O723    1.309   .     A
C699   C701    1.478   .     S
C700   O821    1.386   .     S
C702   H710    1.084   .     S
C702   C703    1.386   .     A
C703   C20     1.415   1_556 S
C703   O902    1.396   1_455 S
C704   H711    1.059   .     S
Cu705  Cu706   2.704   .     S
Cu705  O720    1.960   .     S
Cu705  O716    1.962   .     S
Cu705  O718    1.967   .     S
Cu705  O722    1.956   .     S
Cu705  N715    2.032   .     S
Cu706  O719    1.956   .     S
Cu706  O723    1.967   .     S
Cu706  O717    1.960   .     S
Cu706  N714    2.032   .     S
Cu706  O721    1.962   .     S
H707   C925    1.080   .     S
H713   C1151   1.087   1_545 S
N714   N791    1.294   .     S
N714   O805    1.344   .     S
N715   O734    1.346   .     S
N715   N866    1.294   1_455 S
O724   C801    1.408   .     S
C725   H726    1.109   .     S
C725   H728    1.106   .     S
C725   O876    1.408   1_455 S
C725   H879    1.116   1_455 S
H727   C801    1.116   .     S
O729   C730    1.407   .     S
O729   N866    1.344   1_455 S
C730   H733    1.109   .     S
C730   H732    1.112   .     S
C730   H883    1.100   1_455 S
H731   C806    1.100   .     S
O734   C887    1.417   1_455 S
C735   H736    1.103   .     S
C735   O810    1.417   .     S
C735   H813    1.111   .     S
C735   C814    1.529   .     S
H737   C887    1.111   1_455 S
C738   H740    1.096   .     S
C738   C741    1.520   .     S
C738   C887    1.529   1_455 S
C738   H891    1.109   1_455 S
H739   C814    1.109   .     S
C741   H742    1.101   .     S
C741   H743    1.108   .     S
C741   H744    1.107   .     S
O745   C746    1.410   .     S
O745   C852    1.386   1_455 S
C746   H747    1.110   .     S
C746   H748    1.109   .     S
H749   C62     1.108   1_556 S
O750   C779    1.396   .     S
O750   C67     1.411   1_556 S
C751   C754    1.529   .     S
C751   H752    1.109   .     S
C751   H753    1.109   .     S
C754   H755    1.112   .     S
C754   C1213   1.526   1_545 S
H756   C70     1.112   1_556 S
C757   H759    1.109   .     S
C757   H758    1.106   .     S
C757   C982    1.526   .     S
C757   H988    1.111   .     S
H760   C1213   1.111   1_545 S
C761   O793    1.294   .     A
C761   O792    1.296   .     A
C761   C771    1.435   .     S
C762   C763    1.414   .     A
C762   C80     1.437   1_556 S
C762   C96     1.420   1_556 S
C763   C770    1.419   .     A
C763   C767    1.401   .     A
C764   C768    1.400   .     A
C765   C766    1.395   .     A
C765   C80     1.424   1_556 S
C765   C92     1.418   1_556 S
C766   H784    1.080   .     S
C766   C767    1.381   .     A
C767   H788    1.070   .     S
C768   C777    1.402   .     A
C768   H785    1.071   .     S
C769   C777    1.407   .     A
C769   C776    1.409   .     A
C769   O800    1.385   .     S
C770   C772    1.476   .     S
C770   C778    1.397   .     A
C771   C1001   1.332   .     S
C771   H1017   1.087   .     S
C772   O795    1.303   .     A
C772   O794    1.307   .     A
C773   C774    1.434   .     S
C773   C1227   1.332   1_545 S
C773   H1239   1.080   1_545 S
C774   O796    1.297   .     A
C774   O797    1.293   .     A
C775   O798    1.303   .     A
C775   O799    1.309   .     A
C775   C777    1.478   .     S
C776   O897    1.386   .     S
C778   H786    1.084   .     S
C778   C779    1.386   .     A
C779   C96     1.415   1_556 S
C780   H787    1.059   .     S
Cu781  Cu782   2.704   .     S
Cu781  O796    1.960   .     S
Cu781  O792    1.962   .     S
Cu781  O794    1.967   .     S
Cu781  O798    1.956   .     S
Cu781  N791    2.032   .     S
Cu782  O795    1.956   .     S
Cu782  O799    1.967   .     S
Cu782  O793    1.960   .     S
Cu782  N790    2.032   .     S
Cu782  O797    1.962   .     S
H783   C1001   1.080   .     S
H789   C1227   1.087   1_545 S
N790   N867    1.294   .     S
N790   O881    1.344   .     S
N791   O810    1.346   .     S
O800   C877    1.408   .     S
C801   H802    1.109   .     S
C801   H804    1.106   .     S
H803   C877    1.116   .     S
O805   C806    1.407   .     S
C806   H809    1.109   .     S
C806   H808    1.112   .     S
H807   C882    1.100   .     S
C811   H812    1.103   .     S
C811   O886    1.417   .     S
C811   H889    1.111   .     S
C811   C890    1.529   .     S
C814   H816    1.096   .     S
C814   C817    1.520   .     S
H815   C890    1.109   .     S
C817   H818    1.101   .     S
C817   H819    1.108   .     S
C817   H820    1.107   .     S
O821   C822    1.410   .     S
C822   H823    1.110   .     S
C822   H824    1.109   .     S
H825   C138    1.108   1_556 S
O826   C855    1.396   .     S
O826   C143    1.411   1_556 S
C827   C830    1.529   .     S
C827   H828    1.109   .     S
C827   H829    1.109   .     S
C830   H831    1.112   .     S
C830   C1289   1.526   1_545 S
H832   C146    1.112   1_556 S
C833   H835    1.109   .     S
C833   H834    1.106   .     S
C833   C1058   1.526   .     S
C833   H1064   1.111   .     S
H836   C1289   1.111   1_545 S
C837   O869    1.294   .     A
C837   O868    1.296   .     A
C837   C847    1.435   .     S
C838   C839    1.414   .     A
C838   C156    1.437   1_556 S
C838   C172    1.420   1_556 S
C839   C846    1.419   .     A
C839   C843    1.401   .     A
C840   C844    1.400   .     A
C841   C842    1.395   .     A
C841   C156    1.424   1_556 S
C841   C168    1.418   1_556 S
C842   H860    1.080   .     S
C842   C843    1.381   .     A
C843   H864    1.070   .     S
C844   C853    1.402   .     A
C844   H861    1.071   .     S
C845   C853    1.407   .     A
C845   C852    1.409   .     A
C845   O876    1.385   .     S
C846   C848    1.476   .     S
C846   C854    1.397   .     A
C847   C1077   1.332   .     S
C847   H1093   1.087   .     S
C848   O871    1.303   .     A
C848   O870    1.307   .     A
C849   C850    1.434   .     S
C849   C1303   1.332   1_545 S
C849   H1315   1.080   1_545 S
C850   O872    1.297   .     A
C850   O873    1.293   .     A
C851   O874    1.303   .     A
C851   O875    1.309   .     A
C851   C853    1.478   .     S
C852   O745    1.386   1_655 S
C854   H862    1.084   .     S
C854   C855    1.386   .     A
C855   C172    1.415   1_556 S
C856   H863    1.059   .     S
Cu857  Cu858   2.704   .     S
Cu857  O872    1.960   .     S
Cu857  O868    1.962   .     S
Cu857  O870    1.967   .     S
Cu857  O874    1.956   .     S
Cu857  N867    2.032   .     S
Cu858  O871    1.956   .     S
Cu858  O875    1.967   .     S
Cu858  O869    1.960   .     S
Cu858  N866    2.032   .     S
Cu858  O873    1.962   .     S
H859   C1077   1.080   .     S
H865   C1303   1.087   1_545 S
N866   N715    1.294   1_655 S
N866   O729    1.344   1_655 S
N867   O886    1.346   .     S
O876   C725    1.408   1_655 S
C877   H878    1.109   .     S
C877   H880    1.106   .     S
H879   C725    1.116   1_655 S
O881   C882    1.407   .     S
C882   H885    1.109   .     S
C882   H884    1.112   .     S
H883   C730    1.100   1_655 S
C887   H888    1.103   .     S
C887   O734    1.417   1_655 S
C887   H737    1.111   1_655 S
C887   C738    1.529   1_655 S
C890   H892    1.096   .     S
C890   C893    1.520   .     S
H891   C738    1.109   1_655 S
C893   H894    1.101   .     S
C893   H895    1.108   .     S
C893   H896    1.107   .     S
O897   C898    1.410   .     S
C898   H899    1.110   .     S
C898   H900    1.109   .     S
H901   C214    1.108   1_556 S
O902   C703    1.396   1_655 S
O902   C219    1.411   1_556 S
C903   C906    1.529   .     S
C903   H904    1.109   .     S
C903   H905    1.109   .     S
C906   H907    1.112   .     S
C906   C1365   1.526   1_545 S
H908   C222    1.112   1_556 S
C909   H911    1.109   .     S
C909   H910    1.106   .     S
C909   C1134   1.526   .     S
C909   H1140   1.111   .     S
H912   C1365   1.111   1_545 S
C913   O945    1.294   .     A
C913   O944    1.296   .     A
C913   C923    1.435   .     S
C914   C915    1.414   .     A
C914   C232    1.437   1_556 S
C914   C248    1.420   1_556 S
C915   C922    1.419   .     A
C915   C919    1.401   .     A
C916   C920    1.400   .     A
C917   C918    1.395   .     A
C917   C232    1.424   1_556 S
C917   C244    1.418   1_556 S
C918   H936    1.080   .     S
C918   C919    1.381   .     A
C919   H940    1.070   .     S
C920   C929    1.402   .     A
C920   H937    1.071   .     S
C921   C929    1.407   .     A
C921   C928    1.409   .     A
C921   O952    1.385   .     S
C922   C924    1.476   .     S
C922   C930    1.397   .     A
C923   C1153   1.332   .     S
C923   H1169   1.087   .     S
C924   O947    1.303   .     A
C924   O946    1.307   .     A
C925   C926    1.434   .     S
C926   O948    1.297   .     A
C926   O949    1.293   .     A
C927   O950    1.303   .     A
C927   O951    1.309   .     A
C927   C929    1.478   .     S
C928   O1049   1.386   .     S
C930   H938    1.084   .     S
C930   C931    1.386   .     A
C931   C248    1.415   1_556 S
C931   O1130   1.396   1_455 S
C932   H939    1.059   .     S
Cu933  Cu934   2.704   .     S
Cu933  O948    1.960   .     S
Cu933  O944    1.962   .     S
Cu933  O946    1.967   .     S
Cu933  O950    1.956   .     S
Cu933  N943    2.032   .     S
Cu934  O947    1.956   .     S
Cu934  O951    1.967   .     S
Cu934  O945    1.960   .     S
Cu934  N942    2.032   .     S
Cu934  O949    1.962   .     S
H935   C1153   1.080   .     S
N942   N1019   1.294   .     S
N942   O1033   1.344   .     S
N943   O962    1.346   .     S
N943   N1094   1.294   1_455 S
O952   C1029   1.408   .     S
C953   H954    1.109   .     S
C953   H956    1.106   .     S
C953   O1104   1.408   1_455 S
C953   H1107   1.116   1_455 S
H955   C1029   1.116   .     S
O957   C958    1.407   .     S
O957   N1094   1.344   1_455 S
C958   H961    1.109   .     S
C958   H960    1.112   .     S
C958   H1111   1.100   1_455 S
H959   C1034   1.100   .     S
O962   C1115   1.417   1_455 S
C963   H964    1.103   .     S
C963   O1038   1.417   .     S
C963   H1041   1.111   .     S
C963   C1042   1.529   .     S
H965   C1115   1.111   1_455 S
C966   H968    1.096   .     S
C966   C969    1.520   .     S
C966   C1115   1.529   1_455 S
C966   H1119   1.109   1_455 S
H967   C1042   1.109   .     S
C969   H970    1.101   .     S
C969   H971    1.108   .     S
C969   H972    1.107   .     S
O973   C974    1.410   .     S
O973   C1080   1.386   1_455 S
C974   H975    1.110   .     S
C974   H976    1.109   .     S
H977   C290    1.108   1_556 S
O978   C1007   1.396   .     S
O978   C295    1.411   1_556 S
C979   C982    1.529   .     S
C979   H980    1.109   .     S
C979   H981    1.109   .     S
C982   H983    1.112   .     S
H984   C298    1.112   1_556 S
C985   H987    1.109   .     S
C985   H986    1.106   .     S
C985   C1210   1.526   .     S
C985   H1216   1.111   .     S
C989   O1021   1.294   .     A
C989   O1020   1.296   .     A
C989   C999    1.435   .     S
C990   C991    1.414   .     A
C990   C308    1.437   1_556 S
C990   C324    1.420   1_556 S
C991   C998    1.419   .     A
C991   C995    1.401   .     A
C992   C996    1.400   .     A
C993   C994    1.395   .     A
C993   C308    1.424   1_556 S
C993   C320    1.418   1_556 S
C994   H1012   1.080   .     S
C994   C995    1.381   .     A
C995   H1016   1.070   .     S
C996   C1005   1.402   .     A
C996   H1013   1.071   .     S
C997   C1005   1.407   .     A
C997   C1004   1.409   .     A
C997   O1028   1.385   .     S
C998   C1000   1.476   .     S
C998   C1006   1.397   .     A
C999   C1229   1.332   .     S
C999   H1245   1.087   .     S
C1000  O1023   1.303   .     A
C1000  O1022   1.307   .     A
C1001  C1002   1.434   .     S
C1002  O1024   1.297   .     A
C1002  O1025   1.293   .     A
C1003  O1026   1.303   .     A
C1003  O1027   1.309   .     A
C1003  C1005   1.478   .     S
C1004  O1125   1.386   .     S
C1006  H1014   1.084   .     S
C1006  C1007   1.386   .     A
C1007  C324    1.415   1_556 S
C1008  H1015   1.059   .     S
Cu1009 Cu1010  2.704   .     S
Cu1009 O1024   1.960   .     S
Cu1009 O1020   1.962   .     S
Cu1009 O1022   1.967   .     S
Cu1009 O1026   1.956   .     S
Cu1009 N1019   2.032   .     S
Cu1010 O1023   1.956   .     S
Cu1010 O1027   1.967   .     S
Cu1010 O1021   1.960   .     S
Cu1010 N1018   2.032   .     S
Cu1010 O1025   1.962   .     S
H1011  C1229   1.080   .     S
N1018  N1095   1.294   .     S
N1018  O1109   1.344   .     S
N1019  O1038   1.346   .     S
O1028  C1105   1.408   .     S
C1029  H1030   1.109   .     S
C1029  H1032   1.106   .     S
H1031  C1105   1.116   .     S
O1033  C1034   1.407   .     S
C1034  H1037   1.109   .     S
C1034  H1036   1.112   .     S
H1035  C1110   1.100   .     S
C1039  H1040   1.103   .     S
C1039  O1114   1.417   .     S
C1039  H1117   1.111   .     S
C1039  C1118   1.529   .     S
C1042  H1044   1.096   .     S
C1042  C1045   1.520   .     S
H1043  C1118   1.109   .     S
C1045  H1046   1.101   .     S
C1045  H1047   1.108   .     S
C1045  H1048   1.107   .     S
O1049  C1050   1.410   .     S
C1050  H1051   1.110   .     S
C1050  H1052   1.109   .     S
H1053  C366    1.108   1_556 S
O1054  C1083   1.396   .     S
O1054  C371    1.411   1_556 S
C1055  C1058   1.529   .     S
C1055  H1056   1.109   .     S
C1055  H1057   1.109   .     S
C1058  H1059   1.112   .     S
H1060  C374    1.112   1_556 S
C1061  H1063   1.109   .     S
C1061  H1062   1.106   .     S
C1061  C1286   1.526   .     S
C1061  H1292   1.111   .     S
C1065  O1097   1.294   .     A
C1065  O1096   1.296   .     A
C1065  C1075   1.435   .     S
C1066  C1067   1.414   .     A
C1066  C384    1.437   1_556 S
C1066  C400    1.420   1_556 S
C1067  C1074   1.419   .     A
C1067  C1071   1.401   .     A
C1068  C1072   1.400   .     A
C1069  C1070   1.395   .     A
C1069  C384    1.424   1_556 S
C1069  C396    1.418   1_556 S
C1070  H1088   1.080   .     S
C1070  C1071   1.381   .     A
C1071  H1092   1.070   .     S
C1072  C1081   1.402   .     A
C1072  H1089   1.071   .     S
C1073  C1081   1.407   .     A
C1073  C1080   1.409   .     A
C1073  O1104   1.385   .     S
C1074  C1076   1.476   .     S
C1074  C1082   1.397   .     A
C1075  C1305   1.332   .     S
C1075  H1321   1.087   .     S
C1076  O1099   1.303   .     A
C1076  O1098   1.307   .     A
C1077  C1078   1.434   .     S
C1078  O1100   1.297   .     A
C1078  O1101   1.293   .     A
C1079  O1102   1.303   .     A
C1079  O1103   1.309   .     A
C1079  C1081   1.478   .     S
C1080  O973    1.386   1_655 S
C1082  H1090   1.084   .     S
C1082  C1083   1.386   .     A
C1083  C400    1.415   1_556 S
C1084  H1091   1.059   .     S
Cu1085 Cu1086  2.704   .     S
Cu1085 O1100   1.960   .     S
Cu1085 O1096   1.962   .     S
Cu1085 O1098   1.967   .     S
Cu1085 O1102   1.956   .     S
Cu1085 N1095   2.032   .     S
Cu1086 O1099   1.956   .     S
Cu1086 O1103   1.967   .     S
Cu1086 O1097   1.960   .     S
Cu1086 N1094   2.032   .     S
Cu1086 O1101   1.962   .     S
H1087  C1305   1.080   .     S
N1094  N943    1.294   1_655 S
N1094  O957    1.344   1_655 S
N1095  O1114   1.346   .     S
O1104  C953    1.408   1_655 S
C1105  H1106   1.109   .     S
C1105  H1108   1.106   .     S
H1107  C953    1.116   1_655 S
O1109  C1110   1.407   .     S
C1110  H1113   1.109   .     S
C1110  H1112   1.112   .     S
H1111  C958    1.100   1_655 S
C1115  H1116   1.103   .     S
C1115  O962    1.417   1_655 S
C1115  H965    1.111   1_655 S
C1115  C966    1.529   1_655 S
C1118  H1120   1.096   .     S
C1118  C1121   1.520   .     S
H1119  C966    1.109   1_655 S
C1121  H1122   1.101   .     S
C1121  H1123   1.108   .     S
C1121  H1124   1.107   .     S
O1125  C1126   1.410   .     S
C1126  H1127   1.110   .     S
C1126  H1128   1.109   .     S
H1129  C442    1.108   1_556 S
O1130  C931    1.396   1_655 S
O1130  C447    1.411   1_556 S
C1131  C1134   1.529   .     S
C1131  H1132   1.109   .     S
C1131  H1133   1.109   .     S
C1134  H1135   1.112   .     S
H1136  C450    1.112   1_556 S
C1137  H1139   1.109   .     S
C1137  H1138   1.106   .     S
C1137  C1362   1.526   .     S
C1137  H1368   1.111   .     S
C1141  O1173   1.294   .     A
C1141  O1172   1.296   .     A
C1141  C1151   1.435   .     S
C1142  C1143   1.414   .     A
C1142  C460    1.437   1_556 S
C1142  C476    1.420   1_556 S
C1143  C1150   1.419   .     A
C1143  C1147   1.401   .     A
C1144  C1148   1.400   .     A
C1145  C1146   1.395   .     A
C1145  C460    1.424   1_556 S
C1145  C472    1.418   1_556 S
C1146  H1164   1.080   .     S
C1146  C1147   1.381   .     A
C1147  H1168   1.070   .     S
C1148  C1157   1.402   .     A
C1148  H1165   1.071   .     S
C1149  C1157   1.407   .     A
C1149  C1156   1.409   .     A
C1149  O1180   1.385   .     S
C1150  C1152   1.476   .     S
C1150  C1158   1.397   .     A
C1151  C697    1.332   1_565 S
C1151  H713    1.087   1_565 S
C1152  O1175   1.303   .     A
C1152  O1174   1.307   .     A
C1153  C1154   1.434   .     S
C1154  O1176   1.297   .     A
C1154  O1177   1.293   .     A
C1155  O1178   1.303   .     A
C1155  O1179   1.309   .     A
C1155  C1157   1.478   .     S
C1156  O1277   1.386   .     S
C1158  H1166   1.084   .     S
C1158  C1159   1.386   .     A
C1159  C476    1.415   1_556 S
C1159  O1358   1.396   1_455 S
C1160  H1167   1.059   .     S
Cu1161 Cu1162  2.704   .     S
Cu1161 O1176   1.960   .     S
Cu1161 O1172   1.962   .     S
Cu1161 O1174   1.967   .     S
Cu1161 O1178   1.956   .     S
Cu1161 N1171   2.032   .     S
Cu1162 O1175   1.956   .     S
Cu1162 O1179   1.967   .     S
Cu1162 O1173   1.960   .     S
Cu1162 N1170   2.032   .     S
Cu1162 O1177   1.962   .     S
H1163  C697    1.080   1_565 S
N1170  N1247   1.294   .     S
N1170  O1261   1.344   .     S
N1171  O1190   1.346   .     S
N1171  N1322   1.294   1_455 S
O1180  C1257   1.408   .     S
C1181  H1182   1.109   .     S
C1181  H1184   1.106   .     S
C1181  O1332   1.408   1_455 S
C1181  H1335   1.116   1_455 S
H1183  C1257   1.116   .     S
O1185  C1186   1.407   .     S
O1185  N1322   1.344   1_455 S
C1186  H1189   1.109   .     S
C1186  H1188   1.112   .     S
C1186  H1339   1.100   1_455 S
H1187  C1262   1.100   .     S
O1190  C1343   1.417   1_455 S
C1191  H1192   1.103   .     S
C1191  O1266   1.417   .     S
C1191  H1269   1.111   .     S
C1191  C1270   1.529   .     S
H1193  C1343   1.111   1_455 S
C1194  H1196   1.096   .     S
C1194  C1197   1.520   .     S
C1194  C1343   1.529   1_455 S
C1194  H1347   1.109   1_455 S
H1195  C1270   1.109   .     S
C1197  H1198   1.101   .     S
C1197  H1199   1.108   .     S
C1197  H1200   1.107   .     S
O1201  C1202   1.410   .     S
O1201  C1308   1.386   1_455 S
C1202  H1203   1.110   .     S
C1202  H1204   1.109   .     S
H1205  C518    1.108   1_556 S
O1206  C1235   1.396   .     S
O1206  C523    1.411   1_556 S
C1207  C1210   1.529   .     S
C1207  H1208   1.109   .     S
C1207  H1209   1.109   .     S
C1210  H1211   1.112   .     S
H1212  C526    1.112   1_556 S
C1213  H1215   1.109   .     S
C1213  H1214   1.106   .     S
C1213  C754    1.526   1_565 S
C1213  H760    1.111   1_565 S
C1217  O1249   1.294   .     A
C1217  O1248   1.296   .     A
C1217  C1227   1.435   .     S
C1218  C1219   1.414   .     A
C1218  C536    1.437   1_556 S
C1218  C552    1.420   1_556 S
C1219  C1226   1.419   .     A
C1219  C1223   1.401   .     A
C1220  C1224   1.400   .     A
C1221  C1222   1.395   .     A
C1221  C536    1.424   1_556 S
C1221  C548    1.418   1_556 S
C1222  H1240   1.080   .     S
C1222  C1223   1.381   .     A
C1223  H1244   1.070   .     S
C1224  C1233   1.402   .     A
C1224  H1241   1.071   .     S
C1225  C1233   1.407   .     A
C1225  C1232   1.409   .     A
C1225  O1256   1.385   .     S
C1226  C1228   1.476   .     S
C1226  C1234   1.397   .     A
C1227  C773    1.332   1_565 S
C1227  H789    1.087   1_565 S
C1228  O1251   1.303   .     A
C1228  O1250   1.307   .     A
C1229  C1230   1.434   .     S
C1230  O1252   1.297   .     A
C1230  O1253   1.293   .     A
C1231  O1254   1.303   .     A
C1231  O1255   1.309   .     A
C1231  C1233   1.478   .     S
C1232  O1353   1.386   .     S
C1234  H1242   1.084   .     S
C1234  C1235   1.386   .     A
C1235  C552    1.415   1_556 S
C1236  H1243   1.059   .     S
Cu1237 Cu1238  2.704   .     S
Cu1237 O1252   1.960   .     S
Cu1237 O1248   1.962   .     S
Cu1237 O1250   1.967   .     S
Cu1237 O1254   1.956   .     S
Cu1237 N1247   2.032   .     S
Cu1238 O1251   1.956   .     S
Cu1238 O1255   1.967   .     S
Cu1238 O1249   1.960   .     S
Cu1238 N1246   2.032   .     S
Cu1238 O1253   1.962   .     S
H1239  C773    1.080   1_565 S
N1246  N1323   1.294   .     S
N1246  O1337   1.344   .     S
N1247  O1266   1.346   .     S
O1256  C1333   1.408   .     S
C1257  H1258   1.109   .     S
C1257  H1260   1.106   .     S
H1259  C1333   1.116   .     S
O1261  C1262   1.407   .     S
C1262  H1265   1.109   .     S
C1262  H1264   1.112   .     S
H1263  C1338   1.100   .     S
C1267  H1268   1.103   .     S
C1267  O1342   1.417   .     S
C1267  H1345   1.111   .     S
C1267  C1346   1.529   .     S
C1270  H1272   1.096   .     S
C1270  C1273   1.520   .     S
H1271  C1346   1.109   .     S
C1273  H1274   1.101   .     S
C1273  H1275   1.108   .     S
C1273  H1276   1.107   .     S
O1277  C1278   1.410   .     S
C1278  H1279   1.110   .     S
C1278  H1280   1.109   .     S
H1281  C594    1.108   1_556 S
O1282  C1311   1.396   .     S
O1282  C599    1.411   1_556 S
C1283  C1286   1.529   .     S
C1283  H1284   1.109   .     S
C1283  H1285   1.109   .     S
C1286  H1287   1.112   .     S
H1288  C602    1.112   1_556 S
C1289  H1291   1.109   .     S
C1289  H1290   1.106   .     S
C1289  C830    1.526   1_565 S
C1289  H836    1.111   1_565 S
C1293  O1325   1.294   .     A
C1293  O1324   1.296   .     A
C1293  C1303   1.435   .     S
C1294  C1295   1.414   .     A
C1294  C612    1.437   1_556 S
C1294  C628    1.420   1_556 S
C1295  C1302   1.419   .     A
C1295  C1299   1.401   .     A
C1296  C1300   1.400   .     A
C1297  C1298   1.395   .     A
C1297  C612    1.424   1_556 S
C1297  C624    1.418   1_556 S
C1298  H1316   1.080   .     S
C1298  C1299   1.381   .     A
C1299  H1320   1.070   .     S
C1300  C1309   1.402   .     A
C1300  H1317   1.071   .     S
C1301  C1309   1.407   .     A
C1301  C1308   1.409   .     A
C1301  O1332   1.385   .     S
C1302  C1304   1.476   .     S
C1302  C1310   1.397   .     A
C1303  C849    1.332   1_565 S
C1303  H865    1.087   1_565 S
C1304  O1327   1.303   .     A
C1304  O1326   1.307   .     A
C1305  C1306   1.434   .     S
C1306  O1328   1.297   .     A
C1306  O1329   1.293   .     A
C1307  O1330   1.303   .     A
C1307  O1331   1.309   .     A
C1307  C1309   1.478   .     S
C1308  O1201   1.386   1_655 S
C1310  H1318   1.084   .     S
C1310  C1311   1.386   .     A
C1311  C628    1.415   1_556 S
C1312  H1319   1.059   .     S
Cu1313 Cu1314  2.704   .     S
Cu1313 O1328   1.960   .     S
Cu1313 O1324   1.962   .     S
Cu1313 O1326   1.967   .     S
Cu1313 O1330   1.956   .     S
Cu1313 N1323   2.032   .     S
Cu1314 O1327   1.956   .     S
Cu1314 O1331   1.967   .     S
Cu1314 O1325   1.960   .     S
Cu1314 N1322   2.032   .     S
Cu1314 O1329   1.962   .     S
H1315  C849    1.080   1_565 S
N1322  N1171   1.294   1_655 S
N1322  O1185   1.344   1_655 S
N1323  O1342   1.346   .     S
O1332  C1181   1.408   1_655 S
C1333  H1334   1.109   .     S
C1333  H1336   1.106   .     S
H1335  C1181   1.116   1_655 S
O1337  C1338   1.407   .     S
C1338  H1341   1.109   .     S
C1338  H1340   1.112   .     S
H1339  C1186   1.100   1_655 S
C1343  H1344   1.103   .     S
C1343  O1190   1.417   1_655 S
C1343  H1193   1.111   1_655 S
C1343  C1194   1.529   1_655 S
C1346  H1348   1.096   .     S
C1346  C1349   1.520   .     S
H1347  C1194   1.109   1_655 S
C1349  H1350   1.101   .     S
C1349  H1351   1.108   .     S
C1349  H1352   1.107   .     S
O1353  C1354   1.410   .     S
C1354  H1355   1.110   .     S
C1354  H1356   1.109   .     S
H1357  C670    1.108   1_556 S
O1358  C1159   1.396   1_655 S
O1358  C675    1.411   1_556 S
C1359  C1362   1.529   .     S
C1359  H1360   1.109   .     S
C1359  H1361   1.109   .     S
C1362  H1363   1.112   .     S
H1364  C678    1.112   1_556 S
C1365  H1367   1.109   .     S
C1365  H1366   1.106   .     S
C1365  C906    1.526   1_565 S
C1365  H912    1.111   1_565 S
