data_str_m2_o1_o2_pcu_sym.21
_audit_creation_date              2020-01-03
_audit_creation_method            'Materials Studio'
_symmetry_space_group_name_H-M    'P1'
_symmetry_Int_Tables_number       1
_symmetry_cell_setting            triclinic
loop_
_symmetry_equiv_pos_as_xyz
  x,y,z
_cell_length_a                    32.6783
_cell_length_b                    28.8959
_cell_length_c                    30.4103
_cell_angle_alpha                 89.7188
_cell_angle_beta                  95.5261
_cell_angle_gamma                 90.0240
loop_
_atom_site_label
_atom_site_type_symbol
_atom_site_fract_x
_atom_site_fract_y
_atom_site_fract_z
_atom_site_U_iso_or_equiv
_atom_site_adp_type
_atom_site_occupancy
C1     C     0.08752   0.16656   0.25076   0.00000  Uiso   1.00
C2     C     0.31212   0.20806   0.24746   0.00000  Uiso   1.00
C3     C     0.31193   0.12412   0.24715   0.00000  Uiso   1.00
C4     C     0.02122   0.20801   0.25177   0.00000  Uiso   1.00
C5     C     0.14862   0.19441   0.04284   0.00000  Uiso   1.00
C6     C     0.14894   0.12246   0.45005   0.00000  Uiso   1.00
C7     C     0.18404   0.19633   0.45588   0.00000  Uiso   1.00
C8     C     0.18901   0.12421   0.05092   0.00000  Uiso   1.00
C9     C     0.15321   0.20124   0.08834   0.00000  Uiso   1.00
C10    C     0.14421   0.12668   0.40377   0.00000  Uiso   1.00
C11    C     0.17680   0.20311   0.41038   0.00000  Uiso   1.00
C12    C     0.24577   0.16659   0.24878   0.00000  Uiso   1.00
C13    C     0.19167   0.12837   0.09715   0.00000  Uiso   1.00
C14    C     0.17210   0.16634   0.11658   0.00000  Uiso   1.00
C15    C     0.16075   0.16613   0.38328   0.00000  Uiso   1.00
C16    C     0.16762   0.15716   0.02402   0.00000  Uiso   1.00
C17    C     0.16897   0.15701   0.47586   0.00000  Uiso   1.00
C18    C     0.29034   0.16623   0.24734   0.00000  Uiso   1.00
C19    C     0.04287   0.16616   0.25120   0.00000  Uiso   1.00
C20    C     0.12049   0.04843   0.18056   0.00000  Uiso   1.00
C21    C     0.23389   0.28817   0.29917   0.00000  Uiso   1.00
C22    C     0.21371   0.04822   0.31878   0.00000  Uiso   1.00
C23    C     0.16843   0.16680   0.16505   0.00000  Uiso   1.00
C24    C     0.09999   0.28855   0.20017   0.00000  Uiso   1.00
C25    C     0.14107   0.24729   0.10342   0.00000  Uiso   1.00
C26    C     0.11746   0.09246   0.37838   0.00000  Uiso   1.00
C27    C     0.18037   0.25118   0.39399   0.00000  Uiso   1.00
C28    C     0.21840   0.09495   0.12380   0.00000  Uiso   1.00
C29    C     0.16437   0.16665   0.33483   0.00000  Uiso   1.00
C30    C     0.14142   0.02500   0.21986   0.00000  Uiso   1.00
C31    C     0.19558   0.30906   0.27666   0.00000  Uiso   1.00
C32    C     0.19193   0.02476   0.28016   0.00000  Uiso   1.00
C33    C     0.13780   0.30935   0.22338   0.00000  Uiso   1.00
C34    C     0.02111   0.12407   0.24938   0.00000  Uiso   1.00
Cu35   Cu    0.16667   0.21355   0.25000   0.00000  Uiso   1.00
Cu36   Cu    0.16667   0.11978   0.25000   0.00000  Uiso   1.00
F37    F     0.12781   0.22622   0.01609   0.00000  Uiso   1.00
F38    F     0.13135   0.08656   0.47035   0.00000  Uiso   1.00
F39    F     0.20245   0.23030   0.48162   0.00000  Uiso   1.00
F40    F     0.20936   0.08974   0.03191   0.00000  Uiso   1.00
F41    F     0.04057   0.08252   0.25045   0.00000  Uiso   1.00
F42    F     0.29270   0.24933   0.24211   0.00000  Uiso   1.00
F43    F     0.29226   0.08272   0.24369   0.00000  Uiso   1.00
F44    F     0.04077   0.24918   0.25753   0.00000  Uiso   1.00
H45    H     0.11739   0.05736   0.11452   0.00000  Uiso   1.00
H46    H     0.26201   0.23842   0.33770   0.00000  Uiso   1.00
H47    H     0.26271   0.08498   0.34424   0.00000  Uiso   1.00
H48    H     0.03934   0.29635   0.18122   0.00000  Uiso   1.00
H49    H     0.09791   0.29754   0.09967   0.00000  Uiso   1.00
H50    H     0.09702   0.02670   0.37275   0.00000  Uiso   1.00
H51    H     0.15333   0.30388   0.35852   0.00000  Uiso   1.00
H52    H     0.23797   0.02902   0.13257   0.00000  Uiso   1.00
N53    N     0.16667   0.28402   0.25000   0.00000  Uiso   1.00
N54    N     0.16667   0.04931   0.25000   0.00000  Uiso   1.00
O55    O     0.10655   0.20625   0.24999   0.00000  Uiso   1.00
O56    O     0.13410   0.04008   0.13919   0.00000  Uiso   1.00
O57    O     0.26653   0.30850   0.29724   0.00000  Uiso   1.00
O58    O     0.23362   0.24779   0.32419   0.00000  Uiso   1.00
O59    O     0.20028   0.04471   0.35477   0.00000  Uiso   1.00
O60    O     0.25080   0.07115   0.31521   0.00000  Uiso   1.00
O61    O     0.10088   0.25216   0.18046   0.00000  Uiso   1.00
O62    O     0.06273   0.31259   0.19932   0.00000  Uiso   1.00
O63    O     0.16619   0.27152   0.12503   0.00000  Uiso   1.00
O64    O     0.10205   0.26475   0.08930   0.00000  Uiso   1.00
O65    O     0.09436   0.10502   0.34653   0.00000  Uiso   1.00
O66    O     0.22679   0.12709   0.25000   0.00000  Uiso   1.00
O67    O     0.11724   0.04621   0.39208   0.00000  Uiso   1.00
O68    O     0.21067   0.27448   0.40587   0.00000  Uiso   1.00
O69    O     0.14749   0.27099   0.36764   0.00000  Uiso   1.00
O70    O     0.24133   0.10845   0.15526   0.00000  Uiso   1.00
O71    O     0.21847   0.04825   0.11194   0.00000  Uiso   1.00
O72    O     0.22679   0.20625   0.25000   0.00000  Uiso   1.00
O73    O     0.10655   0.12709   0.24999   0.00000  Uiso   1.00
O74    O     0.16666   0.20626   0.18573   0.00000  Uiso   1.00
O75    O     0.16667   0.12707   0.31427   0.00000  Uiso   1.00
O76    O     0.16667   0.20626   0.31427   0.00000  Uiso   1.00
O77    O     0.16666   0.12707   0.18573   0.00000  Uiso   1.00
O78    O     0.09043   0.07277   0.18360   0.00000  Uiso   1.00
C79    C     0.42086   0.16656   0.25076   0.00000  Uiso   1.00
C80    C     0.64546   0.20806   0.24746   0.00000  Uiso   1.00
C81    C     0.64526   0.12412   0.24715   0.00000  Uiso   1.00
C82    C     0.35456   0.20801   0.25177   0.00000  Uiso   1.00
C83    C     0.48195   0.19441   0.04284   0.00000  Uiso   1.00
C84    C     0.48227   0.12246   0.45005   0.00000  Uiso   1.00
C85    C     0.51737   0.19633   0.45588   0.00000  Uiso   1.00
C86    C     0.52234   0.12421   0.05092   0.00000  Uiso   1.00
C87    C     0.48654   0.20124   0.08834   0.00000  Uiso   1.00
C88    C     0.47754   0.12668   0.40377   0.00000  Uiso   1.00
C89    C     0.51013   0.20311   0.41038   0.00000  Uiso   1.00
C90    C     0.57910   0.16659   0.24878   0.00000  Uiso   1.00
C91    C     0.52501   0.12837   0.09715   0.00000  Uiso   1.00
C92    C     0.50543   0.16634   0.11658   0.00000  Uiso   1.00
C93    C     0.49408   0.16613   0.38328   0.00000  Uiso   1.00
C94    C     0.50096   0.15716   0.02402   0.00000  Uiso   1.00
C95    C     0.50231   0.15701   0.47586   0.00000  Uiso   1.00
C96    C     0.62368   0.16623   0.24734   0.00000  Uiso   1.00
C97    C     0.37621   0.16616   0.25120   0.00000  Uiso   1.00
C98    C     0.45383   0.04843   0.18056   0.00000  Uiso   1.00
C99    C     0.56723   0.28817   0.29917   0.00000  Uiso   1.00
C100   C     0.54704   0.04822   0.31878   0.00000  Uiso   1.00
C101   C     0.50176   0.16680   0.16505   0.00000  Uiso   1.00
C102   C     0.43332   0.28855   0.20017   0.00000  Uiso   1.00
C103   C     0.47441   0.24729   0.10342   0.00000  Uiso   1.00
C104   C     0.45080   0.09246   0.37838   0.00000  Uiso   1.00
C105   C     0.51370   0.25118   0.39399   0.00000  Uiso   1.00
C106   C     0.55174   0.09495   0.12380   0.00000  Uiso   1.00
C107   C     0.49770   0.16665   0.33483   0.00000  Uiso   1.00
C108   C     0.47475   0.02500   0.21986   0.00000  Uiso   1.00
C109   C     0.52891   0.30906   0.27666   0.00000  Uiso   1.00
C110   C     0.52526   0.02476   0.28016   0.00000  Uiso   1.00
C111   C     0.47114   0.30935   0.22338   0.00000  Uiso   1.00
C112   C     0.35444   0.12407   0.24938   0.00000  Uiso   1.00
Cu113  Cu    0.50000   0.21355   0.25000   0.00000  Uiso   1.00
Cu114  Cu    0.50000   0.11978   0.25000   0.00000  Uiso   1.00
F115   F     0.46114   0.22622   0.01609   0.00000  Uiso   1.00
F116   F     0.46468   0.08656   0.47035   0.00000  Uiso   1.00
F117   F     0.53578   0.23030   0.48162   0.00000  Uiso   1.00
F118   F     0.54269   0.08974   0.03191   0.00000  Uiso   1.00
F119   F     0.37390   0.08252   0.25045   0.00000  Uiso   1.00
F120   F     0.62604   0.24933   0.24211   0.00000  Uiso   1.00
F121   F     0.62559   0.08272   0.24369   0.00000  Uiso   1.00
F122   F     0.37411   0.24918   0.25753   0.00000  Uiso   1.00
H123   H     0.45072   0.05736   0.11452   0.00000  Uiso   1.00
H124   H     0.59535   0.23842   0.33770   0.00000  Uiso   1.00
H125   H     0.59605   0.08498   0.34424   0.00000  Uiso   1.00
H126   H     0.37268   0.29635   0.18122   0.00000  Uiso   1.00
H127   H     0.43124   0.29754   0.09967   0.00000  Uiso   1.00
H128   H     0.43035   0.02670   0.37275   0.00000  Uiso   1.00
H129   H     0.48666   0.30388   0.35852   0.00000  Uiso   1.00
H130   H     0.57131   0.02902   0.13257   0.00000  Uiso   1.00
N131   N     0.50000   0.28402   0.25000   0.00000  Uiso   1.00
N132   N     0.50000   0.04931   0.25000   0.00000  Uiso   1.00
O133   O     0.43988   0.20625   0.24999   0.00000  Uiso   1.00
O134   O     0.46744   0.04008   0.13919   0.00000  Uiso   1.00
O135   O     0.59987   0.30850   0.29724   0.00000  Uiso   1.00
O136   O     0.56696   0.24779   0.32419   0.00000  Uiso   1.00
O137   O     0.53361   0.04471   0.35477   0.00000  Uiso   1.00
O138   O     0.58413   0.07115   0.31521   0.00000  Uiso   1.00
O139   O     0.43422   0.25216   0.18046   0.00000  Uiso   1.00
O140   O     0.39606   0.31259   0.19932   0.00000  Uiso   1.00
O141   O     0.49952   0.27152   0.12503   0.00000  Uiso   1.00
O142   O     0.43538   0.26475   0.08930   0.00000  Uiso   1.00
O143   O     0.42770   0.10502   0.34653   0.00000  Uiso   1.00
O144   O     0.56012   0.12709   0.25000   0.00000  Uiso   1.00
O145   O     0.45057   0.04621   0.39208   0.00000  Uiso   1.00
O146   O     0.54400   0.27448   0.40587   0.00000  Uiso   1.00
O147   O     0.48082   0.27099   0.36764   0.00000  Uiso   1.00
O148   O     0.57466   0.10845   0.15526   0.00000  Uiso   1.00
O149   O     0.55180   0.04825   0.11194   0.00000  Uiso   1.00
O150   O     0.56012   0.20625   0.25000   0.00000  Uiso   1.00
O151   O     0.43988   0.12709   0.24999   0.00000  Uiso   1.00
O152   O     0.50000   0.20626   0.18573   0.00000  Uiso   1.00
O153   O     0.50000   0.12707   0.31427   0.00000  Uiso   1.00
O154   O     0.50000   0.20626   0.31427   0.00000  Uiso   1.00
O155   O     0.50000   0.12707   0.18573   0.00000  Uiso   1.00
O156   O     0.42376   0.07277   0.18360   0.00000  Uiso   1.00
C157   C     0.75419   0.16656   0.25076   0.00000  Uiso   1.00
C158   C     0.97879   0.20806   0.24746   0.00000  Uiso   1.00
C159   C     0.97859   0.12412   0.24715   0.00000  Uiso   1.00
C160   C     0.68789   0.20801   0.25177   0.00000  Uiso   1.00
C161   C     0.81528   0.19441   0.04284   0.00000  Uiso   1.00
C162   C     0.81560   0.12246   0.45005   0.00000  Uiso   1.00
C163   C     0.85071   0.19633   0.45588   0.00000  Uiso   1.00
C164   C     0.85567   0.12421   0.05092   0.00000  Uiso   1.00
C165   C     0.81988   0.20124   0.08834   0.00000  Uiso   1.00
C166   C     0.81087   0.12668   0.40377   0.00000  Uiso   1.00
C167   C     0.84346   0.20311   0.41038   0.00000  Uiso   1.00
C168   C     0.91243   0.16659   0.24878   0.00000  Uiso   1.00
C169   C     0.85834   0.12837   0.09715   0.00000  Uiso   1.00
C170   C     0.83876   0.16634   0.11658   0.00000  Uiso   1.00
C171   C     0.82742   0.16613   0.38328   0.00000  Uiso   1.00
C172   C     0.83429   0.15716   0.02402   0.00000  Uiso   1.00
C173   C     0.83564   0.15701   0.47586   0.00000  Uiso   1.00
C174   C     0.95701   0.16623   0.24734   0.00000  Uiso   1.00
C175   C     0.70954   0.16616   0.25120   0.00000  Uiso   1.00
C176   C     0.78716   0.04843   0.18056   0.00000  Uiso   1.00
C177   C     0.90056   0.28817   0.29917   0.00000  Uiso   1.00
C178   C     0.88038   0.04822   0.31878   0.00000  Uiso   1.00
C179   C     0.83509   0.16680   0.16505   0.00000  Uiso   1.00
C180   C     0.76665   0.28855   0.20017   0.00000  Uiso   1.00
C181   C     0.80774   0.24729   0.10342   0.00000  Uiso   1.00
C182   C     0.78413   0.09246   0.37838   0.00000  Uiso   1.00
C183   C     0.84704   0.25118   0.39399   0.00000  Uiso   1.00
C184   C     0.88507   0.09495   0.12380   0.00000  Uiso   1.00
C185   C     0.83103   0.16665   0.33483   0.00000  Uiso   1.00
C186   C     0.80809   0.02500   0.21986   0.00000  Uiso   1.00
C187   C     0.86225   0.30906   0.27666   0.00000  Uiso   1.00
C188   C     0.85860   0.02476   0.28016   0.00000  Uiso   1.00
C189   C     0.80447   0.30935   0.22338   0.00000  Uiso   1.00
C190   C     0.68777   0.12407   0.24938   0.00000  Uiso   1.00
Cu191  Cu    0.83333   0.21355   0.25000   0.00000  Uiso   1.00
Cu192  Cu    0.83333   0.11978   0.25000   0.00000  Uiso   1.00
F193   F     0.79447   0.22622   0.01609   0.00000  Uiso   1.00
F194   F     0.79802   0.08656   0.47035   0.00000  Uiso   1.00
F195   F     0.86911   0.23030   0.48162   0.00000  Uiso   1.00
F196   F     0.87603   0.08974   0.03191   0.00000  Uiso   1.00
F197   F     0.70723   0.08252   0.25045   0.00000  Uiso   1.00
F198   F     0.95937   0.24933   0.24211   0.00000  Uiso   1.00
F199   F     0.95893   0.08272   0.24369   0.00000  Uiso   1.00
F200   F     0.70744   0.24918   0.25753   0.00000  Uiso   1.00
H201   H     0.78405   0.05736   0.11452   0.00000  Uiso   1.00
H202   H     0.92868   0.23842   0.33770   0.00000  Uiso   1.00
H203   H     0.92938   0.08498   0.34424   0.00000  Uiso   1.00
H204   H     0.70601   0.29635   0.18122   0.00000  Uiso   1.00
H205   H     0.76458   0.29754   0.09967   0.00000  Uiso   1.00
H206   H     0.76368   0.02670   0.37275   0.00000  Uiso   1.00
H207   H     0.82000   0.30388   0.35852   0.00000  Uiso   1.00
H208   H     0.90464   0.02902   0.13257   0.00000  Uiso   1.00
N209   N     0.83333   0.28402   0.25000   0.00000  Uiso   1.00
N210   N     0.83333   0.04931   0.25000   0.00000  Uiso   1.00
O211   O     0.77321   0.20625   0.24999   0.00000  Uiso   1.00
O212   O     0.80077   0.04008   0.13919   0.00000  Uiso   1.00
O213   O     0.93320   0.30850   0.29724   0.00000  Uiso   1.00
O214   O     0.90029   0.24779   0.32419   0.00000  Uiso   1.00
O215   O     0.86694   0.04471   0.35477   0.00000  Uiso   1.00
O216   O     0.91747   0.07115   0.31521   0.00000  Uiso   1.00
O217   O     0.76755   0.25216   0.18046   0.00000  Uiso   1.00
O218   O     0.72939   0.31259   0.19932   0.00000  Uiso   1.00
O219   O     0.83285   0.27152   0.12503   0.00000  Uiso   1.00
O220   O     0.76872   0.26475   0.08930   0.00000  Uiso   1.00
O221   O     0.76103   0.10502   0.34653   0.00000  Uiso   1.00
O222   O     0.89345   0.12709   0.25000   0.00000  Uiso   1.00
O223   O     0.78390   0.04621   0.39208   0.00000  Uiso   1.00
O224   O     0.87733   0.27448   0.40587   0.00000  Uiso   1.00
O225   O     0.81416   0.27099   0.36764   0.00000  Uiso   1.00
O226   O     0.90799   0.10845   0.15526   0.00000  Uiso   1.00
O227   O     0.88514   0.04825   0.11194   0.00000  Uiso   1.00
O228   O     0.89345   0.20625   0.25000   0.00000  Uiso   1.00
O229   O     0.77321   0.12709   0.24999   0.00000  Uiso   1.00
O230   O     0.83333   0.20626   0.18573   0.00000  Uiso   1.00
O231   O     0.83334   0.12707   0.31427   0.00000  Uiso   1.00
O232   O     0.83334   0.20626   0.31427   0.00000  Uiso   1.00
O233   O     0.83333   0.12707   0.18573   0.00000  Uiso   1.00
O234   O     0.75709   0.07277   0.18360   0.00000  Uiso   1.00
C235   C     0.08752   0.49990   0.25076   0.00000  Uiso   1.00
C236   C     0.31212   0.54140   0.24746   0.00000  Uiso   1.00
C237   C     0.31193   0.45745   0.24715   0.00000  Uiso   1.00
C238   C     0.02122   0.54134   0.25177   0.00000  Uiso   1.00
C239   C     0.14862   0.52775   0.04284   0.00000  Uiso   1.00
C240   C     0.14894   0.45580   0.45005   0.00000  Uiso   1.00
C241   C     0.18404   0.52966   0.45588   0.00000  Uiso   1.00
C242   C     0.18901   0.45754   0.05092   0.00000  Uiso   1.00
C243   C     0.15321   0.53457   0.08834   0.00000  Uiso   1.00
C244   C     0.14421   0.46002   0.40377   0.00000  Uiso   1.00
C245   C     0.17680   0.53644   0.41038   0.00000  Uiso   1.00
C246   C     0.24577   0.49993   0.24878   0.00000  Uiso   1.00
C247   C     0.19167   0.46170   0.09715   0.00000  Uiso   1.00
C248   C     0.17210   0.49968   0.11658   0.00000  Uiso   1.00
C249   C     0.16075   0.49946   0.38328   0.00000  Uiso   1.00
C250   C     0.16762   0.49050   0.02402   0.00000  Uiso   1.00
C251   C     0.16897   0.49035   0.47586   0.00000  Uiso   1.00
C252   C     0.29034   0.49957   0.24734   0.00000  Uiso   1.00
C253   C     0.04287   0.49949   0.25120   0.00000  Uiso   1.00
C254   C     0.12049   0.38176   0.18056   0.00000  Uiso   1.00
C255   C     0.23389   0.62150   0.29917   0.00000  Uiso   1.00
C256   C     0.21371   0.38155   0.31878   0.00000  Uiso   1.00
C257   C     0.16843   0.50013   0.16505   0.00000  Uiso   1.00
C258   C     0.09999   0.62188   0.20017   0.00000  Uiso   1.00
C259   C     0.14107   0.58062   0.10342   0.00000  Uiso   1.00
C260   C     0.11746   0.42579   0.37838   0.00000  Uiso   1.00
C261   C     0.18037   0.58451   0.39399   0.00000  Uiso   1.00
C262   C     0.21840   0.42828   0.12380   0.00000  Uiso   1.00
C263   C     0.16437   0.49998   0.33483   0.00000  Uiso   1.00
C264   C     0.14142   0.35833   0.21986   0.00000  Uiso   1.00
C265   C     0.19558   0.64239   0.27666   0.00000  Uiso   1.00
C266   C     0.19193   0.35810   0.28016   0.00000  Uiso   1.00
C267   C     0.13780   0.64268   0.22338   0.00000  Uiso   1.00
C268   C     0.02111   0.45740   0.24938   0.00000  Uiso   1.00
Cu269  Cu    0.16667   0.54689   0.25000   0.00000  Uiso   1.00
Cu270  Cu    0.16667   0.45311   0.25000   0.00000  Uiso   1.00
F271   F     0.12781   0.55956   0.01609   0.00000  Uiso   1.00
F272   F     0.13135   0.41990   0.47035   0.00000  Uiso   1.00
F273   F     0.20245   0.56363   0.48162   0.00000  Uiso   1.00
F274   F     0.20936   0.42308   0.03191   0.00000  Uiso   1.00
F275   F     0.04057   0.41586   0.25045   0.00000  Uiso   1.00
F276   F     0.29270   0.58266   0.24211   0.00000  Uiso   1.00
F277   F     0.29226   0.41606   0.24369   0.00000  Uiso   1.00
F278   F     0.04077   0.58252   0.25753   0.00000  Uiso   1.00
H279   H     0.11739   0.39069   0.11452   0.00000  Uiso   1.00
H280   H     0.26201   0.57175   0.33770   0.00000  Uiso   1.00
H281   H     0.26271   0.41831   0.34424   0.00000  Uiso   1.00
H282   H     0.03934   0.62968   0.18122   0.00000  Uiso   1.00
H283   H     0.09791   0.63087   0.09967   0.00000  Uiso   1.00
H284   H     0.09702   0.36004   0.37275   0.00000  Uiso   1.00
H285   H     0.15333   0.63722   0.35852   0.00000  Uiso   1.00
H286   H     0.23797   0.36236   0.13257   0.00000  Uiso   1.00
N287   N     0.16667   0.61736   0.25000   0.00000  Uiso   1.00
N288   N     0.16667   0.38264   0.25000   0.00000  Uiso   1.00
O289   O     0.10655   0.53958   0.24999   0.00000  Uiso   1.00
O290   O     0.13410   0.37342   0.13919   0.00000  Uiso   1.00
O291   O     0.26653   0.64183   0.29724   0.00000  Uiso   1.00
O292   O     0.23362   0.58112   0.32419   0.00000  Uiso   1.00
O293   O     0.20028   0.37805   0.35477   0.00000  Uiso   1.00
O294   O     0.25080   0.40448   0.31521   0.00000  Uiso   1.00
O295   O     0.10088   0.58549   0.18046   0.00000  Uiso   1.00
O296   O     0.06273   0.64592   0.19932   0.00000  Uiso   1.00
O297   O     0.16619   0.60485   0.12503   0.00000  Uiso   1.00
O298   O     0.10205   0.59808   0.08930   0.00000  Uiso   1.00
O299   O     0.09436   0.43835   0.34653   0.00000  Uiso   1.00
O300   O     0.22679   0.46042   0.25000   0.00000  Uiso   1.00
O301   O     0.11724   0.37955   0.39208   0.00000  Uiso   1.00
O302   O     0.21067   0.60781   0.40587   0.00000  Uiso   1.00
O303   O     0.14749   0.60433   0.36764   0.00000  Uiso   1.00
O304   O     0.24133   0.44178   0.15526   0.00000  Uiso   1.00
O305   O     0.21847   0.38158   0.11194   0.00000  Uiso   1.00
O306   O     0.22679   0.53958   0.25000   0.00000  Uiso   1.00
O307   O     0.10655   0.46042   0.24999   0.00000  Uiso   1.00
O308   O     0.16666   0.53959   0.18573   0.00000  Uiso   1.00
O309   O     0.16667   0.46041   0.31427   0.00000  Uiso   1.00
O310   O     0.16667   0.53959   0.31427   0.00000  Uiso   1.00
O311   O     0.16666   0.46041   0.18573   0.00000  Uiso   1.00
O312   O     0.09043   0.40610   0.18360   0.00000  Uiso   1.00
C313   C     0.42086   0.49990   0.25076   0.00000  Uiso   1.00
C314   C     0.64546   0.54140   0.24746   0.00000  Uiso   1.00
C315   C     0.64526   0.45745   0.24715   0.00000  Uiso   1.00
C316   C     0.35456   0.54134   0.25177   0.00000  Uiso   1.00
C317   C     0.48195   0.52775   0.04284   0.00000  Uiso   1.00
C318   C     0.48227   0.45580   0.45005   0.00000  Uiso   1.00
C319   C     0.51737   0.52966   0.45588   0.00000  Uiso   1.00
C320   C     0.52234   0.45754   0.05092   0.00000  Uiso   1.00
C321   C     0.48654   0.53457   0.08834   0.00000  Uiso   1.00
C322   C     0.47754   0.46002   0.40377   0.00000  Uiso   1.00
C323   C     0.51013   0.53644   0.41038   0.00000  Uiso   1.00
C324   C     0.57910   0.49993   0.24878   0.00000  Uiso   1.00
C325   C     0.52501   0.46170   0.09715   0.00000  Uiso   1.00
C326   C     0.50543   0.49968   0.11658   0.00000  Uiso   1.00
C327   C     0.49408   0.49946   0.38328   0.00000  Uiso   1.00
C328   C     0.50096   0.49050   0.02402   0.00000  Uiso   1.00
C329   C     0.50231   0.49035   0.47586   0.00000  Uiso   1.00
C330   C     0.62368   0.49957   0.24734   0.00000  Uiso   1.00
C331   C     0.37621   0.49949   0.25120   0.00000  Uiso   1.00
C332   C     0.45383   0.38176   0.18056   0.00000  Uiso   1.00
C333   C     0.56723   0.62150   0.29917   0.00000  Uiso   1.00
C334   C     0.54704   0.38155   0.31878   0.00000  Uiso   1.00
C335   C     0.50176   0.50013   0.16505   0.00000  Uiso   1.00
C336   C     0.43332   0.62188   0.20017   0.00000  Uiso   1.00
C337   C     0.47441   0.58062   0.10342   0.00000  Uiso   1.00
C338   C     0.45080   0.42579   0.37838   0.00000  Uiso   1.00
C339   C     0.51370   0.58451   0.39399   0.00000  Uiso   1.00
C340   C     0.55174   0.42828   0.12380   0.00000  Uiso   1.00
C341   C     0.49770   0.49998   0.33483   0.00000  Uiso   1.00
C342   C     0.47475   0.35833   0.21986   0.00000  Uiso   1.00
C343   C     0.52891   0.64239   0.27666   0.00000  Uiso   1.00
C344   C     0.52526   0.35810   0.28016   0.00000  Uiso   1.00
C345   C     0.47114   0.64268   0.22338   0.00000  Uiso   1.00
C346   C     0.35444   0.45740   0.24938   0.00000  Uiso   1.00
Cu347  Cu    0.50000   0.54689   0.25000   0.00000  Uiso   1.00
Cu348  Cu    0.50000   0.45311   0.25000   0.00000  Uiso   1.00
F349   F     0.46114   0.55956   0.01609   0.00000  Uiso   1.00
F350   F     0.46468   0.41990   0.47035   0.00000  Uiso   1.00
F351   F     0.53578   0.56363   0.48162   0.00000  Uiso   1.00
F352   F     0.54269   0.42308   0.03191   0.00000  Uiso   1.00
F353   F     0.37390   0.41586   0.25045   0.00000  Uiso   1.00
F354   F     0.62604   0.58266   0.24211   0.00000  Uiso   1.00
F355   F     0.62559   0.41606   0.24369   0.00000  Uiso   1.00
F356   F     0.37411   0.58252   0.25753   0.00000  Uiso   1.00
H357   H     0.45072   0.39069   0.11452   0.00000  Uiso   1.00
H358   H     0.59535   0.57175   0.33770   0.00000  Uiso   1.00
H359   H     0.59605   0.41831   0.34424   0.00000  Uiso   1.00
H360   H     0.37268   0.62968   0.18122   0.00000  Uiso   1.00
H361   H     0.43124   0.63087   0.09967   0.00000  Uiso   1.00
H362   H     0.43035   0.36004   0.37275   0.00000  Uiso   1.00
H363   H     0.48666   0.63722   0.35852   0.00000  Uiso   1.00
H364   H     0.57131   0.36236   0.13257   0.00000  Uiso   1.00
N365   N     0.50000   0.61736   0.25000   0.00000  Uiso   1.00
N366   N     0.50000   0.38264   0.25000   0.00000  Uiso   1.00
O367   O     0.43988   0.53958   0.24999   0.00000  Uiso   1.00
O368   O     0.46744   0.37342   0.13919   0.00000  Uiso   1.00
O369   O     0.59987   0.64183   0.29724   0.00000  Uiso   1.00
O370   O     0.56696   0.58112   0.32419   0.00000  Uiso   1.00
O371   O     0.53361   0.37805   0.35477   0.00000  Uiso   1.00
O372   O     0.58413   0.40448   0.31521   0.00000  Uiso   1.00
O373   O     0.43422   0.58549   0.18046   0.00000  Uiso   1.00
O374   O     0.39606   0.64592   0.19932   0.00000  Uiso   1.00
O375   O     0.49952   0.60485   0.12503   0.00000  Uiso   1.00
O376   O     0.43538   0.59808   0.08930   0.00000  Uiso   1.00
O377   O     0.42770   0.43835   0.34653   0.00000  Uiso   1.00
O378   O     0.56012   0.46042   0.25000   0.00000  Uiso   1.00
O379   O     0.45057   0.37955   0.39208   0.00000  Uiso   1.00
O380   O     0.54400   0.60781   0.40587   0.00000  Uiso   1.00
O381   O     0.48082   0.60433   0.36764   0.00000  Uiso   1.00
O382   O     0.57466   0.44178   0.15526   0.00000  Uiso   1.00
O383   O     0.55180   0.38158   0.11194   0.00000  Uiso   1.00
O384   O     0.56012   0.53958   0.25000   0.00000  Uiso   1.00
O385   O     0.43988   0.46042   0.24999   0.00000  Uiso   1.00
O386   O     0.50000   0.53959   0.18573   0.00000  Uiso   1.00
O387   O     0.50000   0.46041   0.31427   0.00000  Uiso   1.00
O388   O     0.50000   0.53959   0.31427   0.00000  Uiso   1.00
O389   O     0.50000   0.46041   0.18573   0.00000  Uiso   1.00
O390   O     0.42376   0.40610   0.18360   0.00000  Uiso   1.00
C391   C     0.75419   0.49990   0.25076   0.00000  Uiso   1.00
C392   C     0.97879   0.54140   0.24746   0.00000  Uiso   1.00
C393   C     0.97859   0.45745   0.24715   0.00000  Uiso   1.00
C394   C     0.68789   0.54134   0.25177   0.00000  Uiso   1.00
C395   C     0.81528   0.52775   0.04284   0.00000  Uiso   1.00
C396   C     0.81560   0.45580   0.45005   0.00000  Uiso   1.00
C397   C     0.85071   0.52966   0.45588   0.00000  Uiso   1.00
C398   C     0.85567   0.45754   0.05092   0.00000  Uiso   1.00
C399   C     0.81988   0.53457   0.08834   0.00000  Uiso   1.00
C400   C     0.81087   0.46002   0.40377   0.00000  Uiso   1.00
C401   C     0.84346   0.53644   0.41038   0.00000  Uiso   1.00
C402   C     0.91243   0.49993   0.24878   0.00000  Uiso   1.00
C403   C     0.85834   0.46170   0.09715   0.00000  Uiso   1.00
C404   C     0.83876   0.49968   0.11658   0.00000  Uiso   1.00
C405   C     0.82742   0.49946   0.38328   0.00000  Uiso   1.00
C406   C     0.83429   0.49050   0.02402   0.00000  Uiso   1.00
C407   C     0.83564   0.49035   0.47586   0.00000  Uiso   1.00
C408   C     0.95701   0.49957   0.24734   0.00000  Uiso   1.00
C409   C     0.70954   0.49949   0.25120   0.00000  Uiso   1.00
C410   C     0.78716   0.38176   0.18056   0.00000  Uiso   1.00
C411   C     0.90056   0.62150   0.29917   0.00000  Uiso   1.00
C412   C     0.88038   0.38155   0.31878   0.00000  Uiso   1.00
C413   C     0.83509   0.50013   0.16505   0.00000  Uiso   1.00
C414   C     0.76665   0.62188   0.20017   0.00000  Uiso   1.00
C415   C     0.80774   0.58062   0.10342   0.00000  Uiso   1.00
C416   C     0.78413   0.42579   0.37838   0.00000  Uiso   1.00
C417   C     0.84704   0.58451   0.39399   0.00000  Uiso   1.00
C418   C     0.88507   0.42828   0.12380   0.00000  Uiso   1.00
C419   C     0.83103   0.49998   0.33483   0.00000  Uiso   1.00
C420   C     0.80809   0.35833   0.21986   0.00000  Uiso   1.00
C421   C     0.86225   0.64239   0.27666   0.00000  Uiso   1.00
C422   C     0.85860   0.35810   0.28016   0.00000  Uiso   1.00
C423   C     0.80447   0.64268   0.22338   0.00000  Uiso   1.00
C424   C     0.68777   0.45740   0.24938   0.00000  Uiso   1.00
Cu425  Cu    0.83333   0.54689   0.25000   0.00000  Uiso   1.00
Cu426  Cu    0.83333   0.45311   0.25000   0.00000  Uiso   1.00
F427   F     0.79447   0.55956   0.01609   0.00000  Uiso   1.00
F428   F     0.79802   0.41990   0.47035   0.00000  Uiso   1.00
F429   F     0.86911   0.56363   0.48162   0.00000  Uiso   1.00
F430   F     0.87603   0.42308   0.03191   0.00000  Uiso   1.00
F431   F     0.70723   0.41586   0.25045   0.00000  Uiso   1.00
F432   F     0.95937   0.58266   0.24211   0.00000  Uiso   1.00
F433   F     0.95893   0.41606   0.24369   0.00000  Uiso   1.00
F434   F     0.70744   0.58252   0.25753   0.00000  Uiso   1.00
H435   H     0.78405   0.39069   0.11452   0.00000  Uiso   1.00
H436   H     0.92868   0.57175   0.33770   0.00000  Uiso   1.00
H437   H     0.92938   0.41831   0.34424   0.00000  Uiso   1.00
H438   H     0.70601   0.62968   0.18122   0.00000  Uiso   1.00
H439   H     0.76458   0.63087   0.09967   0.00000  Uiso   1.00
H440   H     0.76368   0.36004   0.37275   0.00000  Uiso   1.00
H441   H     0.82000   0.63722   0.35852   0.00000  Uiso   1.00
H442   H     0.90464   0.36236   0.13257   0.00000  Uiso   1.00
N443   N     0.83333   0.61736   0.25000   0.00000  Uiso   1.00
N444   N     0.83333   0.38264   0.25000   0.00000  Uiso   1.00
O445   O     0.77321   0.53958   0.24999   0.00000  Uiso   1.00
O446   O     0.80077   0.37342   0.13919   0.00000  Uiso   1.00
O447   O     0.93320   0.64183   0.29724   0.00000  Uiso   1.00
O448   O     0.90029   0.58112   0.32419   0.00000  Uiso   1.00
O449   O     0.86694   0.37805   0.35477   0.00000  Uiso   1.00
O450   O     0.91747   0.40448   0.31521   0.00000  Uiso   1.00
O451   O     0.76755   0.58549   0.18046   0.00000  Uiso   1.00
O452   O     0.72939   0.64592   0.19932   0.00000  Uiso   1.00
O453   O     0.83285   0.60485   0.12503   0.00000  Uiso   1.00
O454   O     0.76872   0.59808   0.08930   0.00000  Uiso   1.00
O455   O     0.76103   0.43835   0.34653   0.00000  Uiso   1.00
O456   O     0.89345   0.46042   0.25000   0.00000  Uiso   1.00
O457   O     0.78390   0.37955   0.39208   0.00000  Uiso   1.00
O458   O     0.87733   0.60781   0.40587   0.00000  Uiso   1.00
O459   O     0.81416   0.60433   0.36764   0.00000  Uiso   1.00
O460   O     0.90799   0.44178   0.15526   0.00000  Uiso   1.00
O461   O     0.88514   0.38158   0.11194   0.00000  Uiso   1.00
O462   O     0.89345   0.53958   0.25000   0.00000  Uiso   1.00
O463   O     0.77321   0.46042   0.24999   0.00000  Uiso   1.00
O464   O     0.83333   0.53959   0.18573   0.00000  Uiso   1.00
O465   O     0.83334   0.46041   0.31427   0.00000  Uiso   1.00
O466   O     0.83334   0.53959   0.31427   0.00000  Uiso   1.00
O467   O     0.83333   0.46041   0.18573   0.00000  Uiso   1.00
O468   O     0.75709   0.40610   0.18360   0.00000  Uiso   1.00
C469   C     0.08752   0.83323   0.25076   0.00000  Uiso   1.00
C470   C     0.31212   0.87473   0.24746   0.00000  Uiso   1.00
C471   C     0.31193   0.79079   0.24715   0.00000  Uiso   1.00
C472   C     0.02122   0.87468   0.25177   0.00000  Uiso   1.00
C473   C     0.14862   0.86108   0.04284   0.00000  Uiso   1.00
C474   C     0.14894   0.78913   0.45005   0.00000  Uiso   1.00
C475   C     0.18404   0.86300   0.45588   0.00000  Uiso   1.00
C476   C     0.18901   0.79087   0.05092   0.00000  Uiso   1.00
C477   C     0.15321   0.86790   0.08834   0.00000  Uiso   1.00
C478   C     0.14421   0.79335   0.40377   0.00000  Uiso   1.00
C479   C     0.17680   0.86977   0.41038   0.00000  Uiso   1.00
C480   C     0.24577   0.83326   0.24878   0.00000  Uiso   1.00
C481   C     0.19167   0.79503   0.09715   0.00000  Uiso   1.00
C482   C     0.17210   0.83301   0.11658   0.00000  Uiso   1.00
C483   C     0.16075   0.83279   0.38328   0.00000  Uiso   1.00
C484   C     0.16762   0.82383   0.02402   0.00000  Uiso   1.00
C485   C     0.16897   0.82368   0.47586   0.00000  Uiso   1.00
C486   C     0.29034   0.83290   0.24734   0.00000  Uiso   1.00
C487   C     0.04287   0.83283   0.25120   0.00000  Uiso   1.00
C488   C     0.12049   0.71509   0.18056   0.00000  Uiso   1.00
C489   C     0.23389   0.95484   0.29917   0.00000  Uiso   1.00
C490   C     0.21371   0.71488   0.31878   0.00000  Uiso   1.00
C491   C     0.16843   0.83347   0.16505   0.00000  Uiso   1.00
C492   C     0.09999   0.95521   0.20017   0.00000  Uiso   1.00
C493   C     0.14107   0.91395   0.10342   0.00000  Uiso   1.00
C494   C     0.11746   0.75913   0.37838   0.00000  Uiso   1.00
C495   C     0.18037   0.91784   0.39399   0.00000  Uiso   1.00
C496   C     0.21840   0.76162   0.12380   0.00000  Uiso   1.00
C497   C     0.16437   0.83332   0.33483   0.00000  Uiso   1.00
C498   C     0.14142   0.69166   0.21986   0.00000  Uiso   1.00
C499   C     0.19558   0.97573   0.27666   0.00000  Uiso   1.00
C500   C     0.19193   0.69143   0.28016   0.00000  Uiso   1.00
C501   C     0.13780   0.97601   0.22338   0.00000  Uiso   1.00
C502   C     0.02111   0.79073   0.24938   0.00000  Uiso   1.00
Cu503  Cu    0.16667   0.88022   0.25000   0.00000  Uiso   1.00
Cu504  Cu    0.16667   0.78645   0.25000   0.00000  Uiso   1.00
F505   F     0.12781   0.89289   0.01609   0.00000  Uiso   1.00
F506   F     0.13135   0.75323   0.47035   0.00000  Uiso   1.00
F507   F     0.20245   0.89696   0.48162   0.00000  Uiso   1.00
F508   F     0.20936   0.75641   0.03191   0.00000  Uiso   1.00
F509   F     0.04057   0.74919   0.25045   0.00000  Uiso   1.00
F510   F     0.29270   0.91599   0.24211   0.00000  Uiso   1.00
F511   F     0.29226   0.74939   0.24369   0.00000  Uiso   1.00
F512   F     0.04077   0.91585   0.25753   0.00000  Uiso   1.00
H513   H     0.11739   0.72402   0.11452   0.00000  Uiso   1.00
H514   H     0.26201   0.90508   0.33770   0.00000  Uiso   1.00
H515   H     0.26271   0.75164   0.34424   0.00000  Uiso   1.00
H516   H     0.03934   0.96301   0.18122   0.00000  Uiso   1.00
H517   H     0.09791   0.96421   0.09967   0.00000  Uiso   1.00
H518   H     0.09702   0.69337   0.37275   0.00000  Uiso   1.00
H519   H     0.15333   0.97055   0.35852   0.00000  Uiso   1.00
H520   H     0.23797   0.69569   0.13257   0.00000  Uiso   1.00
N521   N     0.16667   0.95069   0.25000   0.00000  Uiso   1.00
N522   N     0.16667   0.71598   0.25000   0.00000  Uiso   1.00
O523   O     0.10655   0.87291   0.24999   0.00000  Uiso   1.00
O524   O     0.13410   0.70675   0.13919   0.00000  Uiso   1.00
O525   O     0.26653   0.97517   0.29724   0.00000  Uiso   1.00
O526   O     0.23362   0.91446   0.32419   0.00000  Uiso   1.00
O527   O     0.20028   0.71138   0.35477   0.00000  Uiso   1.00
O528   O     0.25080   0.73781   0.31521   0.00000  Uiso   1.00
O529   O     0.10088   0.91882   0.18046   0.00000  Uiso   1.00
O530   O     0.06273   0.97925   0.19932   0.00000  Uiso   1.00
O531   O     0.16619   0.93819   0.12503   0.00000  Uiso   1.00
O532   O     0.10205   0.93142   0.08930   0.00000  Uiso   1.00
O533   O     0.09436   0.77169   0.34653   0.00000  Uiso   1.00
O534   O     0.22679   0.79375   0.25000   0.00000  Uiso   1.00
O535   O     0.11724   0.71288   0.39208   0.00000  Uiso   1.00
O536   O     0.21067   0.94114   0.40587   0.00000  Uiso   1.00
O537   O     0.14749   0.93766   0.36764   0.00000  Uiso   1.00
O538   O     0.24133   0.77512   0.15526   0.00000  Uiso   1.00
O539   O     0.21847   0.71492   0.11194   0.00000  Uiso   1.00
O540   O     0.22679   0.87291   0.25000   0.00000  Uiso   1.00
O541   O     0.10655   0.79375   0.24999   0.00000  Uiso   1.00
O542   O     0.16666   0.87293   0.18573   0.00000  Uiso   1.00
O543   O     0.16667   0.79374   0.31427   0.00000  Uiso   1.00
O544   O     0.16667   0.87293   0.31427   0.00000  Uiso   1.00
O545   O     0.16666   0.79374   0.18573   0.00000  Uiso   1.00
O546   O     0.09043   0.73944   0.18360   0.00000  Uiso   1.00
C547   C     0.42086   0.83323   0.25076   0.00000  Uiso   1.00
C548   C     0.64546   0.87473   0.24746   0.00000  Uiso   1.00
C549   C     0.64526   0.79079   0.24715   0.00000  Uiso   1.00
C550   C     0.35456   0.87468   0.25177   0.00000  Uiso   1.00
C551   C     0.48195   0.86108   0.04284   0.00000  Uiso   1.00
C552   C     0.48227   0.78913   0.45005   0.00000  Uiso   1.00
C553   C     0.51737   0.86300   0.45588   0.00000  Uiso   1.00
C554   C     0.52234   0.79087   0.05092   0.00000  Uiso   1.00
C555   C     0.48654   0.86790   0.08834   0.00000  Uiso   1.00
C556   C     0.47754   0.79335   0.40377   0.00000  Uiso   1.00
C557   C     0.51013   0.86977   0.41038   0.00000  Uiso   1.00
C558   C     0.57910   0.83326   0.24878   0.00000  Uiso   1.00
C559   C     0.52501   0.79503   0.09715   0.00000  Uiso   1.00
C560   C     0.50543   0.83301   0.11658   0.00000  Uiso   1.00
C561   C     0.49408   0.83279   0.38328   0.00000  Uiso   1.00
C562   C     0.50096   0.82383   0.02402   0.00000  Uiso   1.00
C563   C     0.50231   0.82368   0.47586   0.00000  Uiso   1.00
C564   C     0.62368   0.83290   0.24734   0.00000  Uiso   1.00
C565   C     0.37621   0.83283   0.25120   0.00000  Uiso   1.00
C566   C     0.45383   0.71509   0.18056   0.00000  Uiso   1.00
C567   C     0.56723   0.95484   0.29917   0.00000  Uiso   1.00
C568   C     0.54704   0.71488   0.31878   0.00000  Uiso   1.00
C569   C     0.50176   0.83347   0.16505   0.00000  Uiso   1.00
C570   C     0.43332   0.95521   0.20017   0.00000  Uiso   1.00
C571   C     0.47441   0.91395   0.10342   0.00000  Uiso   1.00
C572   C     0.45080   0.75913   0.37838   0.00000  Uiso   1.00
C573   C     0.51370   0.91784   0.39399   0.00000  Uiso   1.00
C574   C     0.55174   0.76162   0.12380   0.00000  Uiso   1.00
C575   C     0.49770   0.83332   0.33483   0.00000  Uiso   1.00
C576   C     0.47475   0.69166   0.21986   0.00000  Uiso   1.00
C577   C     0.52891   0.97573   0.27666   0.00000  Uiso   1.00
C578   C     0.52526   0.69143   0.28016   0.00000  Uiso   1.00
C579   C     0.47114   0.97601   0.22338   0.00000  Uiso   1.00
C580   C     0.35444   0.79073   0.24938   0.00000  Uiso   1.00
Cu581  Cu    0.50000   0.88022   0.25000   0.00000  Uiso   1.00
Cu582  Cu    0.50000   0.78645   0.25000   0.00000  Uiso   1.00
F583   F     0.46114   0.89289   0.01609   0.00000  Uiso   1.00
F584   F     0.46468   0.75323   0.47035   0.00000  Uiso   1.00
F585   F     0.53578   0.89696   0.48162   0.00000  Uiso   1.00
F586   F     0.54269   0.75641   0.03191   0.00000  Uiso   1.00
F587   F     0.37390   0.74919   0.25045   0.00000  Uiso   1.00
F588   F     0.62604   0.91599   0.24211   0.00000  Uiso   1.00
F589   F     0.62559   0.74939   0.24369   0.00000  Uiso   1.00
F590   F     0.37411   0.91585   0.25753   0.00000  Uiso   1.00
H591   H     0.45072   0.72402   0.11452   0.00000  Uiso   1.00
H592   H     0.59535   0.90508   0.33770   0.00000  Uiso   1.00
H593   H     0.59605   0.75164   0.34424   0.00000  Uiso   1.00
H594   H     0.37268   0.96301   0.18122   0.00000  Uiso   1.00
H595   H     0.43124   0.96421   0.09967   0.00000  Uiso   1.00
H596   H     0.43035   0.69337   0.37275   0.00000  Uiso   1.00
H597   H     0.48666   0.97055   0.35852   0.00000  Uiso   1.00
H598   H     0.57131   0.69569   0.13257   0.00000  Uiso   1.00
N599   N     0.50000   0.95069   0.25000   0.00000  Uiso   1.00
N600   N     0.50000   0.71598   0.25000   0.00000  Uiso   1.00
O601   O     0.43988   0.87291   0.24999   0.00000  Uiso   1.00
O602   O     0.46744   0.70675   0.13919   0.00000  Uiso   1.00
O603   O     0.59987   0.97517   0.29724   0.00000  Uiso   1.00
O604   O     0.56696   0.91446   0.32419   0.00000  Uiso   1.00
O605   O     0.53361   0.71138   0.35477   0.00000  Uiso   1.00
O606   O     0.58413   0.73781   0.31521   0.00000  Uiso   1.00
O607   O     0.43422   0.91882   0.18046   0.00000  Uiso   1.00
O608   O     0.39606   0.97925   0.19932   0.00000  Uiso   1.00
O609   O     0.49952   0.93819   0.12503   0.00000  Uiso   1.00
O610   O     0.43538   0.93142   0.08930   0.00000  Uiso   1.00
O611   O     0.42770   0.77169   0.34653   0.00000  Uiso   1.00
O612   O     0.56012   0.79375   0.25000   0.00000  Uiso   1.00
O613   O     0.45057   0.71288   0.39208   0.00000  Uiso   1.00
O614   O     0.54400   0.94114   0.40587   0.00000  Uiso   1.00
O615   O     0.48082   0.93766   0.36764   0.00000  Uiso   1.00
O616   O     0.57466   0.77512   0.15526   0.00000  Uiso   1.00
O617   O     0.55180   0.71492   0.11194   0.00000  Uiso   1.00
O618   O     0.56012   0.87291   0.25000   0.00000  Uiso   1.00
O619   O     0.43988   0.79375   0.24999   0.00000  Uiso   1.00
O620   O     0.50000   0.87293   0.18573   0.00000  Uiso   1.00
O621   O     0.50000   0.79374   0.31427   0.00000  Uiso   1.00
O622   O     0.50000   0.87293   0.31427   0.00000  Uiso   1.00
O623   O     0.50000   0.79374   0.18573   0.00000  Uiso   1.00
O624   O     0.42376   0.73944   0.18360   0.00000  Uiso   1.00
C625   C     0.75419   0.83323   0.25076   0.00000  Uiso   1.00
C626   C     0.97879   0.87473   0.24746   0.00000  Uiso   1.00
C627   C     0.97859   0.79079   0.24715   0.00000  Uiso   1.00
C628   C     0.68789   0.87468   0.25177   0.00000  Uiso   1.00
C629   C     0.81528   0.86108   0.04284   0.00000  Uiso   1.00
C630   C     0.81560   0.78913   0.45005   0.00000  Uiso   1.00
C631   C     0.85071   0.86300   0.45588   0.00000  Uiso   1.00
C632   C     0.85567   0.79087   0.05092   0.00000  Uiso   1.00
C633   C     0.81988   0.86790   0.08834   0.00000  Uiso   1.00
C634   C     0.81087   0.79335   0.40377   0.00000  Uiso   1.00
C635   C     0.84346   0.86977   0.41038   0.00000  Uiso   1.00
C636   C     0.91243   0.83326   0.24878   0.00000  Uiso   1.00
C637   C     0.85834   0.79503   0.09715   0.00000  Uiso   1.00
C638   C     0.83876   0.83301   0.11658   0.00000  Uiso   1.00
C639   C     0.82742   0.83279   0.38328   0.00000  Uiso   1.00
C640   C     0.83429   0.82383   0.02402   0.00000  Uiso   1.00
C641   C     0.83564   0.82368   0.47586   0.00000  Uiso   1.00
C642   C     0.95701   0.83290   0.24734   0.00000  Uiso   1.00
C643   C     0.70954   0.83283   0.25120   0.00000  Uiso   1.00
C644   C     0.78716   0.71509   0.18056   0.00000  Uiso   1.00
C645   C     0.90056   0.95484   0.29917   0.00000  Uiso   1.00
C646   C     0.88038   0.71488   0.31878   0.00000  Uiso   1.00
C647   C     0.83509   0.83347   0.16505   0.00000  Uiso   1.00
C648   C     0.76665   0.95521   0.20017   0.00000  Uiso   1.00
C649   C     0.80774   0.91395   0.10342   0.00000  Uiso   1.00
C650   C     0.78413   0.75913   0.37838   0.00000  Uiso   1.00
C651   C     0.84704   0.91784   0.39399   0.00000  Uiso   1.00
C652   C     0.88507   0.76162   0.12380   0.00000  Uiso   1.00
C653   C     0.83103   0.83332   0.33483   0.00000  Uiso   1.00
C654   C     0.80809   0.69166   0.21986   0.00000  Uiso   1.00
C655   C     0.86225   0.97573   0.27666   0.00000  Uiso   1.00
C656   C     0.85860   0.69143   0.28016   0.00000  Uiso   1.00
C657   C     0.80447   0.97601   0.22338   0.00000  Uiso   1.00
C658   C     0.68777   0.79073   0.24938   0.00000  Uiso   1.00
Cu659  Cu    0.83333   0.88022   0.25000   0.00000  Uiso   1.00
Cu660  Cu    0.83333   0.78645   0.25000   0.00000  Uiso   1.00
F661   F     0.79447   0.89289   0.01609   0.00000  Uiso   1.00
F662   F     0.79802   0.75323   0.47035   0.00000  Uiso   1.00
F663   F     0.86911   0.89696   0.48162   0.00000  Uiso   1.00
F664   F     0.87603   0.75641   0.03191   0.00000  Uiso   1.00
F665   F     0.70723   0.74919   0.25045   0.00000  Uiso   1.00
F666   F     0.95937   0.91599   0.24211   0.00000  Uiso   1.00
F667   F     0.95893   0.74939   0.24369   0.00000  Uiso   1.00
F668   F     0.70744   0.91585   0.25753   0.00000  Uiso   1.00
H669   H     0.78405   0.72402   0.11452   0.00000  Uiso   1.00
H670   H     0.92868   0.90508   0.33770   0.00000  Uiso   1.00
H671   H     0.92938   0.75164   0.34424   0.00000  Uiso   1.00
H672   H     0.70601   0.96301   0.18122   0.00000  Uiso   1.00
H673   H     0.76458   0.96421   0.09967   0.00000  Uiso   1.00
H674   H     0.76368   0.69337   0.37275   0.00000  Uiso   1.00
H675   H     0.82000   0.97055   0.35852   0.00000  Uiso   1.00
H676   H     0.90464   0.69569   0.13257   0.00000  Uiso   1.00
N677   N     0.83333   0.95069   0.25000   0.00000  Uiso   1.00
N678   N     0.83333   0.71598   0.25000   0.00000  Uiso   1.00
O679   O     0.77321   0.87291   0.24999   0.00000  Uiso   1.00
O680   O     0.80077   0.70675   0.13919   0.00000  Uiso   1.00
O681   O     0.93320   0.97517   0.29724   0.00000  Uiso   1.00
O682   O     0.90029   0.91446   0.32419   0.00000  Uiso   1.00
O683   O     0.86694   0.71138   0.35477   0.00000  Uiso   1.00
O684   O     0.91747   0.73781   0.31521   0.00000  Uiso   1.00
O685   O     0.76755   0.91882   0.18046   0.00000  Uiso   1.00
O686   O     0.72939   0.97925   0.19932   0.00000  Uiso   1.00
O687   O     0.83285   0.93819   0.12503   0.00000  Uiso   1.00
O688   O     0.76872   0.93142   0.08930   0.00000  Uiso   1.00
O689   O     0.76103   0.77169   0.34653   0.00000  Uiso   1.00
O690   O     0.89345   0.79375   0.25000   0.00000  Uiso   1.00
O691   O     0.78390   0.71288   0.39208   0.00000  Uiso   1.00
O692   O     0.87733   0.94114   0.40587   0.00000  Uiso   1.00
O693   O     0.81416   0.93766   0.36764   0.00000  Uiso   1.00
O694   O     0.90799   0.77512   0.15526   0.00000  Uiso   1.00
O695   O     0.88514   0.71492   0.11194   0.00000  Uiso   1.00
O696   O     0.89345   0.87291   0.25000   0.00000  Uiso   1.00
O697   O     0.77321   0.79375   0.24999   0.00000  Uiso   1.00
O698   O     0.83333   0.87293   0.18573   0.00000  Uiso   1.00
O699   O     0.83334   0.79374   0.31427   0.00000  Uiso   1.00
O700   O     0.83334   0.87293   0.31427   0.00000  Uiso   1.00
O701   O     0.83333   0.79374   0.18573   0.00000  Uiso   1.00
O702   O     0.75709   0.73944   0.18360   0.00000  Uiso   1.00
C703   C     0.08752   0.16656   0.75076   0.00000  Uiso   1.00
C704   C     0.31212   0.20806   0.74746   0.00000  Uiso   1.00
C705   C     0.31193   0.12412   0.74715   0.00000  Uiso   1.00
C706   C     0.02122   0.20801   0.75177   0.00000  Uiso   1.00
C707   C     0.14862   0.19441   0.54284   0.00000  Uiso   1.00
C708   C     0.14894   0.12246   0.95005   0.00000  Uiso   1.00
C709   C     0.18404   0.19633   0.95588   0.00000  Uiso   1.00
C710   C     0.18901   0.12421   0.55092   0.00000  Uiso   1.00
C711   C     0.15321   0.20124   0.58834   0.00000  Uiso   1.00
C712   C     0.14421   0.12668   0.90377   0.00000  Uiso   1.00
C713   C     0.17680   0.20311   0.91038   0.00000  Uiso   1.00
C714   C     0.24577   0.16659   0.74878   0.00000  Uiso   1.00
C715   C     0.19167   0.12837   0.59715   0.00000  Uiso   1.00
C716   C     0.17210   0.16634   0.61658   0.00000  Uiso   1.00
C717   C     0.16075   0.16613   0.88328   0.00000  Uiso   1.00
C718   C     0.16762   0.15716   0.52402   0.00000  Uiso   1.00
C719   C     0.16897   0.15701   0.97586   0.00000  Uiso   1.00
C720   C     0.29034   0.16623   0.74734   0.00000  Uiso   1.00
C721   C     0.04287   0.16616   0.75120   0.00000  Uiso   1.00
C722   C     0.12049   0.04843   0.68056   0.00000  Uiso   1.00
C723   C     0.23389   0.28817   0.79917   0.00000  Uiso   1.00
C724   C     0.21371   0.04822   0.81878   0.00000  Uiso   1.00
C725   C     0.16843   0.16680   0.66505   0.00000  Uiso   1.00
C726   C     0.09999   0.28855   0.70017   0.00000  Uiso   1.00
C727   C     0.14107   0.24729   0.60342   0.00000  Uiso   1.00
C728   C     0.11746   0.09246   0.87838   0.00000  Uiso   1.00
C729   C     0.18037   0.25118   0.89399   0.00000  Uiso   1.00
C730   C     0.21840   0.09495   0.62380   0.00000  Uiso   1.00
C731   C     0.16437   0.16665   0.83483   0.00000  Uiso   1.00
C732   C     0.14142   0.02500   0.71986   0.00000  Uiso   1.00
C733   C     0.19558   0.30906   0.77666   0.00000  Uiso   1.00
C734   C     0.19193   0.02476   0.78016   0.00000  Uiso   1.00
C735   C     0.13780   0.30935   0.72338   0.00000  Uiso   1.00
C736   C     0.02111   0.12407   0.74938   0.00000  Uiso   1.00
Cu737  Cu    0.16667   0.21355   0.75000   0.00000  Uiso   1.00
Cu738  Cu    0.16667   0.11978   0.75000   0.00000  Uiso   1.00
F739   F     0.12781   0.22622   0.51609   0.00000  Uiso   1.00
F740   F     0.13135   0.08656   0.97035   0.00000  Uiso   1.00
F741   F     0.20245   0.23030   0.98162   0.00000  Uiso   1.00
F742   F     0.20936   0.08974   0.53191   0.00000  Uiso   1.00
F743   F     0.04057   0.08252   0.75045   0.00000  Uiso   1.00
F744   F     0.29270   0.24933   0.74211   0.00000  Uiso   1.00
F745   F     0.29226   0.08272   0.74369   0.00000  Uiso   1.00
F746   F     0.04077   0.24918   0.75753   0.00000  Uiso   1.00
H747   H     0.11739   0.05736   0.61452   0.00000  Uiso   1.00
H748   H     0.26201   0.23842   0.83770   0.00000  Uiso   1.00
H749   H     0.26271   0.08498   0.84424   0.00000  Uiso   1.00
H750   H     0.03934   0.29635   0.68122   0.00000  Uiso   1.00
H751   H     0.09791   0.29754   0.59967   0.00000  Uiso   1.00
H752   H     0.09702   0.02670   0.87275   0.00000  Uiso   1.00
H753   H     0.15333   0.30388   0.85852   0.00000  Uiso   1.00
H754   H     0.23797   0.02902   0.63257   0.00000  Uiso   1.00
N755   N     0.16667   0.28402   0.75000   0.00000  Uiso   1.00
N756   N     0.16667   0.04931   0.75000   0.00000  Uiso   1.00
O757   O     0.10655   0.20625   0.74999   0.00000  Uiso   1.00
O758   O     0.13410   0.04008   0.63919   0.00000  Uiso   1.00
O759   O     0.26653   0.30850   0.79724   0.00000  Uiso   1.00
O760   O     0.23362   0.24779   0.82419   0.00000  Uiso   1.00
O761   O     0.20028   0.04471   0.85477   0.00000  Uiso   1.00
O762   O     0.25080   0.07115   0.81521   0.00000  Uiso   1.00
O763   O     0.10088   0.25216   0.68046   0.00000  Uiso   1.00
O764   O     0.06273   0.31259   0.69932   0.00000  Uiso   1.00
O765   O     0.16619   0.27152   0.62503   0.00000  Uiso   1.00
O766   O     0.10205   0.26475   0.58930   0.00000  Uiso   1.00
O767   O     0.09436   0.10502   0.84653   0.00000  Uiso   1.00
O768   O     0.22679   0.12709   0.75000   0.00000  Uiso   1.00
O769   O     0.11724   0.04621   0.89208   0.00000  Uiso   1.00
O770   O     0.21067   0.27448   0.90587   0.00000  Uiso   1.00
O771   O     0.14749   0.27099   0.86764   0.00000  Uiso   1.00
O772   O     0.24133   0.10845   0.65526   0.00000  Uiso   1.00
O773   O     0.21847   0.04825   0.61194   0.00000  Uiso   1.00
O774   O     0.22679   0.20625   0.75000   0.00000  Uiso   1.00
O775   O     0.10655   0.12709   0.74999   0.00000  Uiso   1.00
O776   O     0.16666   0.20626   0.68573   0.00000  Uiso   1.00
O777   O     0.16667   0.12707   0.81427   0.00000  Uiso   1.00
O778   O     0.16667   0.20626   0.81427   0.00000  Uiso   1.00
O779   O     0.16666   0.12707   0.68573   0.00000  Uiso   1.00
O780   O     0.09043   0.07277   0.68360   0.00000  Uiso   1.00
C781   C     0.42086   0.16656   0.75076   0.00000  Uiso   1.00
C782   C     0.64546   0.20806   0.74746   0.00000  Uiso   1.00
C783   C     0.64526   0.12412   0.74715   0.00000  Uiso   1.00
C784   C     0.35456   0.20801   0.75177   0.00000  Uiso   1.00
C785   C     0.48195   0.19441   0.54284   0.00000  Uiso   1.00
C786   C     0.48227   0.12246   0.95005   0.00000  Uiso   1.00
C787   C     0.51737   0.19633   0.95588   0.00000  Uiso   1.00
C788   C     0.52234   0.12421   0.55092   0.00000  Uiso   1.00
C789   C     0.48654   0.20124   0.58834   0.00000  Uiso   1.00
C790   C     0.47754   0.12668   0.90377   0.00000  Uiso   1.00
C791   C     0.51013   0.20311   0.91038   0.00000  Uiso   1.00
C792   C     0.57910   0.16659   0.74878   0.00000  Uiso   1.00
C793   C     0.52501   0.12837   0.59715   0.00000  Uiso   1.00
C794   C     0.50543   0.16634   0.61658   0.00000  Uiso   1.00
C795   C     0.49408   0.16613   0.88328   0.00000  Uiso   1.00
C796   C     0.50096   0.15716   0.52402   0.00000  Uiso   1.00
C797   C     0.50231   0.15701   0.97586   0.00000  Uiso   1.00
C798   C     0.62368   0.16623   0.74734   0.00000  Uiso   1.00
C799   C     0.37621   0.16616   0.75120   0.00000  Uiso   1.00
C800   C     0.45383   0.04843   0.68056   0.00000  Uiso   1.00
C801   C     0.56723   0.28817   0.79917   0.00000  Uiso   1.00
C802   C     0.54704   0.04822   0.81878   0.00000  Uiso   1.00
C803   C     0.50176   0.16680   0.66505   0.00000  Uiso   1.00
C804   C     0.43332   0.28855   0.70017   0.00000  Uiso   1.00
C805   C     0.47441   0.24729   0.60342   0.00000  Uiso   1.00
C806   C     0.45080   0.09246   0.87838   0.00000  Uiso   1.00
C807   C     0.51370   0.25118   0.89399   0.00000  Uiso   1.00
C808   C     0.55174   0.09495   0.62380   0.00000  Uiso   1.00
C809   C     0.49770   0.16665   0.83483   0.00000  Uiso   1.00
C810   C     0.47475   0.02500   0.71986   0.00000  Uiso   1.00
C811   C     0.52891   0.30906   0.77666   0.00000  Uiso   1.00
C812   C     0.52526   0.02476   0.78016   0.00000  Uiso   1.00
C813   C     0.47114   0.30935   0.72338   0.00000  Uiso   1.00
C814   C     0.35444   0.12407   0.74938   0.00000  Uiso   1.00
Cu815  Cu    0.50000   0.21355   0.75000   0.00000  Uiso   1.00
Cu816  Cu    0.50000   0.11978   0.75000   0.00000  Uiso   1.00
F817   F     0.46114   0.22622   0.51609   0.00000  Uiso   1.00
F818   F     0.46468   0.08656   0.97035   0.00000  Uiso   1.00
F819   F     0.53578   0.23030   0.98162   0.00000  Uiso   1.00
F820   F     0.54269   0.08974   0.53191   0.00000  Uiso   1.00
F821   F     0.37390   0.08252   0.75045   0.00000  Uiso   1.00
F822   F     0.62604   0.24933   0.74211   0.00000  Uiso   1.00
F823   F     0.62559   0.08272   0.74369   0.00000  Uiso   1.00
F824   F     0.37411   0.24918   0.75753   0.00000  Uiso   1.00
H825   H     0.45072   0.05736   0.61452   0.00000  Uiso   1.00
H826   H     0.59535   0.23842   0.83770   0.00000  Uiso   1.00
H827   H     0.59605   0.08498   0.84424   0.00000  Uiso   1.00
H828   H     0.37268   0.29635   0.68122   0.00000  Uiso   1.00
H829   H     0.43124   0.29754   0.59967   0.00000  Uiso   1.00
H830   H     0.43035   0.02670   0.87275   0.00000  Uiso   1.00
H831   H     0.48666   0.30388   0.85852   0.00000  Uiso   1.00
H832   H     0.57131   0.02902   0.63257   0.00000  Uiso   1.00
N833   N     0.50000   0.28402   0.75000   0.00000  Uiso   1.00
N834   N     0.50000   0.04931   0.75000   0.00000  Uiso   1.00
O835   O     0.43988   0.20625   0.74999   0.00000  Uiso   1.00
O836   O     0.46744   0.04008   0.63919   0.00000  Uiso   1.00
O837   O     0.59987   0.30850   0.79724   0.00000  Uiso   1.00
O838   O     0.56696   0.24779   0.82419   0.00000  Uiso   1.00
O839   O     0.53361   0.04471   0.85477   0.00000  Uiso   1.00
O840   O     0.58413   0.07115   0.81521   0.00000  Uiso   1.00
O841   O     0.43422   0.25216   0.68046   0.00000  Uiso   1.00
O842   O     0.39606   0.31259   0.69932   0.00000  Uiso   1.00
O843   O     0.49952   0.27152   0.62503   0.00000  Uiso   1.00
O844   O     0.43538   0.26475   0.58930   0.00000  Uiso   1.00
O845   O     0.42770   0.10502   0.84653   0.00000  Uiso   1.00
O846   O     0.56012   0.12709   0.75000   0.00000  Uiso   1.00
O847   O     0.45057   0.04621   0.89208   0.00000  Uiso   1.00
O848   O     0.54400   0.27448   0.90587   0.00000  Uiso   1.00
O849   O     0.48082   0.27099   0.86764   0.00000  Uiso   1.00
O850   O     0.57466   0.10845   0.65526   0.00000  Uiso   1.00
O851   O     0.55180   0.04825   0.61194   0.00000  Uiso   1.00
O852   O     0.56012   0.20625   0.75000   0.00000  Uiso   1.00
O853   O     0.43988   0.12709   0.74999   0.00000  Uiso   1.00
O854   O     0.50000   0.20626   0.68573   0.00000  Uiso   1.00
O855   O     0.50000   0.12707   0.81427   0.00000  Uiso   1.00
O856   O     0.50000   0.20626   0.81427   0.00000  Uiso   1.00
O857   O     0.50000   0.12707   0.68573   0.00000  Uiso   1.00
O858   O     0.42376   0.07277   0.68360   0.00000  Uiso   1.00
C859   C     0.75419   0.16656   0.75076   0.00000  Uiso   1.00
C860   C     0.97879   0.20806   0.74746   0.00000  Uiso   1.00
C861   C     0.97859   0.12412   0.74715   0.00000  Uiso   1.00
C862   C     0.68789   0.20801   0.75177   0.00000  Uiso   1.00
C863   C     0.81528   0.19441   0.54284   0.00000  Uiso   1.00
C864   C     0.81560   0.12246   0.95005   0.00000  Uiso   1.00
C865   C     0.85071   0.19633   0.95588   0.00000  Uiso   1.00
C866   C     0.85567   0.12421   0.55092   0.00000  Uiso   1.00
C867   C     0.81988   0.20124   0.58834   0.00000  Uiso   1.00
C868   C     0.81087   0.12668   0.90377   0.00000  Uiso   1.00
C869   C     0.84346   0.20311   0.91038   0.00000  Uiso   1.00
C870   C     0.91243   0.16659   0.74878   0.00000  Uiso   1.00
C871   C     0.85834   0.12837   0.59715   0.00000  Uiso   1.00
C872   C     0.83876   0.16634   0.61658   0.00000  Uiso   1.00
C873   C     0.82742   0.16613   0.88328   0.00000  Uiso   1.00
C874   C     0.83429   0.15716   0.52402   0.00000  Uiso   1.00
C875   C     0.83564   0.15701   0.97586   0.00000  Uiso   1.00
C876   C     0.95701   0.16623   0.74734   0.00000  Uiso   1.00
C877   C     0.70954   0.16616   0.75120   0.00000  Uiso   1.00
C878   C     0.78716   0.04843   0.68056   0.00000  Uiso   1.00
C879   C     0.90056   0.28817   0.79917   0.00000  Uiso   1.00
C880   C     0.88038   0.04822   0.81878   0.00000  Uiso   1.00
C881   C     0.83509   0.16680   0.66505   0.00000  Uiso   1.00
C882   C     0.76665   0.28855   0.70017   0.00000  Uiso   1.00
C883   C     0.80774   0.24729   0.60342   0.00000  Uiso   1.00
C884   C     0.78413   0.09246   0.87838   0.00000  Uiso   1.00
C885   C     0.84704   0.25118   0.89399   0.00000  Uiso   1.00
C886   C     0.88507   0.09495   0.62380   0.00000  Uiso   1.00
C887   C     0.83103   0.16665   0.83483   0.00000  Uiso   1.00
C888   C     0.80809   0.02500   0.71986   0.00000  Uiso   1.00
C889   C     0.86225   0.30906   0.77666   0.00000  Uiso   1.00
C890   C     0.85860   0.02476   0.78016   0.00000  Uiso   1.00
C891   C     0.80447   0.30935   0.72338   0.00000  Uiso   1.00
C892   C     0.68777   0.12407   0.74938   0.00000  Uiso   1.00
Cu893  Cu    0.83333   0.21355   0.75000   0.00000  Uiso   1.00
Cu894  Cu    0.83333   0.11978   0.75000   0.00000  Uiso   1.00
F895   F     0.79447   0.22622   0.51609   0.00000  Uiso   1.00
F896   F     0.79802   0.08656   0.97035   0.00000  Uiso   1.00
F897   F     0.86911   0.23030   0.98162   0.00000  Uiso   1.00
F898   F     0.87603   0.08974   0.53191   0.00000  Uiso   1.00
F899   F     0.70723   0.08252   0.75045   0.00000  Uiso   1.00
F900   F     0.95937   0.24933   0.74211   0.00000  Uiso   1.00
F901   F     0.95893   0.08272   0.74369   0.00000  Uiso   1.00
F902   F     0.70744   0.24918   0.75753   0.00000  Uiso   1.00
H903   H     0.78405   0.05736   0.61452   0.00000  Uiso   1.00
H904   H     0.92868   0.23842   0.83770   0.00000  Uiso   1.00
H905   H     0.92938   0.08498   0.84424   0.00000  Uiso   1.00
H906   H     0.70601   0.29635   0.68122   0.00000  Uiso   1.00
H907   H     0.76458   0.29754   0.59967   0.00000  Uiso   1.00
H908   H     0.76368   0.02670   0.87275   0.00000  Uiso   1.00
H909   H     0.82000   0.30388   0.85852   0.00000  Uiso   1.00
H910   H     0.90464   0.02902   0.63257   0.00000  Uiso   1.00
N911   N     0.83333   0.28402   0.75000   0.00000  Uiso   1.00
N912   N     0.83333   0.04931   0.75000   0.00000  Uiso   1.00
O913   O     0.77321   0.20625   0.74999   0.00000  Uiso   1.00
O914   O     0.80077   0.04008   0.63919   0.00000  Uiso   1.00
O915   O     0.93320   0.30850   0.79724   0.00000  Uiso   1.00
O916   O     0.90029   0.24779   0.82419   0.00000  Uiso   1.00
O917   O     0.86694   0.04471   0.85477   0.00000  Uiso   1.00
O918   O     0.91747   0.07115   0.81521   0.00000  Uiso   1.00
O919   O     0.76755   0.25216   0.68046   0.00000  Uiso   1.00
O920   O     0.72939   0.31259   0.69932   0.00000  Uiso   1.00
O921   O     0.83285   0.27152   0.62503   0.00000  Uiso   1.00
O922   O     0.76872   0.26475   0.58930   0.00000  Uiso   1.00
O923   O     0.76103   0.10502   0.84653   0.00000  Uiso   1.00
O924   O     0.89345   0.12709   0.75000   0.00000  Uiso   1.00
O925   O     0.78390   0.04621   0.89208   0.00000  Uiso   1.00
O926   O     0.87733   0.27448   0.90587   0.00000  Uiso   1.00
O927   O     0.81416   0.27099   0.86764   0.00000  Uiso   1.00
O928   O     0.90799   0.10845   0.65526   0.00000  Uiso   1.00
O929   O     0.88514   0.04825   0.61194   0.00000  Uiso   1.00
O930   O     0.89345   0.20625   0.75000   0.00000  Uiso   1.00
O931   O     0.77321   0.12709   0.74999   0.00000  Uiso   1.00
O932   O     0.83333   0.20626   0.68573   0.00000  Uiso   1.00
O933   O     0.83334   0.12707   0.81427   0.00000  Uiso   1.00
O934   O     0.83334   0.20626   0.81427   0.00000  Uiso   1.00
O935   O     0.83333   0.12707   0.68573   0.00000  Uiso   1.00
O936   O     0.75709   0.07277   0.68360   0.00000  Uiso   1.00
C937   C     0.08752   0.49990   0.75076   0.00000  Uiso   1.00
C938   C     0.31212   0.54140   0.74746   0.00000  Uiso   1.00
C939   C     0.31193   0.45745   0.74715   0.00000  Uiso   1.00
C940   C     0.02122   0.54134   0.75177   0.00000  Uiso   1.00
C941   C     0.14862   0.52775   0.54284   0.00000  Uiso   1.00
C942   C     0.14894   0.45580   0.95005   0.00000  Uiso   1.00
C943   C     0.18404   0.52966   0.95588   0.00000  Uiso   1.00
C944   C     0.18901   0.45754   0.55092   0.00000  Uiso   1.00
C945   C     0.15321   0.53457   0.58834   0.00000  Uiso   1.00
C946   C     0.14421   0.46002   0.90377   0.00000  Uiso   1.00
C947   C     0.17680   0.53644   0.91038   0.00000  Uiso   1.00
C948   C     0.24577   0.49993   0.74878   0.00000  Uiso   1.00
C949   C     0.19167   0.46170   0.59715   0.00000  Uiso   1.00
C950   C     0.17210   0.49968   0.61658   0.00000  Uiso   1.00
C951   C     0.16075   0.49946   0.88328   0.00000  Uiso   1.00
C952   C     0.16762   0.49050   0.52402   0.00000  Uiso   1.00
C953   C     0.16897   0.49035   0.97586   0.00000  Uiso   1.00
C954   C     0.29034   0.49957   0.74734   0.00000  Uiso   1.00
C955   C     0.04287   0.49949   0.75120   0.00000  Uiso   1.00
C956   C     0.12049   0.38176   0.68056   0.00000  Uiso   1.00
C957   C     0.23389   0.62150   0.79917   0.00000  Uiso   1.00
C958   C     0.21371   0.38155   0.81878   0.00000  Uiso   1.00
C959   C     0.16843   0.50013   0.66505   0.00000  Uiso   1.00
C960   C     0.09999   0.62188   0.70017   0.00000  Uiso   1.00
C961   C     0.14107   0.58062   0.60342   0.00000  Uiso   1.00
C962   C     0.11746   0.42579   0.87838   0.00000  Uiso   1.00
C963   C     0.18037   0.58451   0.89399   0.00000  Uiso   1.00
C964   C     0.21840   0.42828   0.62380   0.00000  Uiso   1.00
C965   C     0.16437   0.49998   0.83483   0.00000  Uiso   1.00
C966   C     0.14142   0.35833   0.71986   0.00000  Uiso   1.00
C967   C     0.19558   0.64239   0.77666   0.00000  Uiso   1.00
C968   C     0.19193   0.35810   0.78016   0.00000  Uiso   1.00
C969   C     0.13780   0.64268   0.72338   0.00000  Uiso   1.00
C970   C     0.02111   0.45740   0.74938   0.00000  Uiso   1.00
Cu971  Cu    0.16667   0.54689   0.75000   0.00000  Uiso   1.00
Cu972  Cu    0.16667   0.45311   0.75000   0.00000  Uiso   1.00
F973   F     0.12781   0.55956   0.51609   0.00000  Uiso   1.00
F974   F     0.13135   0.41990   0.97035   0.00000  Uiso   1.00
F975   F     0.20245   0.56363   0.98162   0.00000  Uiso   1.00
F976   F     0.20936   0.42308   0.53191   0.00000  Uiso   1.00
F977   F     0.04057   0.41586   0.75045   0.00000  Uiso   1.00
F978   F     0.29270   0.58266   0.74211   0.00000  Uiso   1.00
F979   F     0.29226   0.41606   0.74369   0.00000  Uiso   1.00
F980   F     0.04077   0.58252   0.75753   0.00000  Uiso   1.00
H981   H     0.11739   0.39069   0.61452   0.00000  Uiso   1.00
H982   H     0.26201   0.57175   0.83770   0.00000  Uiso   1.00
H983   H     0.26271   0.41831   0.84424   0.00000  Uiso   1.00
H984   H     0.03934   0.62968   0.68122   0.00000  Uiso   1.00
H985   H     0.09791   0.63087   0.59967   0.00000  Uiso   1.00
H986   H     0.09702   0.36004   0.87275   0.00000  Uiso   1.00
H987   H     0.15333   0.63722   0.85852   0.00000  Uiso   1.00
H988   H     0.23797   0.36236   0.63257   0.00000  Uiso   1.00
N989   N     0.16667   0.61736   0.75000   0.00000  Uiso   1.00
N990   N     0.16667   0.38264   0.75000   0.00000  Uiso   1.00
O991   O     0.10655   0.53958   0.74999   0.00000  Uiso   1.00
O992   O     0.13410   0.37342   0.63919   0.00000  Uiso   1.00
O993   O     0.26653   0.64183   0.79724   0.00000  Uiso   1.00
O994   O     0.23362   0.58112   0.82419   0.00000  Uiso   1.00
O995   O     0.20028   0.37805   0.85477   0.00000  Uiso   1.00
O996   O     0.25080   0.40448   0.81521   0.00000  Uiso   1.00
O997   O     0.10088   0.58549   0.68046   0.00000  Uiso   1.00
O998   O     0.06273   0.64592   0.69932   0.00000  Uiso   1.00
O999   O     0.16619   0.60485   0.62503   0.00000  Uiso   1.00
O1000  O     0.10205   0.59808   0.58930   0.00000  Uiso   1.00
O1001  O     0.09436   0.43835   0.84653   0.00000  Uiso   1.00
O1002  O     0.22679   0.46042   0.75000   0.00000  Uiso   1.00
O1003  O     0.11724   0.37955   0.89208   0.00000  Uiso   1.00
O1004  O     0.21067   0.60781   0.90587   0.00000  Uiso   1.00
O1005  O     0.14749   0.60433   0.86764   0.00000  Uiso   1.00
O1006  O     0.24133   0.44178   0.65526   0.00000  Uiso   1.00
O1007  O     0.21847   0.38158   0.61194   0.00000  Uiso   1.00
O1008  O     0.22679   0.53958   0.75000   0.00000  Uiso   1.00
O1009  O     0.10655   0.46042   0.74999   0.00000  Uiso   1.00
O1010  O     0.16666   0.53959   0.68573   0.00000  Uiso   1.00
O1011  O     0.16667   0.46041   0.81427   0.00000  Uiso   1.00
O1012  O     0.16667   0.53959   0.81427   0.00000  Uiso   1.00
O1013  O     0.16666   0.46041   0.68573   0.00000  Uiso   1.00
O1014  O     0.09043   0.40610   0.68360   0.00000  Uiso   1.00
C1015  C     0.42086   0.49990   0.75076   0.00000  Uiso   1.00
C1016  C     0.64546   0.54140   0.74746   0.00000  Uiso   1.00
C1017  C     0.64526   0.45745   0.74715   0.00000  Uiso   1.00
C1018  C     0.35456   0.54134   0.75177   0.00000  Uiso   1.00
C1019  C     0.48195   0.52775   0.54284   0.00000  Uiso   1.00
C1020  C     0.48227   0.45580   0.95005   0.00000  Uiso   1.00
C1021  C     0.51737   0.52966   0.95588   0.00000  Uiso   1.00
C1022  C     0.52234   0.45754   0.55092   0.00000  Uiso   1.00
C1023  C     0.48654   0.53457   0.58834   0.00000  Uiso   1.00
C1024  C     0.47754   0.46002   0.90377   0.00000  Uiso   1.00
C1025  C     0.51013   0.53644   0.91038   0.00000  Uiso   1.00
C1026  C     0.57910   0.49993   0.74878   0.00000  Uiso   1.00
C1027  C     0.52501   0.46170   0.59715   0.00000  Uiso   1.00
C1028  C     0.50543   0.49968   0.61658   0.00000  Uiso   1.00
C1029  C     0.49408   0.49946   0.88328   0.00000  Uiso   1.00
C1030  C     0.50096   0.49050   0.52402   0.00000  Uiso   1.00
C1031  C     0.50231   0.49035   0.97586   0.00000  Uiso   1.00
C1032  C     0.62368   0.49957   0.74734   0.00000  Uiso   1.00
C1033  C     0.37621   0.49949   0.75120   0.00000  Uiso   1.00
C1034  C     0.45383   0.38176   0.68056   0.00000  Uiso   1.00
C1035  C     0.56723   0.62150   0.79917   0.00000  Uiso   1.00
C1036  C     0.54704   0.38155   0.81878   0.00000  Uiso   1.00
C1037  C     0.50176   0.50013   0.66505   0.00000  Uiso   1.00
C1038  C     0.43332   0.62188   0.70017   0.00000  Uiso   1.00
C1039  C     0.47441   0.58062   0.60342   0.00000  Uiso   1.00
C1040  C     0.45080   0.42579   0.87838   0.00000  Uiso   1.00
C1041  C     0.51370   0.58451   0.89399   0.00000  Uiso   1.00
C1042  C     0.55174   0.42828   0.62380   0.00000  Uiso   1.00
C1043  C     0.49770   0.49998   0.83483   0.00000  Uiso   1.00
C1044  C     0.47475   0.35833   0.71986   0.00000  Uiso   1.00
C1045  C     0.52891   0.64239   0.77666   0.00000  Uiso   1.00
C1046  C     0.52526   0.35810   0.78016   0.00000  Uiso   1.00
C1047  C     0.47114   0.64268   0.72338   0.00000  Uiso   1.00
C1048  C     0.35444   0.45740   0.74938   0.00000  Uiso   1.00
Cu1049 Cu    0.50000   0.54689   0.75000   0.00000  Uiso   1.00
Cu1050 Cu    0.50000   0.45311   0.75000   0.00000  Uiso   1.00
F1051  F     0.46114   0.55956   0.51609   0.00000  Uiso   1.00
F1052  F     0.46468   0.41990   0.97035   0.00000  Uiso   1.00
F1053  F     0.53578   0.56363   0.98162   0.00000  Uiso   1.00
F1054  F     0.54269   0.42308   0.53191   0.00000  Uiso   1.00
F1055  F     0.37390   0.41586   0.75045   0.00000  Uiso   1.00
F1056  F     0.62604   0.58266   0.74211   0.00000  Uiso   1.00
F1057  F     0.62559   0.41606   0.74369   0.00000  Uiso   1.00
F1058  F     0.37411   0.58252   0.75753   0.00000  Uiso   1.00
H1059  H     0.45072   0.39069   0.61452   0.00000  Uiso   1.00
H1060  H     0.59535   0.57175   0.83770   0.00000  Uiso   1.00
H1061  H     0.59605   0.41831   0.84424   0.00000  Uiso   1.00
H1062  H     0.37268   0.62968   0.68122   0.00000  Uiso   1.00
H1063  H     0.43124   0.63087   0.59967   0.00000  Uiso   1.00
H1064  H     0.43035   0.36004   0.87275   0.00000  Uiso   1.00
H1065  H     0.48666   0.63722   0.85852   0.00000  Uiso   1.00
H1066  H     0.57131   0.36236   0.63257   0.00000  Uiso   1.00
N1067  N     0.50000   0.61736   0.75000   0.00000  Uiso   1.00
N1068  N     0.50000   0.38264   0.75000   0.00000  Uiso   1.00
O1069  O     0.43988   0.53958   0.74999   0.00000  Uiso   1.00
O1070  O     0.46744   0.37342   0.63919   0.00000  Uiso   1.00
O1071  O     0.59987   0.64183   0.79724   0.00000  Uiso   1.00
O1072  O     0.56696   0.58112   0.82419   0.00000  Uiso   1.00
O1073  O     0.53361   0.37805   0.85477   0.00000  Uiso   1.00
O1074  O     0.58413   0.40448   0.81521   0.00000  Uiso   1.00
O1075  O     0.43422   0.58549   0.68046   0.00000  Uiso   1.00
O1076  O     0.39606   0.64592   0.69932   0.00000  Uiso   1.00
O1077  O     0.49952   0.60485   0.62503   0.00000  Uiso   1.00
O1078  O     0.43538   0.59808   0.58930   0.00000  Uiso   1.00
O1079  O     0.42770   0.43835   0.84653   0.00000  Uiso   1.00
O1080  O     0.56012   0.46042   0.75000   0.00000  Uiso   1.00
O1081  O     0.45057   0.37955   0.89208   0.00000  Uiso   1.00
O1082  O     0.54400   0.60781   0.90587   0.00000  Uiso   1.00
O1083  O     0.48082   0.60433   0.86764   0.00000  Uiso   1.00
O1084  O     0.57466   0.44178   0.65526   0.00000  Uiso   1.00
O1085  O     0.55180   0.38158   0.61194   0.00000  Uiso   1.00
O1086  O     0.56012   0.53958   0.75000   0.00000  Uiso   1.00
O1087  O     0.43988   0.46042   0.74999   0.00000  Uiso   1.00
O1088  O     0.50000   0.53959   0.68573   0.00000  Uiso   1.00
O1089  O     0.50000   0.46041   0.81427   0.00000  Uiso   1.00
O1090  O     0.50000   0.53959   0.81427   0.00000  Uiso   1.00
O1091  O     0.50000   0.46041   0.68573   0.00000  Uiso   1.00
O1092  O     0.42376   0.40610   0.68360   0.00000  Uiso   1.00
C1093  C     0.75419   0.49990   0.75076   0.00000  Uiso   1.00
C1094  C     0.97879   0.54140   0.74746   0.00000  Uiso   1.00
C1095  C     0.97859   0.45745   0.74715   0.00000  Uiso   1.00
C1096  C     0.68789   0.54134   0.75177   0.00000  Uiso   1.00
C1097  C     0.81528   0.52775   0.54284   0.00000  Uiso   1.00
C1098  C     0.81560   0.45580   0.95005   0.00000  Uiso   1.00
C1099  C     0.85071   0.52966   0.95588   0.00000  Uiso   1.00
C1100  C     0.85567   0.45754   0.55092   0.00000  Uiso   1.00
C1101  C     0.81988   0.53457   0.58834   0.00000  Uiso   1.00
C1102  C     0.81087   0.46002   0.90377   0.00000  Uiso   1.00
C1103  C     0.84346   0.53644   0.91038   0.00000  Uiso   1.00
C1104  C     0.91243   0.49993   0.74878   0.00000  Uiso   1.00
C1105  C     0.85834   0.46170   0.59715   0.00000  Uiso   1.00
C1106  C     0.83876   0.49968   0.61658   0.00000  Uiso   1.00
C1107  C     0.82742   0.49946   0.88328   0.00000  Uiso   1.00
C1108  C     0.83429   0.49050   0.52402   0.00000  Uiso   1.00
C1109  C     0.83564   0.49035   0.97586   0.00000  Uiso   1.00
C1110  C     0.95701   0.49957   0.74734   0.00000  Uiso   1.00
C1111  C     0.70954   0.49949   0.75120   0.00000  Uiso   1.00
C1112  C     0.78716   0.38176   0.68056   0.00000  Uiso   1.00
C1113  C     0.90056   0.62150   0.79917   0.00000  Uiso   1.00
C1114  C     0.88038   0.38155   0.81878   0.00000  Uiso   1.00
C1115  C     0.83509   0.50013   0.66505   0.00000  Uiso   1.00
C1116  C     0.76665   0.62188   0.70017   0.00000  Uiso   1.00
C1117  C     0.80774   0.58062   0.60342   0.00000  Uiso   1.00
C1118  C     0.78413   0.42579   0.87838   0.00000  Uiso   1.00
C1119  C     0.84704   0.58451   0.89399   0.00000  Uiso   1.00
C1120  C     0.88507   0.42828   0.62380   0.00000  Uiso   1.00
C1121  C     0.83103   0.49998   0.83483   0.00000  Uiso   1.00
C1122  C     0.80809   0.35833   0.71986   0.00000  Uiso   1.00
C1123  C     0.86225   0.64239   0.77666   0.00000  Uiso   1.00
C1124  C     0.85860   0.35810   0.78016   0.00000  Uiso   1.00
C1125  C     0.80447   0.64268   0.72338   0.00000  Uiso   1.00
C1126  C     0.68777   0.45740   0.74938   0.00000  Uiso   1.00
Cu1127 Cu    0.83333   0.54689   0.75000   0.00000  Uiso   1.00
Cu1128 Cu    0.83333   0.45311   0.75000   0.00000  Uiso   1.00
F1129  F     0.79447   0.55956   0.51609   0.00000  Uiso   1.00
F1130  F     0.79802   0.41990   0.97035   0.00000  Uiso   1.00
F1131  F     0.86911   0.56363   0.98162   0.00000  Uiso   1.00
F1132  F     0.87603   0.42308   0.53191   0.00000  Uiso   1.00
F1133  F     0.70723   0.41586   0.75045   0.00000  Uiso   1.00
F1134  F     0.95937   0.58266   0.74211   0.00000  Uiso   1.00
F1135  F     0.95893   0.41606   0.74369   0.00000  Uiso   1.00
F1136  F     0.70744   0.58252   0.75753   0.00000  Uiso   1.00
H1137  H     0.78405   0.39069   0.61452   0.00000  Uiso   1.00
H1138  H     0.92868   0.57175   0.83770   0.00000  Uiso   1.00
H1139  H     0.92938   0.41831   0.84424   0.00000  Uiso   1.00
H1140  H     0.70601   0.62968   0.68122   0.00000  Uiso   1.00
H1141  H     0.76458   0.63087   0.59967   0.00000  Uiso   1.00
H1142  H     0.76368   0.36004   0.87275   0.00000  Uiso   1.00
H1143  H     0.82000   0.63722   0.85852   0.00000  Uiso   1.00
H1144  H     0.90464   0.36236   0.63257   0.00000  Uiso   1.00
N1145  N     0.83333   0.61736   0.75000   0.00000  Uiso   1.00
N1146  N     0.83333   0.38264   0.75000   0.00000  Uiso   1.00
O1147  O     0.77321   0.53958   0.74999   0.00000  Uiso   1.00
O1148  O     0.80077   0.37342   0.63919   0.00000  Uiso   1.00
O1149  O     0.93320   0.64183   0.79724   0.00000  Uiso   1.00
O1150  O     0.90029   0.58112   0.82419   0.00000  Uiso   1.00
O1151  O     0.86694   0.37805   0.85477   0.00000  Uiso   1.00
O1152  O     0.91747   0.40448   0.81521   0.00000  Uiso   1.00
O1153  O     0.76755   0.58549   0.68046   0.00000  Uiso   1.00
O1154  O     0.72939   0.64592   0.69932   0.00000  Uiso   1.00
O1155  O     0.83285   0.60485   0.62503   0.00000  Uiso   1.00
O1156  O     0.76872   0.59808   0.58930   0.00000  Uiso   1.00
O1157  O     0.76103   0.43835   0.84653   0.00000  Uiso   1.00
O1158  O     0.89345   0.46042   0.75000   0.00000  Uiso   1.00
O1159  O     0.78390   0.37955   0.89208   0.00000  Uiso   1.00
O1160  O     0.87733   0.60781   0.90587   0.00000  Uiso   1.00
O1161  O     0.81416   0.60433   0.86764   0.00000  Uiso   1.00
O1162  O     0.90799   0.44178   0.65526   0.00000  Uiso   1.00
O1163  O     0.88514   0.38158   0.61194   0.00000  Uiso   1.00
O1164  O     0.89345   0.53958   0.75000   0.00000  Uiso   1.00
O1165  O     0.77321   0.46042   0.74999   0.00000  Uiso   1.00
O1166  O     0.83333   0.53959   0.68573   0.00000  Uiso   1.00
O1167  O     0.83334   0.46041   0.81427   0.00000  Uiso   1.00
O1168  O     0.83334   0.53959   0.81427   0.00000  Uiso   1.00
O1169  O     0.83333   0.46041   0.68573   0.00000  Uiso   1.00
O1170  O     0.75709   0.40610   0.68360   0.00000  Uiso   1.00
C1171  C     0.08752   0.83323   0.75076   0.00000  Uiso   1.00
C1172  C     0.31212   0.87473   0.74746   0.00000  Uiso   1.00
C1173  C     0.31193   0.79079   0.74715   0.00000  Uiso   1.00
C1174  C     0.02122   0.87468   0.75177   0.00000  Uiso   1.00
C1175  C     0.14862   0.86108   0.54284   0.00000  Uiso   1.00
C1176  C     0.14894   0.78913   0.95005   0.00000  Uiso   1.00
C1177  C     0.18404   0.86300   0.95588   0.00000  Uiso   1.00
C1178  C     0.18901   0.79087   0.55092   0.00000  Uiso   1.00
C1179  C     0.15321   0.86790   0.58834   0.00000  Uiso   1.00
C1180  C     0.14421   0.79335   0.90377   0.00000  Uiso   1.00
C1181  C     0.17680   0.86977   0.91038   0.00000  Uiso   1.00
C1182  C     0.24577   0.83326   0.74878   0.00000  Uiso   1.00
C1183  C     0.19167   0.79503   0.59715   0.00000  Uiso   1.00
C1184  C     0.17210   0.83301   0.61658   0.00000  Uiso   1.00
C1185  C     0.16075   0.83279   0.88328   0.00000  Uiso   1.00
C1186  C     0.16762   0.82383   0.52402   0.00000  Uiso   1.00
C1187  C     0.16897   0.82368   0.97586   0.00000  Uiso   1.00
C1188  C     0.29034   0.83290   0.74734   0.00000  Uiso   1.00
C1189  C     0.04287   0.83283   0.75120   0.00000  Uiso   1.00
C1190  C     0.12049   0.71509   0.68056   0.00000  Uiso   1.00
C1191  C     0.23389   0.95484   0.79917   0.00000  Uiso   1.00
C1192  C     0.21371   0.71488   0.81878   0.00000  Uiso   1.00
C1193  C     0.16843   0.83347   0.66505   0.00000  Uiso   1.00
C1194  C     0.09999   0.95521   0.70017   0.00000  Uiso   1.00
C1195  C     0.14107   0.91395   0.60342   0.00000  Uiso   1.00
C1196  C     0.11746   0.75913   0.87838   0.00000  Uiso   1.00
C1197  C     0.18037   0.91784   0.89399   0.00000  Uiso   1.00
C1198  C     0.21840   0.76162   0.62380   0.00000  Uiso   1.00
C1199  C     0.16437   0.83332   0.83483   0.00000  Uiso   1.00
C1200  C     0.14142   0.69166   0.71986   0.00000  Uiso   1.00
C1201  C     0.19558   0.97573   0.77666   0.00000  Uiso   1.00
C1202  C     0.19193   0.69143   0.78016   0.00000  Uiso   1.00
C1203  C     0.13780   0.97601   0.72338   0.00000  Uiso   1.00
C1204  C     0.02111   0.79073   0.74938   0.00000  Uiso   1.00
Cu1205 Cu    0.16667   0.88022   0.75000   0.00000  Uiso   1.00
Cu1206 Cu    0.16667   0.78645   0.75000   0.00000  Uiso   1.00
F1207  F     0.12781   0.89289   0.51609   0.00000  Uiso   1.00
F1208  F     0.13135   0.75323   0.97035   0.00000  Uiso   1.00
F1209  F     0.20245   0.89696   0.98162   0.00000  Uiso   1.00
F1210  F     0.20936   0.75641   0.53191   0.00000  Uiso   1.00
F1211  F     0.04057   0.74919   0.75045   0.00000  Uiso   1.00
F1212  F     0.29270   0.91599   0.74211   0.00000  Uiso   1.00
F1213  F     0.29226   0.74939   0.74369   0.00000  Uiso   1.00
F1214  F     0.04077   0.91585   0.75753   0.00000  Uiso   1.00
H1215  H     0.11739   0.72402   0.61452   0.00000  Uiso   1.00
H1216  H     0.26201   0.90508   0.83770   0.00000  Uiso   1.00
H1217  H     0.26271   0.75164   0.84424   0.00000  Uiso   1.00
H1218  H     0.03934   0.96301   0.68122   0.00000  Uiso   1.00
H1219  H     0.09791   0.96421   0.59967   0.00000  Uiso   1.00
H1220  H     0.09702   0.69337   0.87275   0.00000  Uiso   1.00
H1221  H     0.15333   0.97055   0.85852   0.00000  Uiso   1.00
H1222  H     0.23797   0.69569   0.63257   0.00000  Uiso   1.00
N1223  N     0.16667   0.95069   0.75000   0.00000  Uiso   1.00
N1224  N     0.16667   0.71598   0.75000   0.00000  Uiso   1.00
O1225  O     0.10655   0.87291   0.74999   0.00000  Uiso   1.00
O1226  O     0.13410   0.70675   0.63919   0.00000  Uiso   1.00
O1227  O     0.26653   0.97517   0.79724   0.00000  Uiso   1.00
O1228  O     0.23362   0.91446   0.82419   0.00000  Uiso   1.00
O1229  O     0.20028   0.71138   0.85477   0.00000  Uiso   1.00
O1230  O     0.25080   0.73781   0.81521   0.00000  Uiso   1.00
O1231  O     0.10088   0.91882   0.68046   0.00000  Uiso   1.00
O1232  O     0.06273   0.97925   0.69932   0.00000  Uiso   1.00
O1233  O     0.16619   0.93819   0.62503   0.00000  Uiso   1.00
O1234  O     0.10205   0.93142   0.58930   0.00000  Uiso   1.00
O1235  O     0.09436   0.77169   0.84653   0.00000  Uiso   1.00
O1236  O     0.22679   0.79375   0.75000   0.00000  Uiso   1.00
O1237  O     0.11724   0.71288   0.89208   0.00000  Uiso   1.00
O1238  O     0.21067   0.94114   0.90587   0.00000  Uiso   1.00
O1239  O     0.14749   0.93766   0.86764   0.00000  Uiso   1.00
O1240  O     0.24133   0.77512   0.65526   0.00000  Uiso   1.00
O1241  O     0.21847   0.71492   0.61194   0.00000  Uiso   1.00
O1242  O     0.22679   0.87291   0.75000   0.00000  Uiso   1.00
O1243  O     0.10655   0.79375   0.74999   0.00000  Uiso   1.00
O1244  O     0.16666   0.87293   0.68573   0.00000  Uiso   1.00
O1245  O     0.16667   0.79374   0.81427   0.00000  Uiso   1.00
O1246  O     0.16667   0.87293   0.81427   0.00000  Uiso   1.00
O1247  O     0.16666   0.79374   0.68573   0.00000  Uiso   1.00
O1248  O     0.09043   0.73944   0.68360   0.00000  Uiso   1.00
C1249  C     0.42086   0.83323   0.75076   0.00000  Uiso   1.00
C1250  C     0.64546   0.87473   0.74746   0.00000  Uiso   1.00
C1251  C     0.64526   0.79079   0.74715   0.00000  Uiso   1.00
C1252  C     0.35456   0.87468   0.75177   0.00000  Uiso   1.00
C1253  C     0.48195   0.86108   0.54284   0.00000  Uiso   1.00
C1254  C     0.48227   0.78913   0.95005   0.00000  Uiso   1.00
C1255  C     0.51737   0.86300   0.95588   0.00000  Uiso   1.00
C1256  C     0.52234   0.79087   0.55092   0.00000  Uiso   1.00
C1257  C     0.48654   0.86790   0.58834   0.00000  Uiso   1.00
C1258  C     0.47754   0.79335   0.90377   0.00000  Uiso   1.00
C1259  C     0.51013   0.86977   0.91038   0.00000  Uiso   1.00
C1260  C     0.57910   0.83326   0.74878   0.00000  Uiso   1.00
C1261  C     0.52501   0.79503   0.59715   0.00000  Uiso   1.00
C1262  C     0.50543   0.83301   0.61658   0.00000  Uiso   1.00
C1263  C     0.49408   0.83279   0.88328   0.00000  Uiso   1.00
C1264  C     0.50096   0.82383   0.52402   0.00000  Uiso   1.00
C1265  C     0.50231   0.82368   0.97586   0.00000  Uiso   1.00
C1266  C     0.62368   0.83290   0.74734   0.00000  Uiso   1.00
C1267  C     0.37621   0.83283   0.75120   0.00000  Uiso   1.00
C1268  C     0.45383   0.71509   0.68056   0.00000  Uiso   1.00
C1269  C     0.56723   0.95484   0.79917   0.00000  Uiso   1.00
C1270  C     0.54704   0.71488   0.81878   0.00000  Uiso   1.00
C1271  C     0.50176   0.83347   0.66505   0.00000  Uiso   1.00
C1272  C     0.43332   0.95521   0.70017   0.00000  Uiso   1.00
C1273  C     0.47441   0.91395   0.60342   0.00000  Uiso   1.00
C1274  C     0.45080   0.75913   0.87838   0.00000  Uiso   1.00
C1275  C     0.51370   0.91784   0.89399   0.00000  Uiso   1.00
C1276  C     0.55174   0.76162   0.62380   0.00000  Uiso   1.00
C1277  C     0.49770   0.83332   0.83483   0.00000  Uiso   1.00
C1278  C     0.47475   0.69166   0.71986   0.00000  Uiso   1.00
C1279  C     0.52891   0.97573   0.77666   0.00000  Uiso   1.00
C1280  C     0.52526   0.69143   0.78016   0.00000  Uiso   1.00
C1281  C     0.47114   0.97601   0.72338   0.00000  Uiso   1.00
C1282  C     0.35444   0.79073   0.74938   0.00000  Uiso   1.00
Cu1283 Cu    0.50000   0.88022   0.75000   0.00000  Uiso   1.00
Cu1284 Cu    0.50000   0.78645   0.75000   0.00000  Uiso   1.00
F1285  F     0.46114   0.89289   0.51609   0.00000  Uiso   1.00
F1286  F     0.46468   0.75323   0.97035   0.00000  Uiso   1.00
F1287  F     0.53578   0.89696   0.98162   0.00000  Uiso   1.00
F1288  F     0.54269   0.75641   0.53191   0.00000  Uiso   1.00
F1289  F     0.37390   0.74919   0.75045   0.00000  Uiso   1.00
F1290  F     0.62604   0.91599   0.74211   0.00000  Uiso   1.00
F1291  F     0.62559   0.74939   0.74369   0.00000  Uiso   1.00
F1292  F     0.37411   0.91585   0.75753   0.00000  Uiso   1.00
H1293  H     0.45072   0.72402   0.61452   0.00000  Uiso   1.00
H1294  H     0.59535   0.90508   0.83770   0.00000  Uiso   1.00
H1295  H     0.59605   0.75164   0.84424   0.00000  Uiso   1.00
H1296  H     0.37268   0.96301   0.68122   0.00000  Uiso   1.00
H1297  H     0.43124   0.96421   0.59967   0.00000  Uiso   1.00
H1298  H     0.43035   0.69337   0.87275   0.00000  Uiso   1.00
H1299  H     0.48666   0.97055   0.85852   0.00000  Uiso   1.00
H1300  H     0.57131   0.69569   0.63257   0.00000  Uiso   1.00
N1301  N     0.50000   0.95069   0.75000   0.00000  Uiso   1.00
N1302  N     0.50000   0.71598   0.75000   0.00000  Uiso   1.00
O1303  O     0.43988   0.87291   0.74999   0.00000  Uiso   1.00
O1304  O     0.46744   0.70675   0.63919   0.00000  Uiso   1.00
O1305  O     0.59987   0.97517   0.79724   0.00000  Uiso   1.00
O1306  O     0.56696   0.91446   0.82419   0.00000  Uiso   1.00
O1307  O     0.53361   0.71138   0.85477   0.00000  Uiso   1.00
O1308  O     0.58413   0.73781   0.81521   0.00000  Uiso   1.00
O1309  O     0.43422   0.91882   0.68046   0.00000  Uiso   1.00
O1310  O     0.39606   0.97925   0.69932   0.00000  Uiso   1.00
O1311  O     0.49952   0.93819   0.62503   0.00000  Uiso   1.00
O1312  O     0.43538   0.93142   0.58930   0.00000  Uiso   1.00
O1313  O     0.42770   0.77169   0.84653   0.00000  Uiso   1.00
O1314  O     0.56012   0.79375   0.75000   0.00000  Uiso   1.00
O1315  O     0.45057   0.71288   0.89208   0.00000  Uiso   1.00
O1316  O     0.54400   0.94114   0.90587   0.00000  Uiso   1.00
O1317  O     0.48082   0.93766   0.86764   0.00000  Uiso   1.00
O1318  O     0.57466   0.77512   0.65526   0.00000  Uiso   1.00
O1319  O     0.55180   0.71492   0.61194   0.00000  Uiso   1.00
O1320  O     0.56012   0.87291   0.75000   0.00000  Uiso   1.00
O1321  O     0.43988   0.79375   0.74999   0.00000  Uiso   1.00
O1322  O     0.50000   0.87293   0.68573   0.00000  Uiso   1.00
O1323  O     0.50000   0.79374   0.81427   0.00000  Uiso   1.00
O1324  O     0.50000   0.87293   0.81427   0.00000  Uiso   1.00
O1325  O     0.50000   0.79374   0.68573   0.00000  Uiso   1.00
O1326  O     0.42376   0.73944   0.68360   0.00000  Uiso   1.00
C1327  C     0.75419   0.83323   0.75076   0.00000  Uiso   1.00
C1328  C     0.97879   0.87473   0.74746   0.00000  Uiso   1.00
C1329  C     0.97859   0.79079   0.74715   0.00000  Uiso   1.00
C1330  C     0.68789   0.87468   0.75177   0.00000  Uiso   1.00
C1331  C     0.81528   0.86108   0.54284   0.00000  Uiso   1.00
C1332  C     0.81560   0.78913   0.95005   0.00000  Uiso   1.00
C1333  C     0.85071   0.86300   0.95588   0.00000  Uiso   1.00
C1334  C     0.85567   0.79087   0.55092   0.00000  Uiso   1.00
C1335  C     0.81988   0.86790   0.58834   0.00000  Uiso   1.00
C1336  C     0.81087   0.79335   0.90377   0.00000  Uiso   1.00
C1337  C     0.84346   0.86977   0.91038   0.00000  Uiso   1.00
C1338  C     0.91243   0.83326   0.74878   0.00000  Uiso   1.00
C1339  C     0.85834   0.79503   0.59715   0.00000  Uiso   1.00
C1340  C     0.83876   0.83301   0.61658   0.00000  Uiso   1.00
C1341  C     0.82742   0.83279   0.88328   0.00000  Uiso   1.00
C1342  C     0.83429   0.82383   0.52402   0.00000  Uiso   1.00
C1343  C     0.83564   0.82368   0.97586   0.00000  Uiso   1.00
C1344  C     0.95701   0.83290   0.74734   0.00000  Uiso   1.00
C1345  C     0.70954   0.83283   0.75120   0.00000  Uiso   1.00
C1346  C     0.78716   0.71509   0.68056   0.00000  Uiso   1.00
C1347  C     0.90056   0.95484   0.79917   0.00000  Uiso   1.00
C1348  C     0.88038   0.71488   0.81878   0.00000  Uiso   1.00
C1349  C     0.83509   0.83347   0.66505   0.00000  Uiso   1.00
C1350  C     0.76665   0.95521   0.70017   0.00000  Uiso   1.00
C1351  C     0.80774   0.91395   0.60342   0.00000  Uiso   1.00
C1352  C     0.78413   0.75913   0.87838   0.00000  Uiso   1.00
C1353  C     0.84704   0.91784   0.89399   0.00000  Uiso   1.00
C1354  C     0.88507   0.76162   0.62380   0.00000  Uiso   1.00
C1355  C     0.83103   0.83332   0.83483   0.00000  Uiso   1.00
C1356  C     0.80809   0.69166   0.71986   0.00000  Uiso   1.00
C1357  C     0.86225   0.97573   0.77666   0.00000  Uiso   1.00
C1358  C     0.85860   0.69143   0.78016   0.00000  Uiso   1.00
C1359  C     0.80447   0.97601   0.72338   0.00000  Uiso   1.00
C1360  C     0.68777   0.79073   0.74938   0.00000  Uiso   1.00
Cu1361 Cu    0.83333   0.88022   0.75000   0.00000  Uiso   1.00
Cu1362 Cu    0.83333   0.78645   0.75000   0.00000  Uiso   1.00
F1363  F     0.79447   0.89289   0.51609   0.00000  Uiso   1.00
F1364  F     0.79802   0.75323   0.97035   0.00000  Uiso   1.00
F1365  F     0.86911   0.89696   0.98162   0.00000  Uiso   1.00
F1366  F     0.87603   0.75641   0.53191   0.00000  Uiso   1.00
F1367  F     0.70723   0.74919   0.75045   0.00000  Uiso   1.00
F1368  F     0.95937   0.91599   0.74211   0.00000  Uiso   1.00
F1369  F     0.95893   0.74939   0.74369   0.00000  Uiso   1.00
F1370  F     0.70744   0.91585   0.75753   0.00000  Uiso   1.00
H1371  H     0.78405   0.72402   0.61452   0.00000  Uiso   1.00
H1372  H     0.92868   0.90508   0.83770   0.00000  Uiso   1.00
H1373  H     0.92938   0.75164   0.84424   0.00000  Uiso   1.00
H1374  H     0.70601   0.96301   0.68122   0.00000  Uiso   1.00
H1375  H     0.76458   0.96421   0.59967   0.00000  Uiso   1.00
H1376  H     0.76368   0.69337   0.87275   0.00000  Uiso   1.00
H1377  H     0.82000   0.97055   0.85852   0.00000  Uiso   1.00
H1378  H     0.90464   0.69569   0.63257   0.00000  Uiso   1.00
N1379  N     0.83333   0.95069   0.75000   0.00000  Uiso   1.00
N1380  N     0.83333   0.71598   0.75000   0.00000  Uiso   1.00
O1381  O     0.77321   0.87291   0.74999   0.00000  Uiso   1.00
O1382  O     0.80077   0.70675   0.63919   0.00000  Uiso   1.00
O1383  O     0.93320   0.97517   0.79724   0.00000  Uiso   1.00
O1384  O     0.90029   0.91446   0.82419   0.00000  Uiso   1.00
O1385  O     0.86694   0.71138   0.85477   0.00000  Uiso   1.00
O1386  O     0.91747   0.73781   0.81521   0.00000  Uiso   1.00
O1387  O     0.76755   0.91882   0.68046   0.00000  Uiso   1.00
O1388  O     0.72939   0.97925   0.69932   0.00000  Uiso   1.00
O1389  O     0.83285   0.93819   0.62503   0.00000  Uiso   1.00
O1390  O     0.76872   0.93142   0.58930   0.00000  Uiso   1.00
O1391  O     0.76103   0.77169   0.84653   0.00000  Uiso   1.00
O1392  O     0.89345   0.79375   0.75000   0.00000  Uiso   1.00
O1393  O     0.78390   0.71288   0.89208   0.00000  Uiso   1.00
O1394  O     0.87733   0.94114   0.90587   0.00000  Uiso   1.00
O1395  O     0.81416   0.93766   0.86764   0.00000  Uiso   1.00
O1396  O     0.90799   0.77512   0.65526   0.00000  Uiso   1.00
O1397  O     0.88514   0.71492   0.61194   0.00000  Uiso   1.00
O1398  O     0.89345   0.87291   0.75000   0.00000  Uiso   1.00
O1399  O     0.77321   0.79375   0.74999   0.00000  Uiso   1.00
O1400  O     0.83333   0.87293   0.68573   0.00000  Uiso   1.00
O1401  O     0.83334   0.79374   0.81427   0.00000  Uiso   1.00
O1402  O     0.83334   0.87293   0.81427   0.00000  Uiso   1.00
O1403  O     0.83333   0.79374   0.68573   0.00000  Uiso   1.00
O1404  O     0.75709   0.73944   0.68360   0.00000  Uiso   1.00
loop_
_geom_bond_atom_site_label_1
_geom_bond_atom_site_label_2
_geom_bond_distance
_geom_bond_site_symmetry_2
_ccdc_geom_bond_type
C1     C19     1.460   .     S
C1     O73     1.301   .     A
C1     O55     1.305   .     A
C2     C18     1.402   .     A
C2     F42     1.353   .     S
C2     C82     1.380   .     S
C3     F43     1.357   .     S
C3     C18     1.407   .     A
C3     C112    1.384   .     S
C4     C19     1.402   .     A
C4     F44     1.354   .     S
C4     C158    1.380   1_455 S
C5     F37     1.362   .     S
C5     C16     1.395   .     A
C5     C9      1.392   .     A
C6     F38     1.360   .     S
C6     C17     1.396   .     A
C6     C10     1.406   .     A
C7     C11     1.394   .     A
C7     C17     1.397   .     A
C7     F39     1.362   .     S
C8     C13     1.406   .     A
C8     C16     1.395   .     A
C8     F40     1.360   .     S
C9     C25     1.476   .     S
C9     C14     1.423   .     A
C10    C15     1.427   .     A
C10    C26     1.488   .     S
C11    C15     1.422   .     A
C11    C27     1.482   .     S
C12    O72     1.306   .     A
C12    O66     1.301   .     A
C12    C18     1.462   .     S
C13    C28     1.486   .     S
C13    C14     1.429   .     A
C14    C23     1.490   .     S
C15    C29     1.489   .     S
C16    C719    1.469   1_554 S
C17    C718    1.469   .     S
C19    C34     1.407   .     A
C20    O56     1.396   .     S
C20    C30     1.480   .     S
C20    O78     1.220   .     D
C21    C31     1.494   .     S
C21    O57     1.224   .     D
C21    O58     1.390   .     S
C22    C32     1.480   .     S
C22    O60     1.394   .     S
C22    O59     1.222   .     D
C23    O77     1.310   .     A
C23    O74     1.309   .     A
C24    O61     1.215   .     D
C24    O62     1.400   .     S
C24    C33     1.491   .     S
C25    O63     1.223   .     D
C25    O64     1.399   .     S
C26    O67     1.398   .     S
C26    O65     1.223   .     D
C27    O68     1.223   .     D
C27    O69     1.398   .     S
C28    O71     1.399   .     S
C28    O70     1.222   .     D
C29    O76     1.307   .     A
C29    O75     1.312   .     A
C30    N54     1.369   .     A
C30    C501    1.425   1_545 S
C31    N53     1.390   .     A
C31    C266    1.427   .     S
C32    N54     1.369   .     A
C32    C499    1.427   1_545 S
C33    N53     1.389   .     A
C33    C264    1.425   .     S
C34    F41     1.358   .     S
C34    C159    1.384   1_455 S
Cu35   O74     1.967   .     S
Cu35   N53     2.036   .     S
Cu35   Cu36    2.710   .     S
Cu35   O76     1.965   .     S
Cu35   O55     1.976   .     S
Cu35   O72     1.976   .     S
Cu36   O66     1.976   .     S
Cu36   O75     1.967   .     S
Cu36   O77     1.965   .     S
Cu36   N54     2.036   .     S
Cu36   O73     1.976   .     S
H45    O56     1.014   .     S
H46    O58     1.014   .     S
H47    O60     1.014   .     S
H48    O62     1.014   .     S
H49    O64     1.013   .     S
H50    O67     1.014   .     S
H51    O69     1.012   .     S
H52    O71     1.014   .     S
C79    C97     1.460   .     S
C79    O151    1.301   .     A
C79    O133    1.305   .     A
C80    C96     1.402   .     A
C80    F120    1.353   .     S
C80    C160    1.380   .     S
C81    F121    1.357   .     S
C81    C96     1.407   .     A
C81    C190    1.384   .     S
C82    C97     1.402   .     A
C82    F122    1.354   .     S
C83    F115    1.362   .     S
C83    C94     1.395   .     A
C83    C87     1.392   .     A
C84    F116    1.360   .     S
C84    C95     1.396   .     A
C84    C88     1.406   .     A
C85    C89     1.394   .     A
C85    C95     1.397   .     A
C85    F117    1.362   .     S
C86    C91     1.406   .     A
C86    C94     1.395   .     A
C86    F118    1.360   .     S
C87    C103    1.476   .     S
C87    C92     1.423   .     A
C88    C93     1.427   .     A
C88    C104    1.488   .     S
C89    C93     1.422   .     A
C89    C105    1.482   .     S
C90    O150    1.306   .     A
C90    O144    1.301   .     A
C90    C96     1.462   .     S
C91    C106    1.486   .     S
C91    C92     1.429   .     A
C92    C101    1.490   .     S
C93    C107    1.489   .     S
C94    C797    1.469   1_554 S
C95    C796    1.469   .     S
C97    C112    1.407   .     A
C98    O134    1.396   .     S
C98    C108    1.480   .     S
C98    O156    1.220   .     D
C99    C109    1.494   .     S
C99    O135    1.224   .     D
C99    O136    1.390   .     S
C100   C110    1.480   .     S
C100   O138    1.394   .     S
C100   O137    1.222   .     D
C101   O155    1.310   .     A
C101   O152    1.309   .     A
C102   O139    1.215   .     D
C102   O140    1.400   .     S
C102   C111    1.491   .     S
C103   O141    1.223   .     D
C103   O142    1.399   .     S
C104   O145    1.398   .     S
C104   O143    1.223   .     D
C105   O146    1.223   .     D
C105   O147    1.398   .     S
C106   O149    1.399   .     S
C106   O148    1.222   .     D
C107   O154    1.307   .     A
C107   O153    1.312   .     A
C108   N132    1.369   .     A
C108   C579    1.425   1_545 S
C109   N131    1.390   .     A
C109   C344    1.427   .     S
C110   N132    1.369   .     A
C110   C577    1.427   1_545 S
C111   N131    1.389   .     A
C111   C342    1.425   .     S
C112   F119    1.358   .     S
Cu113  O152    1.967   .     S
Cu113  N131    2.036   .     S
Cu113  Cu114   2.710   .     S
Cu113  O154    1.965   .     S
Cu113  O133    1.976   .     S
Cu113  O150    1.976   .     S
Cu114  O144    1.976   .     S
Cu114  O153    1.967   .     S
Cu114  O155    1.965   .     S
Cu114  N132    2.036   .     S
Cu114  O151    1.976   .     S
H123   O134    1.014   .     S
H124   O136    1.014   .     S
H125   O138    1.014   .     S
H126   O140    1.014   .     S
H127   O142    1.013   .     S
H128   O145    1.014   .     S
H129   O147    1.012   .     S
H130   O149    1.014   .     S
C157   C175    1.460   .     S
C157   O229    1.301   .     A
C157   O211    1.305   .     A
C158   C174    1.402   .     A
C158   F198    1.353   .     S
C158   C4      1.380   1_655 S
C159   F199    1.357   .     S
C159   C174    1.407   .     A
C159   C34     1.384   1_655 S
C160   C175    1.402   .     A
C160   F200    1.354   .     S
C161   F193    1.362   .     S
C161   C172    1.395   .     A
C161   C165    1.392   .     A
C162   F194    1.360   .     S
C162   C173    1.396   .     A
C162   C166    1.406   .     A
C163   C167    1.394   .     A
C163   C173    1.397   .     A
C163   F195    1.362   .     S
C164   C169    1.406   .     A
C164   C172    1.395   .     A
C164   F196    1.360   .     S
C165   C181    1.476   .     S
C165   C170    1.423   .     A
C166   C171    1.427   .     A
C166   C182    1.488   .     S
C167   C171    1.422   .     A
C167   C183    1.482   .     S
C168   O228    1.306   .     A
C168   O222    1.301   .     A
C168   C174    1.462   .     S
C169   C184    1.486   .     S
C169   C170    1.429   .     A
C170   C179    1.490   .     S
C171   C185    1.489   .     S
C172   C875    1.469   1_554 S
C173   C874    1.469   .     S
C175   C190    1.407   .     A
C176   O212    1.396   .     S
C176   C186    1.480   .     S
C176   O234    1.220   .     D
C177   C187    1.494   .     S
C177   O213    1.224   .     D
C177   O214    1.390   .     S
C178   C188    1.480   .     S
C178   O216    1.394   .     S
C178   O215    1.222   .     D
C179   O233    1.310   .     A
C179   O230    1.309   .     A
C180   O217    1.215   .     D
C180   O218    1.400   .     S
C180   C189    1.491   .     S
C181   O219    1.223   .     D
C181   O220    1.399   .     S
C182   O223    1.398   .     S
C182   O221    1.223   .     D
C183   O224    1.223   .     D
C183   O225    1.398   .     S
C184   O227    1.399   .     S
C184   O226    1.222   .     D
C185   O232    1.307   .     A
C185   O231    1.312   .     A
C186   N210    1.369   .     A
C186   C657    1.425   1_545 S
C187   N209    1.390   .     A
C187   C422    1.427   .     S
C188   N210    1.369   .     A
C188   C655    1.427   1_545 S
C189   N209    1.389   .     A
C189   C420    1.425   .     S
C190   F197    1.358   .     S
Cu191  O230    1.967   .     S
Cu191  N209    2.036   .     S
Cu191  Cu192   2.710   .     S
Cu191  O232    1.965   .     S
Cu191  O211    1.976   .     S
Cu191  O228    1.976   .     S
Cu192  O222    1.976   .     S
Cu192  O231    1.967   .     S
Cu192  O233    1.965   .     S
Cu192  N210    2.036   .     S
Cu192  O229    1.976   .     S
H201   O212    1.014   .     S
H202   O214    1.014   .     S
H203   O216    1.014   .     S
H204   O218    1.014   .     S
H205   O220    1.013   .     S
H206   O223    1.014   .     S
H207   O225    1.012   .     S
H208   O227    1.014   .     S
C235   C253    1.460   .     S
C235   O307    1.301   .     A
C235   O289    1.305   .     A
C236   C252    1.402   .     A
C236   F276    1.353   .     S
C236   C316    1.380   .     S
C237   F277    1.357   .     S
C237   C252    1.407   .     A
C237   C346    1.384   .     S
C238   C253    1.402   .     A
C238   F278    1.354   .     S
C238   C392    1.380   1_455 S
C239   F271    1.362   .     S
C239   C250    1.395   .     A
C239   C243    1.392   .     A
C240   F272    1.360   .     S
C240   C251    1.396   .     A
C240   C244    1.406   .     A
C241   C245    1.394   .     A
C241   C251    1.397   .     A
C241   F273    1.362   .     S
C242   C247    1.406   .     A
C242   C250    1.395   .     A
C242   F274    1.360   .     S
C243   C259    1.476   .     S
C243   C248    1.423   .     A
C244   C249    1.427   .     A
C244   C260    1.488   .     S
C245   C249    1.422   .     A
C245   C261    1.482   .     S
C246   O306    1.306   .     A
C246   O300    1.301   .     A
C246   C252    1.462   .     S
C247   C262    1.486   .     S
C247   C248    1.429   .     A
C248   C257    1.490   .     S
C249   C263    1.489   .     S
C250   C953    1.469   1_554 S
C251   C952    1.469   .     S
C253   C268    1.407   .     A
C254   O290    1.396   .     S
C254   C264    1.480   .     S
C254   O312    1.220   .     D
C255   C265    1.494   .     S
C255   O291    1.224   .     D
C255   O292    1.390   .     S
C256   C266    1.480   .     S
C256   O294    1.394   .     S
C256   O293    1.222   .     D
C257   O311    1.310   .     A
C257   O308    1.309   .     A
C258   O295    1.215   .     D
C258   O296    1.400   .     S
C258   C267    1.491   .     S
C259   O297    1.223   .     D
C259   O298    1.399   .     S
C260   O301    1.398   .     S
C260   O299    1.223   .     D
C261   O302    1.223   .     D
C261   O303    1.398   .     S
C262   O305    1.399   .     S
C262   O304    1.222   .     D
C263   O310    1.307   .     A
C263   O309    1.312   .     A
C264   N288    1.369   .     A
C265   N287    1.390   .     A
C265   C500    1.427   .     S
C266   N288    1.369   .     A
C267   N287    1.389   .     A
C267   C498    1.425   .     S
C268   F275    1.358   .     S
C268   C393    1.384   1_455 S
Cu269  O308    1.967   .     S
Cu269  N287    2.036   .     S
Cu269  Cu270   2.710   .     S
Cu269  O310    1.965   .     S
Cu269  O289    1.976   .     S
Cu269  O306    1.976   .     S
Cu270  O300    1.976   .     S
Cu270  O309    1.967   .     S
Cu270  O311    1.965   .     S
Cu270  N288    2.036   .     S
Cu270  O307    1.976   .     S
H279   O290    1.014   .     S
H280   O292    1.014   .     S
H281   O294    1.014   .     S
H282   O296    1.014   .     S
H283   O298    1.013   .     S
H284   O301    1.014   .     S
H285   O303    1.012   .     S
H286   O305    1.014   .     S
C313   C331    1.460   .     S
C313   O385    1.301   .     A
C313   O367    1.305   .     A
C314   C330    1.402   .     A
C314   F354    1.353   .     S
C314   C394    1.380   .     S
C315   F355    1.357   .     S
C315   C330    1.407   .     A
C315   C424    1.384   .     S
C316   C331    1.402   .     A
C316   F356    1.354   .     S
C317   F349    1.362   .     S
C317   C328    1.395   .     A
C317   C321    1.392   .     A
C318   F350    1.360   .     S
C318   C329    1.396   .     A
C318   C322    1.406   .     A
C319   C323    1.394   .     A
C319   C329    1.397   .     A
C319   F351    1.362   .     S
C320   C325    1.406   .     A
C320   C328    1.395   .     A
C320   F352    1.360   .     S
C321   C337    1.476   .     S
C321   C326    1.423   .     A
C322   C327    1.427   .     A
C322   C338    1.488   .     S
C323   C327    1.422   .     A
C323   C339    1.482   .     S
C324   O384    1.306   .     A
C324   O378    1.301   .     A
C324   C330    1.462   .     S
C325   C340    1.486   .     S
C325   C326    1.429   .     A
C326   C335    1.490   .     S
C327   C341    1.489   .     S
C328   C1031   1.469   1_554 S
C329   C1030   1.469   .     S
C331   C346    1.407   .     A
C332   O368    1.396   .     S
C332   C342    1.480   .     S
C332   O390    1.220   .     D
C333   C343    1.494   .     S
C333   O369    1.224   .     D
C333   O370    1.390   .     S
C334   C344    1.480   .     S
C334   O372    1.394   .     S
C334   O371    1.222   .     D
C335   O389    1.310   .     A
C335   O386    1.309   .     A
C336   O373    1.215   .     D
C336   O374    1.400   .     S
C336   C345    1.491   .     S
C337   O375    1.223   .     D
C337   O376    1.399   .     S
C338   O379    1.398   .     S
C338   O377    1.223   .     D
C339   O380    1.223   .     D
C339   O381    1.398   .     S
C340   O383    1.399   .     S
C340   O382    1.222   .     D
C341   O388    1.307   .     A
C341   O387    1.312   .     A
C342   N366    1.369   .     A
C343   N365    1.390   .     A
C343   C578    1.427   .     S
C344   N366    1.369   .     A
C345   N365    1.389   .     A
C345   C576    1.425   .     S
C346   F353    1.358   .     S
Cu347  O386    1.967   .     S
Cu347  N365    2.036   .     S
Cu347  Cu348   2.710   .     S
Cu347  O388    1.965   .     S
Cu347  O367    1.976   .     S
Cu347  O384    1.976   .     S
Cu348  O378    1.976   .     S
Cu348  O387    1.967   .     S
Cu348  O389    1.965   .     S
Cu348  N366    2.036   .     S
Cu348  O385    1.976   .     S
H357   O368    1.014   .     S
H358   O370    1.014   .     S
H359   O372    1.014   .     S
H360   O374    1.014   .     S
H361   O376    1.013   .     S
H362   O379    1.014   .     S
H363   O381    1.012   .     S
H364   O383    1.014   .     S
C391   C409    1.460   .     S
C391   O463    1.301   .     A
C391   O445    1.305   .     A
C392   C408    1.402   .     A
C392   F432    1.353   .     S
C392   C238    1.380   1_655 S
C393   F433    1.357   .     S
C393   C408    1.407   .     A
C393   C268    1.384   1_655 S
C394   C409    1.402   .     A
C394   F434    1.354   .     S
C395   F427    1.362   .     S
C395   C406    1.395   .     A
C395   C399    1.392   .     A
C396   F428    1.360   .     S
C396   C407    1.396   .     A
C396   C400    1.406   .     A
C397   C401    1.394   .     A
C397   C407    1.397   .     A
C397   F429    1.362   .     S
C398   C403    1.406   .     A
C398   C406    1.395   .     A
C398   F430    1.360   .     S
C399   C415    1.476   .     S
C399   C404    1.423   .     A
C400   C405    1.427   .     A
C400   C416    1.488   .     S
C401   C405    1.422   .     A
C401   C417    1.482   .     S
C402   O462    1.306   .     A
C402   O456    1.301   .     A
C402   C408    1.462   .     S
C403   C418    1.486   .     S
C403   C404    1.429   .     A
C404   C413    1.490   .     S
C405   C419    1.489   .     S
C406   C1109   1.469   1_554 S
C407   C1108   1.469   .     S
C409   C424    1.407   .     A
C410   O446    1.396   .     S
C410   C420    1.480   .     S
C410   O468    1.220   .     D
C411   C421    1.494   .     S
C411   O447    1.224   .     D
C411   O448    1.390   .     S
C412   C422    1.480   .     S
C412   O450    1.394   .     S
C412   O449    1.222   .     D
C413   O467    1.310   .     A
C413   O464    1.309   .     A
C414   O451    1.215   .     D
C414   O452    1.400   .     S
C414   C423    1.491   .     S
C415   O453    1.223   .     D
C415   O454    1.399   .     S
C416   O457    1.398   .     S
C416   O455    1.223   .     D
C417   O458    1.223   .     D
C417   O459    1.398   .     S
C418   O461    1.399   .     S
C418   O460    1.222   .     D
C419   O466    1.307   .     A
C419   O465    1.312   .     A
C420   N444    1.369   .     A
C421   N443    1.390   .     A
C421   C656    1.427   .     S
C422   N444    1.369   .     A
C423   N443    1.389   .     A
C423   C654    1.425   .     S
C424   F431    1.358   .     S
Cu425  O464    1.967   .     S
Cu425  N443    2.036   .     S
Cu425  Cu426   2.710   .     S
Cu425  O466    1.965   .     S
Cu425  O445    1.976   .     S
Cu425  O462    1.976   .     S
Cu426  O456    1.976   .     S
Cu426  O465    1.967   .     S
Cu426  O467    1.965   .     S
Cu426  N444    2.036   .     S
Cu426  O463    1.976   .     S
H435   O446    1.014   .     S
H436   O448    1.014   .     S
H437   O450    1.014   .     S
H438   O452    1.014   .     S
H439   O454    1.013   .     S
H440   O457    1.014   .     S
H441   O459    1.012   .     S
H442   O461    1.014   .     S
C469   C487    1.460   .     S
C469   O541    1.301   .     A
C469   O523    1.305   .     A
C470   C486    1.402   .     A
C470   F510    1.353   .     S
C470   C550    1.380   .     S
C471   F511    1.357   .     S
C471   C486    1.407   .     A
C471   C580    1.384   .     S
C472   C487    1.402   .     A
C472   F512    1.354   .     S
C472   C626    1.380   1_455 S
C473   F505    1.362   .     S
C473   C484    1.395   .     A
C473   C477    1.392   .     A
C474   F506    1.360   .     S
C474   C485    1.396   .     A
C474   C478    1.406   .     A
C475   C479    1.394   .     A
C475   C485    1.397   .     A
C475   F507    1.362   .     S
C476   C481    1.406   .     A
C476   C484    1.395   .     A
C476   F508    1.360   .     S
C477   C493    1.476   .     S
C477   C482    1.423   .     A
C478   C483    1.427   .     A
C478   C494    1.488   .     S
C479   C483    1.422   .     A
C479   C495    1.482   .     S
C480   O540    1.306   .     A
C480   O534    1.301   .     A
C480   C486    1.462   .     S
C481   C496    1.486   .     S
C481   C482    1.429   .     A
C482   C491    1.490   .     S
C483   C497    1.489   .     S
C484   C1187   1.469   1_554 S
C485   C1186   1.469   .     S
C487   C502    1.407   .     A
C488   O524    1.396   .     S
C488   C498    1.480   .     S
C488   O546    1.220   .     D
C489   C499    1.494   .     S
C489   O525    1.224   .     D
C489   O526    1.390   .     S
C490   C500    1.480   .     S
C490   O528    1.394   .     S
C490   O527    1.222   .     D
C491   O545    1.310   .     A
C491   O542    1.309   .     A
C492   O529    1.215   .     D
C492   O530    1.400   .     S
C492   C501    1.491   .     S
C493   O531    1.223   .     D
C493   O532    1.399   .     S
C494   O535    1.398   .     S
C494   O533    1.223   .     D
C495   O536    1.223   .     D
C495   O537    1.398   .     S
C496   O539    1.399   .     S
C496   O538    1.222   .     D
C497   O544    1.307   .     A
C497   O543    1.312   .     A
C498   N522    1.369   .     A
C499   N521    1.390   .     A
C499   C32     1.427   1_565 S
C500   N522    1.369   .     A
C501   N521    1.389   .     A
C501   C30     1.425   1_565 S
C502   F509    1.358   .     S
C502   C627    1.384   1_455 S
Cu503  O542    1.967   .     S
Cu503  N521    2.036   .     S
Cu503  Cu504   2.710   .     S
Cu503  O544    1.965   .     S
Cu503  O523    1.976   .     S
Cu503  O540    1.976   .     S
Cu504  O534    1.976   .     S
Cu504  O543    1.967   .     S
Cu504  O545    1.965   .     S
Cu504  N522    2.036   .     S
Cu504  O541    1.976   .     S
H513   O524    1.014   .     S
H514   O526    1.014   .     S
H515   O528    1.014   .     S
H516   O530    1.014   .     S
H517   O532    1.013   .     S
H518   O535    1.014   .     S
H519   O537    1.012   .     S
H520   O539    1.014   .     S
C547   C565    1.460   .     S
C547   O619    1.301   .     A
C547   O601    1.305   .     A
C548   C564    1.402   .     A
C548   F588    1.353   .     S
C548   C628    1.380   .     S
C549   F589    1.357   .     S
C549   C564    1.407   .     A
C549   C658    1.384   .     S
C550   C565    1.402   .     A
C550   F590    1.354   .     S
C551   F583    1.362   .     S
C551   C562    1.395   .     A
C551   C555    1.392   .     A
C552   F584    1.360   .     S
C552   C563    1.396   .     A
C552   C556    1.406   .     A
C553   C557    1.394   .     A
C553   C563    1.397   .     A
C553   F585    1.362   .     S
C554   C559    1.406   .     A
C554   C562    1.395   .     A
C554   F586    1.360   .     S
C555   C571    1.476   .     S
C555   C560    1.423   .     A
C556   C561    1.427   .     A
C556   C572    1.488   .     S
C557   C561    1.422   .     A
C557   C573    1.482   .     S
C558   O618    1.306   .     A
C558   O612    1.301   .     A
C558   C564    1.462   .     S
C559   C574    1.486   .     S
C559   C560    1.429   .     A
C560   C569    1.490   .     S
C561   C575    1.489   .     S
C562   C1265   1.469   1_554 S
C563   C1264   1.469   .     S
C565   C580    1.407   .     A
C566   O602    1.396   .     S
C566   C576    1.480   .     S
C566   O624    1.220   .     D
C567   C577    1.494   .     S
C567   O603    1.224   .     D
C567   O604    1.390   .     S
C568   C578    1.480   .     S
C568   O606    1.394   .     S
C568   O605    1.222   .     D
C569   O623    1.310   .     A
C569   O620    1.309   .     A
C570   O607    1.215   .     D
C570   O608    1.400   .     S
C570   C579    1.491   .     S
C571   O609    1.223   .     D
C571   O610    1.399   .     S
C572   O613    1.398   .     S
C572   O611    1.223   .     D
C573   O614    1.223   .     D
C573   O615    1.398   .     S
C574   O617    1.399   .     S
C574   O616    1.222   .     D
C575   O622    1.307   .     A
C575   O621    1.312   .     A
C576   N600    1.369   .     A
C577   N599    1.390   .     A
C577   C110    1.427   1_565 S
C578   N600    1.369   .     A
C579   N599    1.389   .     A
C579   C108    1.425   1_565 S
C580   F587    1.358   .     S
Cu581  O620    1.967   .     S
Cu581  N599    2.036   .     S
Cu581  Cu582   2.710   .     S
Cu581  O622    1.965   .     S
Cu581  O601    1.976   .     S
Cu581  O618    1.976   .     S
Cu582  O612    1.976   .     S
Cu582  O621    1.967   .     S
Cu582  O623    1.965   .     S
Cu582  N600    2.036   .     S
Cu582  O619    1.976   .     S
H591   O602    1.014   .     S
H592   O604    1.014   .     S
H593   O606    1.014   .     S
H594   O608    1.014   .     S
H595   O610    1.013   .     S
H596   O613    1.014   .     S
H597   O615    1.012   .     S
H598   O617    1.014   .     S
C625   C643    1.460   .     S
C625   O697    1.301   .     A
C625   O679    1.305   .     A
C626   C642    1.402   .     A
C626   F666    1.353   .     S
C626   C472    1.380   1_655 S
C627   F667    1.357   .     S
C627   C642    1.407   .     A
C627   C502    1.384   1_655 S
C628   C643    1.402   .     A
C628   F668    1.354   .     S
C629   F661    1.362   .     S
C629   C640    1.395   .     A
C629   C633    1.392   .     A
C630   F662    1.360   .     S
C630   C641    1.396   .     A
C630   C634    1.406   .     A
C631   C635    1.394   .     A
C631   C641    1.397   .     A
C631   F663    1.362   .     S
C632   C637    1.406   .     A
C632   C640    1.395   .     A
C632   F664    1.360   .     S
C633   C649    1.476   .     S
C633   C638    1.423   .     A
C634   C639    1.427   .     A
C634   C650    1.488   .     S
C635   C639    1.422   .     A
C635   C651    1.482   .     S
C636   O696    1.306   .     A
C636   O690    1.301   .     A
C636   C642    1.462   .     S
C637   C652    1.486   .     S
C637   C638    1.429   .     A
C638   C647    1.490   .     S
C639   C653    1.489   .     S
C640   C1343   1.469   1_554 S
C641   C1342   1.469   .     S
C643   C658    1.407   .     A
C644   O680    1.396   .     S
C644   C654    1.480   .     S
C644   O702    1.220   .     D
C645   C655    1.494   .     S
C645   O681    1.224   .     D
C645   O682    1.390   .     S
C646   C656    1.480   .     S
C646   O684    1.394   .     S
C646   O683    1.222   .     D
C647   O701    1.310   .     A
C647   O698    1.309   .     A
C648   O685    1.215   .     D
C648   O686    1.400   .     S
C648   C657    1.491   .     S
C649   O687    1.223   .     D
C649   O688    1.399   .     S
C650   O691    1.398   .     S
C650   O689    1.223   .     D
C651   O692    1.223   .     D
C651   O693    1.398   .     S
C652   O695    1.399   .     S
C652   O694    1.222   .     D
C653   O700    1.307   .     A
C653   O699    1.312   .     A
C654   N678    1.369   .     A
C655   N677    1.390   .     A
C655   C188    1.427   1_565 S
C656   N678    1.369   .     A
C657   N677    1.389   .     A
C657   C186    1.425   1_565 S
C658   F665    1.358   .     S
Cu659  O698    1.967   .     S
Cu659  N677    2.036   .     S
Cu659  Cu660   2.710   .     S
Cu659  O700    1.965   .     S
Cu659  O679    1.976   .     S
Cu659  O696    1.976   .     S
Cu660  O690    1.976   .     S
Cu660  O699    1.967   .     S
Cu660  O701    1.965   .     S
Cu660  N678    2.036   .     S
Cu660  O697    1.976   .     S
H669   O680    1.014   .     S
H670   O682    1.014   .     S
H671   O684    1.014   .     S
H672   O686    1.014   .     S
H673   O688    1.013   .     S
H674   O691    1.014   .     S
H675   O693    1.012   .     S
H676   O695    1.014   .     S
C703   C721    1.460   .     S
C703   O775    1.301   .     A
C703   O757    1.305   .     A
C704   C720    1.402   .     A
C704   F744    1.353   .     S
C704   C784    1.380   .     S
C705   F745    1.357   .     S
C705   C720    1.407   .     A
C705   C814    1.384   .     S
C706   C721    1.402   .     A
C706   F746    1.354   .     S
C706   C860    1.380   1_455 S
C707   F739    1.362   .     S
C707   C718    1.395   .     A
C707   C711    1.392   .     A
C708   F740    1.360   .     S
C708   C719    1.396   .     A
C708   C712    1.406   .     A
C709   C713    1.394   .     A
C709   C719    1.397   .     A
C709   F741    1.362   .     S
C710   C715    1.406   .     A
C710   C718    1.395   .     A
C710   F742    1.360   .     S
C711   C727    1.476   .     S
C711   C716    1.423   .     A
C712   C717    1.427   .     A
C712   C728    1.488   .     S
C713   C717    1.422   .     A
C713   C729    1.482   .     S
C714   O774    1.306   .     A
C714   O768    1.301   .     A
C714   C720    1.462   .     S
C715   C730    1.486   .     S
C715   C716    1.429   .     A
C716   C725    1.490   .     S
C717   C731    1.489   .     S
C719   C16     1.469   1_556 S
C721   C736    1.407   .     A
C722   O758    1.396   .     S
C722   C732    1.480   .     S
C722   O780    1.220   .     D
C723   C733    1.494   .     S
C723   O759    1.224   .     D
C723   O760    1.390   .     S
C724   C734    1.480   .     S
C724   O762    1.394   .     S
C724   O761    1.222   .     D
C725   O779    1.310   .     A
C725   O776    1.309   .     A
C726   O763    1.215   .     D
C726   O764    1.400   .     S
C726   C735    1.491   .     S
C727   O765    1.223   .     D
C727   O766    1.399   .     S
C728   O769    1.398   .     S
C728   O767    1.223   .     D
C729   O770    1.223   .     D
C729   O771    1.398   .     S
C730   O773    1.399   .     S
C730   O772    1.222   .     D
C731   O778    1.307   .     A
C731   O777    1.312   .     A
C732   N756    1.369   .     A
C732   C1203   1.425   1_545 S
C733   N755    1.390   .     A
C733   C968    1.427   .     S
C734   N756    1.369   .     A
C734   C1201   1.427   1_545 S
C735   N755    1.389   .     A
C735   C966    1.425   .     S
C736   F743    1.358   .     S
C736   C861    1.384   1_455 S
Cu737  O776    1.967   .     S
Cu737  N755    2.036   .     S
Cu737  Cu738   2.710   .     S
Cu737  O778    1.965   .     S
Cu737  O757    1.976   .     S
Cu737  O774    1.976   .     S
Cu738  O768    1.976   .     S
Cu738  O777    1.967   .     S
Cu738  O779    1.965   .     S
Cu738  N756    2.036   .     S
Cu738  O775    1.976   .     S
H747   O758    1.014   .     S
H748   O760    1.014   .     S
H749   O762    1.014   .     S
H750   O764    1.014   .     S
H751   O766    1.013   .     S
H752   O769    1.014   .     S
H753   O771    1.012   .     S
H754   O773    1.014   .     S
C781   C799    1.460   .     S
C781   O853    1.301   .     A
C781   O835    1.305   .     A
C782   C798    1.402   .     A
C782   F822    1.353   .     S
C782   C862    1.380   .     S
C783   F823    1.357   .     S
C783   C798    1.407   .     A
C783   C892    1.384   .     S
C784   C799    1.402   .     A
C784   F824    1.354   .     S
C785   F817    1.362   .     S
C785   C796    1.395   .     A
C785   C789    1.392   .     A
C786   F818    1.360   .     S
C786   C797    1.396   .     A
C786   C790    1.406   .     A
C787   C791    1.394   .     A
C787   C797    1.397   .     A
C787   F819    1.362   .     S
C788   C793    1.406   .     A
C788   C796    1.395   .     A
C788   F820    1.360   .     S
C789   C805    1.476   .     S
C789   C794    1.423   .     A
C790   C795    1.427   .     A
C790   C806    1.488   .     S
C791   C795    1.422   .     A
C791   C807    1.482   .     S
C792   O852    1.306   .     A
C792   O846    1.301   .     A
C792   C798    1.462   .     S
C793   C808    1.486   .     S
C793   C794    1.429   .     A
C794   C803    1.490   .     S
C795   C809    1.489   .     S
C797   C94     1.469   1_556 S
C799   C814    1.407   .     A
C800   O836    1.396   .     S
C800   C810    1.480   .     S
C800   O858    1.220   .     D
C801   C811    1.494   .     S
C801   O837    1.224   .     D
C801   O838    1.390   .     S
C802   C812    1.480   .     S
C802   O840    1.394   .     S
C802   O839    1.222   .     D
C803   O857    1.310   .     A
C803   O854    1.309   .     A
C804   O841    1.215   .     D
C804   O842    1.400   .     S
C804   C813    1.491   .     S
C805   O843    1.223   .     D
C805   O844    1.399   .     S
C806   O847    1.398   .     S
C806   O845    1.223   .     D
C807   O848    1.223   .     D
C807   O849    1.398   .     S
C808   O851    1.399   .     S
C808   O850    1.222   .     D
C809   O856    1.307   .     A
C809   O855    1.312   .     A
C810   N834    1.369   .     A
C810   C1281   1.425   1_545 S
C811   N833    1.390   .     A
C811   C1046   1.427   .     S
C812   N834    1.369   .     A
C812   C1279   1.427   1_545 S
C813   N833    1.389   .     A
C813   C1044   1.425   .     S
C814   F821    1.358   .     S
Cu815  O854    1.967   .     S
Cu815  N833    2.036   .     S
Cu815  Cu816   2.710   .     S
Cu815  O856    1.965   .     S
Cu815  O835    1.976   .     S
Cu815  O852    1.976   .     S
Cu816  O846    1.976   .     S
Cu816  O855    1.967   .     S
Cu816  O857    1.965   .     S
Cu816  N834    2.036   .     S
Cu816  O853    1.976   .     S
H825   O836    1.014   .     S
H826   O838    1.014   .     S
H827   O840    1.014   .     S
H828   O842    1.014   .     S
H829   O844    1.013   .     S
H830   O847    1.014   .     S
H831   O849    1.012   .     S
H832   O851    1.014   .     S
C859   C877    1.460   .     S
C859   O931    1.301   .     A
C859   O913    1.305   .     A
C860   C876    1.402   .     A
C860   F900    1.353   .     S
C860   C706    1.380   1_655 S
C861   F901    1.357   .     S
C861   C876    1.407   .     A
C861   C736    1.384   1_655 S
C862   C877    1.402   .     A
C862   F902    1.354   .     S
C863   F895    1.362   .     S
C863   C874    1.395   .     A
C863   C867    1.392   .     A
C864   F896    1.360   .     S
C864   C875    1.396   .     A
C864   C868    1.406   .     A
C865   C869    1.394   .     A
C865   C875    1.397   .     A
C865   F897    1.362   .     S
C866   C871    1.406   .     A
C866   C874    1.395   .     A
C866   F898    1.360   .     S
C867   C883    1.476   .     S
C867   C872    1.423   .     A
C868   C873    1.427   .     A
C868   C884    1.488   .     S
C869   C873    1.422   .     A
C869   C885    1.482   .     S
C870   O930    1.306   .     A
C870   O924    1.301   .     A
C870   C876    1.462   .     S
C871   C886    1.486   .     S
C871   C872    1.429   .     A
C872   C881    1.490   .     S
C873   C887    1.489   .     S
C875   C172    1.469   1_556 S
C877   C892    1.407   .     A
C878   O914    1.396   .     S
C878   C888    1.480   .     S
C878   O936    1.220   .     D
C879   C889    1.494   .     S
C879   O915    1.224   .     D
C879   O916    1.390   .     S
C880   C890    1.480   .     S
C880   O918    1.394   .     S
C880   O917    1.222   .     D
C881   O935    1.310   .     A
C881   O932    1.309   .     A
C882   O919    1.215   .     D
C882   O920    1.400   .     S
C882   C891    1.491   .     S
C883   O921    1.223   .     D
C883   O922    1.399   .     S
C884   O925    1.398   .     S
C884   O923    1.223   .     D
C885   O926    1.223   .     D
C885   O927    1.398   .     S
C886   O929    1.399   .     S
C886   O928    1.222   .     D
C887   O934    1.307   .     A
C887   O933    1.312   .     A
C888   N912    1.369   .     A
C888   C1359   1.425   1_545 S
C889   N911    1.390   .     A
C889   C1124   1.427   .     S
C890   N912    1.369   .     A
C890   C1357   1.427   1_545 S
C891   N911    1.389   .     A
C891   C1122   1.425   .     S
C892   F899    1.358   .     S
Cu893  O932    1.967   .     S
Cu893  N911    2.036   .     S
Cu893  Cu894   2.710   .     S
Cu893  O934    1.965   .     S
Cu893  O913    1.976   .     S
Cu893  O930    1.976   .     S
Cu894  O924    1.976   .     S
Cu894  O933    1.967   .     S
Cu894  O935    1.965   .     S
Cu894  N912    2.036   .     S
Cu894  O931    1.976   .     S
H903   O914    1.014   .     S
H904   O916    1.014   .     S
H905   O918    1.014   .     S
H906   O920    1.014   .     S
H907   O922    1.013   .     S
H908   O925    1.014   .     S
H909   O927    1.012   .     S
H910   O929    1.014   .     S
C937   C955    1.460   .     S
C937   O1009   1.301   .     A
C937   O991    1.305   .     A
C938   C954    1.402   .     A
C938   F978    1.353   .     S
C938   C1018   1.380   .     S
C939   F979    1.357   .     S
C939   C954    1.407   .     A
C939   C1048   1.384   .     S
C940   C955    1.402   .     A
C940   F980    1.354   .     S
C940   C1094   1.380   1_455 S
C941   F973    1.362   .     S
C941   C952    1.395   .     A
C941   C945    1.392   .     A
C942   F974    1.360   .     S
C942   C953    1.396   .     A
C942   C946    1.406   .     A
C943   C947    1.394   .     A
C943   C953    1.397   .     A
C943   F975    1.362   .     S
C944   C949    1.406   .     A
C944   C952    1.395   .     A
C944   F976    1.360   .     S
C945   C961    1.476   .     S
C945   C950    1.423   .     A
C946   C951    1.427   .     A
C946   C962    1.488   .     S
C947   C951    1.422   .     A
C947   C963    1.482   .     S
C948   O1008   1.306   .     A
C948   O1002   1.301   .     A
C948   C954    1.462   .     S
C949   C964    1.486   .     S
C949   C950    1.429   .     A
C950   C959    1.490   .     S
C951   C965    1.489   .     S
C953   C250    1.469   1_556 S
C955   C970    1.407   .     A
C956   O992    1.396   .     S
C956   C966    1.480   .     S
C956   O1014   1.220   .     D
C957   C967    1.494   .     S
C957   O993    1.224   .     D
C957   O994    1.390   .     S
C958   C968    1.480   .     S
C958   O996    1.394   .     S
C958   O995    1.222   .     D
C959   O1013   1.310   .     A
C959   O1010   1.309   .     A
C960   O997    1.215   .     D
C960   O998    1.400   .     S
C960   C969    1.491   .     S
C961   O999    1.223   .     D
C961   O1000   1.399   .     S
C962   O1003   1.398   .     S
C962   O1001   1.223   .     D
C963   O1004   1.223   .     D
C963   O1005   1.398   .     S
C964   O1007   1.399   .     S
C964   O1006   1.222   .     D
C965   O1012   1.307   .     A
C965   O1011   1.312   .     A
C966   N990    1.369   .     A
C967   N989    1.390   .     A
C967   C1202   1.427   .     S
C968   N990    1.369   .     A
C969   N989    1.389   .     A
C969   C1200   1.425   .     S
C970   F977    1.358   .     S
C970   C1095   1.384   1_455 S
Cu971  O1010   1.967   .     S
Cu971  N989    2.036   .     S
Cu971  Cu972   2.710   .     S
Cu971  O1012   1.965   .     S
Cu971  O991    1.976   .     S
Cu971  O1008   1.976   .     S
Cu972  O1002   1.976   .     S
Cu972  O1011   1.967   .     S
Cu972  O1013   1.965   .     S
Cu972  N990    2.036   .     S
Cu972  O1009   1.976   .     S
H981   O992    1.014   .     S
H982   O994    1.014   .     S
H983   O996    1.014   .     S
H984   O998    1.014   .     S
H985   O1000   1.013   .     S
H986   O1003   1.014   .     S
H987   O1005   1.012   .     S
H988   O1007   1.014   .     S
C1015  C1033   1.460   .     S
C1015  O1087   1.301   .     A
C1015  O1069   1.305   .     A
C1016  C1032   1.402   .     A
C1016  F1056   1.353   .     S
C1016  C1096   1.380   .     S
C1017  F1057   1.357   .     S
C1017  C1032   1.407   .     A
C1017  C1126   1.384   .     S
C1018  C1033   1.402   .     A
C1018  F1058   1.354   .     S
C1019  F1051   1.362   .     S
C1019  C1030   1.395   .     A
C1019  C1023   1.392   .     A
C1020  F1052   1.360   .     S
C1020  C1031   1.396   .     A
C1020  C1024   1.406   .     A
C1021  C1025   1.394   .     A
C1021  C1031   1.397   .     A
C1021  F1053   1.362   .     S
C1022  C1027   1.406   .     A
C1022  C1030   1.395   .     A
C1022  F1054   1.360   .     S
C1023  C1039   1.476   .     S
C1023  C1028   1.423   .     A
C1024  C1029   1.427   .     A
C1024  C1040   1.488   .     S
C1025  C1029   1.422   .     A
C1025  C1041   1.482   .     S
C1026  O1086   1.306   .     A
C1026  O1080   1.301   .     A
C1026  C1032   1.462   .     S
C1027  C1042   1.486   .     S
C1027  C1028   1.429   .     A
C1028  C1037   1.490   .     S
C1029  C1043   1.489   .     S
C1031  C328    1.469   1_556 S
C1033  C1048   1.407   .     A
C1034  O1070   1.396   .     S
C1034  C1044   1.480   .     S
C1034  O1092   1.220   .     D
C1035  C1045   1.494   .     S
C1035  O1071   1.224   .     D
C1035  O1072   1.390   .     S
C1036  C1046   1.480   .     S
C1036  O1074   1.394   .     S
C1036  O1073   1.222   .     D
C1037  O1091   1.310   .     A
C1037  O1088   1.309   .     A
C1038  O1075   1.215   .     D
C1038  O1076   1.400   .     S
C1038  C1047   1.491   .     S
C1039  O1077   1.223   .     D
C1039  O1078   1.399   .     S
C1040  O1081   1.398   .     S
C1040  O1079   1.223   .     D
C1041  O1082   1.223   .     D
C1041  O1083   1.398   .     S
C1042  O1085   1.399   .     S
C1042  O1084   1.222   .     D
C1043  O1090   1.307   .     A
C1043  O1089   1.312   .     A
C1044  N1068   1.369   .     A
C1045  N1067   1.390   .     A
C1045  C1280   1.427   .     S
C1046  N1068   1.369   .     A
C1047  N1067   1.389   .     A
C1047  C1278   1.425   .     S
C1048  F1055   1.358   .     S
Cu1049 O1088   1.967   .     S
Cu1049 N1067   2.036   .     S
Cu1049 Cu1050  2.710   .     S
Cu1049 O1090   1.965   .     S
Cu1049 O1069   1.976   .     S
Cu1049 O1086   1.976   .     S
Cu1050 O1080   1.976   .     S
Cu1050 O1089   1.967   .     S
Cu1050 O1091   1.965   .     S
Cu1050 N1068   2.036   .     S
Cu1050 O1087   1.976   .     S
H1059  O1070   1.014   .     S
H1060  O1072   1.014   .     S
H1061  O1074   1.014   .     S
H1062  O1076   1.014   .     S
H1063  O1078   1.013   .     S
H1064  O1081   1.014   .     S
H1065  O1083   1.012   .     S
H1066  O1085   1.014   .     S
C1093  C1111   1.460   .     S
C1093  O1165   1.301   .     A
C1093  O1147   1.305   .     A
C1094  C1110   1.402   .     A
C1094  F1134   1.353   .     S
C1094  C940    1.380   1_655 S
C1095  F1135   1.357   .     S
C1095  C1110   1.407   .     A
C1095  C970    1.384   1_655 S
C1096  C1111   1.402   .     A
C1096  F1136   1.354   .     S
C1097  F1129   1.362   .     S
C1097  C1108   1.395   .     A
C1097  C1101   1.392   .     A
C1098  F1130   1.360   .     S
C1098  C1109   1.396   .     A
C1098  C1102   1.406   .     A
C1099  C1103   1.394   .     A
C1099  C1109   1.397   .     A
C1099  F1131   1.362   .     S
C1100  C1105   1.406   .     A
C1100  C1108   1.395   .     A
C1100  F1132   1.360   .     S
C1101  C1117   1.476   .     S
C1101  C1106   1.423   .     A
C1102  C1107   1.427   .     A
C1102  C1118   1.488   .     S
C1103  C1107   1.422   .     A
C1103  C1119   1.482   .     S
C1104  O1164   1.306   .     A
C1104  O1158   1.301   .     A
C1104  C1110   1.462   .     S
C1105  C1120   1.486   .     S
C1105  C1106   1.429   .     A
C1106  C1115   1.490   .     S
C1107  C1121   1.489   .     S
C1109  C406    1.469   1_556 S
C1111  C1126   1.407   .     A
C1112  O1148   1.396   .     S
C1112  C1122   1.480   .     S
C1112  O1170   1.220   .     D
C1113  C1123   1.494   .     S
C1113  O1149   1.224   .     D
C1113  O1150   1.390   .     S
C1114  C1124   1.480   .     S
C1114  O1152   1.394   .     S
C1114  O1151   1.222   .     D
C1115  O1169   1.310   .     A
C1115  O1166   1.309   .     A
C1116  O1153   1.215   .     D
C1116  O1154   1.400   .     S
C1116  C1125   1.491   .     S
C1117  O1155   1.223   .     D
C1117  O1156   1.399   .     S
C1118  O1159   1.398   .     S
C1118  O1157   1.223   .     D
C1119  O1160   1.223   .     D
C1119  O1161   1.398   .     S
C1120  O1163   1.399   .     S
C1120  O1162   1.222   .     D
C1121  O1168   1.307   .     A
C1121  O1167   1.312   .     A
C1122  N1146   1.369   .     A
C1123  N1145   1.390   .     A
C1123  C1358   1.427   .     S
C1124  N1146   1.369   .     A
C1125  N1145   1.389   .     A
C1125  C1356   1.425   .     S
C1126  F1133   1.358   .     S
Cu1127 O1166   1.967   .     S
Cu1127 N1145   2.036   .     S
Cu1127 Cu1128  2.710   .     S
Cu1127 O1168   1.965   .     S
Cu1127 O1147   1.976   .     S
Cu1127 O1164   1.976   .     S
Cu1128 O1158   1.976   .     S
Cu1128 O1167   1.967   .     S
Cu1128 O1169   1.965   .     S
Cu1128 N1146   2.036   .     S
Cu1128 O1165   1.976   .     S
H1137  O1148   1.014   .     S
H1138  O1150   1.014   .     S
H1139  O1152   1.014   .     S
H1140  O1154   1.014   .     S
H1141  O1156   1.013   .     S
H1142  O1159   1.014   .     S
H1143  O1161   1.012   .     S
H1144  O1163   1.014   .     S
C1171  C1189   1.460   .     S
C1171  O1243   1.301   .     A
C1171  O1225   1.305   .     A
C1172  C1188   1.402   .     A
C1172  F1212   1.353   .     S
C1172  C1252   1.380   .     S
C1173  F1213   1.357   .     S
C1173  C1188   1.407   .     A
C1173  C1282   1.384   .     S
C1174  C1189   1.402   .     A
C1174  F1214   1.354   .     S
C1174  C1328   1.380   1_455 S
C1175  F1207   1.362   .     S
C1175  C1186   1.395   .     A
C1175  C1179   1.392   .     A
C1176  F1208   1.360   .     S
C1176  C1187   1.396   .     A
C1176  C1180   1.406   .     A
C1177  C1181   1.394   .     A
C1177  C1187   1.397   .     A
C1177  F1209   1.362   .     S
C1178  C1183   1.406   .     A
C1178  C1186   1.395   .     A
C1178  F1210   1.360   .     S
C1179  C1195   1.476   .     S
C1179  C1184   1.423   .     A
C1180  C1185   1.427   .     A
C1180  C1196   1.488   .     S
C1181  C1185   1.422   .     A
C1181  C1197   1.482   .     S
C1182  O1242   1.306   .     A
C1182  O1236   1.301   .     A
C1182  C1188   1.462   .     S
C1183  C1198   1.486   .     S
C1183  C1184   1.429   .     A
C1184  C1193   1.490   .     S
C1185  C1199   1.489   .     S
C1187  C484    1.469   1_556 S
C1189  C1204   1.407   .     A
C1190  O1226   1.396   .     S
C1190  C1200   1.480   .     S
C1190  O1248   1.220   .     D
C1191  C1201   1.494   .     S
C1191  O1227   1.224   .     D
C1191  O1228   1.390   .     S
C1192  C1202   1.480   .     S
C1192  O1230   1.394   .     S
C1192  O1229   1.222   .     D
C1193  O1247   1.310   .     A
C1193  O1244   1.309   .     A
C1194  O1231   1.215   .     D
C1194  O1232   1.400   .     S
C1194  C1203   1.491   .     S
C1195  O1233   1.223   .     D
C1195  O1234   1.399   .     S
C1196  O1237   1.398   .     S
C1196  O1235   1.223   .     D
C1197  O1238   1.223   .     D
C1197  O1239   1.398   .     S
C1198  O1241   1.399   .     S
C1198  O1240   1.222   .     D
C1199  O1246   1.307   .     A
C1199  O1245   1.312   .     A
C1200  N1224   1.369   .     A
C1201  N1223   1.390   .     A
C1201  C734    1.427   1_565 S
C1202  N1224   1.369   .     A
C1203  N1223   1.389   .     A
C1203  C732    1.425   1_565 S
C1204  F1211   1.358   .     S
C1204  C1329   1.384   1_455 S
Cu1205 O1244   1.967   .     S
Cu1205 N1223   2.036   .     S
Cu1205 Cu1206  2.710   .     S
Cu1205 O1246   1.965   .     S
Cu1205 O1225   1.976   .     S
Cu1205 O1242   1.976   .     S
Cu1206 O1236   1.976   .     S
Cu1206 O1245   1.967   .     S
Cu1206 O1247   1.965   .     S
Cu1206 N1224   2.036   .     S
Cu1206 O1243   1.976   .     S
H1215  O1226   1.014   .     S
H1216  O1228   1.014   .     S
H1217  O1230   1.014   .     S
H1218  O1232   1.014   .     S
H1219  O1234   1.013   .     S
H1220  O1237   1.014   .     S
H1221  O1239   1.012   .     S
H1222  O1241   1.014   .     S
C1249  C1267   1.460   .     S
C1249  O1321   1.301   .     A
C1249  O1303   1.305   .     A
C1250  C1266   1.402   .     A
C1250  F1290   1.353   .     S
C1250  C1330   1.380   .     S
C1251  F1291   1.357   .     S
C1251  C1266   1.407   .     A
C1251  C1360   1.384   .     S
C1252  C1267   1.402   .     A
C1252  F1292   1.354   .     S
C1253  F1285   1.362   .     S
C1253  C1264   1.395   .     A
C1253  C1257   1.392   .     A
C1254  F1286   1.360   .     S
C1254  C1265   1.396   .     A
C1254  C1258   1.406   .     A
C1255  C1259   1.394   .     A
C1255  C1265   1.397   .     A
C1255  F1287   1.362   .     S
C1256  C1261   1.406   .     A
C1256  C1264   1.395   .     A
C1256  F1288   1.360   .     S
C1257  C1273   1.476   .     S
C1257  C1262   1.423   .     A
C1258  C1263   1.427   .     A
C1258  C1274   1.488   .     S
C1259  C1263   1.422   .     A
C1259  C1275   1.482   .     S
C1260  O1320   1.306   .     A
C1260  O1314   1.301   .     A
C1260  C1266   1.462   .     S
C1261  C1276   1.486   .     S
C1261  C1262   1.429   .     A
C1262  C1271   1.490   .     S
C1263  C1277   1.489   .     S
C1265  C562    1.469   1_556 S
C1267  C1282   1.407   .     A
C1268  O1304   1.396   .     S
C1268  C1278   1.480   .     S
C1268  O1326   1.220   .     D
C1269  C1279   1.494   .     S
C1269  O1305   1.224   .     D
C1269  O1306   1.390   .     S
C1270  C1280   1.480   .     S
C1270  O1308   1.394   .     S
C1270  O1307   1.222   .     D
C1271  O1325   1.310   .     A
C1271  O1322   1.309   .     A
C1272  O1309   1.215   .     D
C1272  O1310   1.400   .     S
C1272  C1281   1.491   .     S
C1273  O1311   1.223   .     D
C1273  O1312   1.399   .     S
C1274  O1315   1.398   .     S
C1274  O1313   1.223   .     D
C1275  O1316   1.223   .     D
C1275  O1317   1.398   .     S
C1276  O1319   1.399   .     S
C1276  O1318   1.222   .     D
C1277  O1324   1.307   .     A
C1277  O1323   1.312   .     A
C1278  N1302   1.369   .     A
C1279  N1301   1.390   .     A
C1279  C812    1.427   1_565 S
C1280  N1302   1.369   .     A
C1281  N1301   1.389   .     A
C1281  C810    1.425   1_565 S
C1282  F1289   1.358   .     S
Cu1283 O1322   1.967   .     S
Cu1283 N1301   2.036   .     S
Cu1283 Cu1284  2.710   .     S
Cu1283 O1324   1.965   .     S
Cu1283 O1303   1.976   .     S
Cu1283 O1320   1.976   .     S
Cu1284 O1314   1.976   .     S
Cu1284 O1323   1.967   .     S
Cu1284 O1325   1.965   .     S
Cu1284 N1302   2.036   .     S
Cu1284 O1321   1.976   .     S
H1293  O1304   1.014   .     S
H1294  O1306   1.014   .     S
H1295  O1308   1.014   .     S
H1296  O1310   1.014   .     S
H1297  O1312   1.013   .     S
H1298  O1315   1.014   .     S
H1299  O1317   1.012   .     S
H1300  O1319   1.014   .     S
C1327  C1345   1.460   .     S
C1327  O1399   1.301   .     A
C1327  O1381   1.305   .     A
C1328  C1344   1.402   .     A
C1328  F1368   1.353   .     S
C1328  C1174   1.380   1_655 S
C1329  F1369   1.357   .     S
C1329  C1344   1.407   .     A
C1329  C1204   1.384   1_655 S
C1330  C1345   1.402   .     A
C1330  F1370   1.354   .     S
C1331  F1363   1.362   .     S
C1331  C1342   1.395   .     A
C1331  C1335   1.392   .     A
C1332  F1364   1.360   .     S
C1332  C1343   1.396   .     A
C1332  C1336   1.406   .     A
C1333  C1337   1.394   .     A
C1333  C1343   1.397   .     A
C1333  F1365   1.362   .     S
C1334  C1339   1.406   .     A
C1334  C1342   1.395   .     A
C1334  F1366   1.360   .     S
C1335  C1351   1.476   .     S
C1335  C1340   1.423   .     A
C1336  C1341   1.427   .     A
C1336  C1352   1.488   .     S
C1337  C1341   1.422   .     A
C1337  C1353   1.482   .     S
C1338  O1398   1.306   .     A
C1338  O1392   1.301   .     A
C1338  C1344   1.462   .     S
C1339  C1354   1.486   .     S
C1339  C1340   1.429   .     A
C1340  C1349   1.490   .     S
C1341  C1355   1.489   .     S
C1343  C640    1.469   1_556 S
C1345  C1360   1.407   .     A
C1346  O1382   1.396   .     S
C1346  C1356   1.480   .     S
C1346  O1404   1.220   .     D
C1347  C1357   1.494   .     S
C1347  O1383   1.224   .     D
C1347  O1384   1.390   .     S
C1348  C1358   1.480   .     S
C1348  O1386   1.394   .     S
C1348  O1385   1.222   .     D
C1349  O1403   1.310   .     A
C1349  O1400   1.309   .     A
C1350  O1387   1.215   .     D
C1350  O1388   1.400   .     S
C1350  C1359   1.491   .     S
C1351  O1389   1.223   .     D
C1351  O1390   1.399   .     S
C1352  O1393   1.398   .     S
C1352  O1391   1.223   .     D
C1353  O1394   1.223   .     D
C1353  O1395   1.398   .     S
C1354  O1397   1.399   .     S
C1354  O1396   1.222   .     D
C1355  O1402   1.307   .     A
C1355  O1401   1.312   .     A
C1356  N1380   1.369   .     A
C1357  N1379   1.390   .     A
C1357  C890    1.427   1_565 S
C1358  N1380   1.369   .     A
C1359  N1379   1.389   .     A
C1359  C888    1.425   1_565 S
C1360  F1367   1.358   .     S
Cu1361 O1400   1.967   .     S
Cu1361 N1379   2.036   .     S
Cu1361 Cu1362  2.710   .     S
Cu1361 O1402   1.965   .     S
Cu1361 O1381   1.976   .     S
Cu1361 O1398   1.976   .     S
Cu1362 O1392   1.976   .     S
Cu1362 O1401   1.967   .     S
Cu1362 O1403   1.965   .     S
Cu1362 N1380   2.036   .     S
Cu1362 O1399   1.976   .     S
H1371  O1382   1.014   .     S
H1372  O1384   1.014   .     S
H1373  O1386   1.014   .     S
H1374  O1388   1.014   .     S
H1375  O1390   1.013   .     S
H1376  O1393   1.014   .     S
H1377  O1395   1.012   .     S
H1378  O1397   1.014   .     S
