data_str_m2_o10_o17_pcu_sym.27
_audit_creation_date              2020-01-03
_audit_creation_method            'Materials Studio'
_symmetry_space_group_name_H-M    'P1'
_symmetry_Int_Tables_number       1
_symmetry_cell_setting            triclinic
loop_
_symmetry_equiv_pos_as_xyz
  x,y,z
_cell_length_a                    30.0677
_cell_length_b                    26.0030
_cell_length_c                    22.3431
_cell_angle_alpha                 102.9672
_cell_angle_beta                  93.8783
_cell_angle_gamma                 92.5418
loop_
_atom_site_label
_atom_site_type_symbol
_atom_site_fract_x
_atom_site_fract_y
_atom_site_fract_z
_atom_site_U_iso_or_equiv
_atom_site_adp_type
_atom_site_occupancy
C1     C     0.24843   0.06657   0.15109   0.00000  Uiso   1.00
C2     C     0.09159   0.12113   0.14601   0.00000  Uiso   1.00
C3     C     0.38323   0.16489   0.16335   0.00000  Uiso   1.00
C4     C     0.11677   0.16844   0.16998   0.00000  Uiso   1.00
C5     C     0.40339   0.11754   0.13992   0.00000  Uiso   1.00
C6     C     0.09661   0.21578   0.19344   0.00000  Uiso   1.00
C7     C     0.45047   0.11847   0.14140   0.00000  Uiso   1.00
C8     C     0.04953   0.21485   0.19199   0.00000  Uiso   1.00
C9     C     0.47642   0.16651   0.16593   0.00000  Uiso   1.00
C10    C     0.02358   0.16681   0.16745   0.00000  Uiso   1.00
C11    C     0.45527   0.21411   0.18895   0.00000  Uiso   1.00
C12    C     0.25157   0.26677   0.18224   0.00000  Uiso   1.00
C13    C     0.04473   0.11921   0.14444   0.00000  Uiso   1.00
C14    C     0.47202   0.07200   0.11918   0.00000  Uiso   1.00
C15    C     0.02798   0.26130   0.21424   0.00000  Uiso   1.00
C16    C     0.37518   0.06614   0.11493   0.00000  Uiso   1.00
C17    C     0.12481   0.26719   0.21841   0.00000  Uiso   1.00
C18    C     0.03780   0.01884   0.09578   0.00000  Uiso   1.00
C19    C     0.46221   0.31446   0.23769   0.00000  Uiso   1.00
C20    C     0.01834   0.07142   0.12044   0.00000  Uiso   1.00
C21    C     0.48166   0.26188   0.21298   0.00000  Uiso   1.00
C22    C     0.24785   0.01057   0.14232   0.00000  Uiso   1.00
C23    C     0.25215   0.32276   0.19101   0.00000  Uiso   1.00
C24    C     0.16471   0.16725   0.16774   0.00000  Uiso   1.00
C25    C     0.33528   0.16608   0.16559   0.00000  Uiso   1.00
C26    C     0.40842   0.21219   0.18735   0.00000  Uiso   1.00
Cu27   Cu    0.25500   0.17246   0.22813   0.00000  Uiso   1.00
Cu28   Cu    0.24499   0.16087   0.10521   0.00000  Uiso   1.00
F29    F     0.38597   0.25595   0.20886   0.00000  Uiso   1.00
F30    F     0.11403   0.07738   0.12446   0.00000  Uiso   1.00
H31    H     0.45288   0.03506   0.10037   0.00000  Uiso   1.00
H32    H     0.11576   0.29662   0.19125   0.00000  Uiso   1.00
H33    H     0.11912   0.28289   0.26758   0.00000  Uiso   1.00
H34    H     0.16113   0.26328   0.21622   0.00000  Uiso   1.00
H35    H     0.01165   0.31946   0.07998   0.00000  Uiso   1.00
H36    H     0.05685   0.02096   0.05544   0.00000  Uiso   1.00
H37    H     0.05955   0.00793   0.13254   0.00000  Uiso   1.00
H38    H     0.48836   0.01382   0.25355   0.00000  Uiso   1.00
H39    H     0.44048   0.32541   0.20094   0.00000  Uiso   1.00
H40    H     0.44313   0.31230   0.27799   0.00000  Uiso   1.00
H41    H     0.04712   0.29824   0.23308   0.00000  Uiso   1.00
H42    H     0.24397   0.31999   0.09541   0.00000  Uiso   1.00
H43    H     0.25603   0.01334   0.23792   0.00000  Uiso   1.00
H44    H     0.21505   0.12594   0.31623   0.00000  Uiso   1.00
H45    H     0.28495   0.20740   0.01710   0.00000  Uiso   1.00
H46    H     0.38418   0.03672   0.14213   0.00000  Uiso   1.00
H47    H     0.33886   0.07007   0.11703   0.00000  Uiso   1.00
H48    H     0.38092   0.05040   0.06579   0.00000  Uiso   1.00
N49    N     0.23744   0.15214   0.01284   0.00000  Uiso   1.00
N50    N     0.26255   0.18119   0.32049   0.00000  Uiso   1.00
O51    O     0.25325   0.09538   0.20659   0.00000  Uiso   1.00
O52    O     0.24674   0.23796   0.12674   0.00000  Uiso   1.00
O53    O     0.24480   0.08559   0.10279   0.00000  Uiso   1.00
O54    O     0.25520   0.24774   0.23055   0.00000  Uiso   1.00
O55    O     0.18935   0.17155   0.21857   0.00000  Uiso   1.00
O56    O     0.31064   0.16179   0.11476   0.00000  Uiso   1.00
O57    O     0.18090   0.16176   0.11477   0.00000  Uiso   1.00
O58    O     0.31910   0.17157   0.21857   0.00000  Uiso   1.00
C59    C     0.74843   0.06657   0.15109   0.00000  Uiso   1.00
C60    C     0.59159   0.12113   0.14601   0.00000  Uiso   1.00
C61    C     0.88323   0.16489   0.16335   0.00000  Uiso   1.00
C62    C     0.61677   0.16844   0.16998   0.00000  Uiso   1.00
C63    C     0.90339   0.11754   0.13992   0.00000  Uiso   1.00
C64    C     0.59661   0.21578   0.19344   0.00000  Uiso   1.00
C65    C     0.95047   0.11847   0.14140   0.00000  Uiso   1.00
C66    C     0.54953   0.21485   0.19199   0.00000  Uiso   1.00
C67    C     0.97642   0.16651   0.16593   0.00000  Uiso   1.00
C68    C     0.52358   0.16681   0.16745   0.00000  Uiso   1.00
C69    C     0.95527   0.21411   0.18895   0.00000  Uiso   1.00
C70    C     0.75157   0.26677   0.18224   0.00000  Uiso   1.00
C71    C     0.54473   0.11921   0.14444   0.00000  Uiso   1.00
C72    C     0.97202   0.07200   0.11918   0.00000  Uiso   1.00
C73    C     0.52798   0.26130   0.21424   0.00000  Uiso   1.00
C74    C     0.87518   0.06614   0.11493   0.00000  Uiso   1.00
C75    C     0.62481   0.26719   0.21841   0.00000  Uiso   1.00
C76    C     0.53780   0.01884   0.09578   0.00000  Uiso   1.00
C77    C     0.96221   0.31446   0.23769   0.00000  Uiso   1.00
C78    C     0.51834   0.07142   0.12044   0.00000  Uiso   1.00
C79    C     0.98166   0.26188   0.21298   0.00000  Uiso   1.00
C80    C     0.74785   0.01057   0.14232   0.00000  Uiso   1.00
C81    C     0.75215   0.32276   0.19101   0.00000  Uiso   1.00
C82    C     0.66471   0.16725   0.16774   0.00000  Uiso   1.00
C83    C     0.83528   0.16608   0.16559   0.00000  Uiso   1.00
C84    C     0.90842   0.21219   0.18735   0.00000  Uiso   1.00
Cu85   Cu    0.75500   0.17246   0.22813   0.00000  Uiso   1.00
Cu86   Cu    0.74499   0.16087   0.10521   0.00000  Uiso   1.00
F87    F     0.88597   0.25595   0.20886   0.00000  Uiso   1.00
F88    F     0.61403   0.07738   0.12446   0.00000  Uiso   1.00
H89    H     0.95288   0.03506   0.10037   0.00000  Uiso   1.00
H90    H     0.61576   0.29662   0.19125   0.00000  Uiso   1.00
H91    H     0.61912   0.28289   0.26758   0.00000  Uiso   1.00
H92    H     0.66113   0.26328   0.21622   0.00000  Uiso   1.00
H93    H     0.51165   0.31946   0.07998   0.00000  Uiso   1.00
H94    H     0.55685   0.02096   0.05544   0.00000  Uiso   1.00
H95    H     0.55955   0.00793   0.13254   0.00000  Uiso   1.00
H96    H     0.98836   0.01382   0.25355   0.00000  Uiso   1.00
H97    H     0.94048   0.32541   0.20094   0.00000  Uiso   1.00
H98    H     0.94313   0.31230   0.27799   0.00000  Uiso   1.00
H99    H     0.54712   0.29824   0.23308   0.00000  Uiso   1.00
H100   H     0.74397   0.31999   0.09541   0.00000  Uiso   1.00
H101   H     0.75603   0.01334   0.23792   0.00000  Uiso   1.00
H102   H     0.71505   0.12594   0.31623   0.00000  Uiso   1.00
H103   H     0.78495   0.20740   0.01710   0.00000  Uiso   1.00
H104   H     0.88418   0.03672   0.14213   0.00000  Uiso   1.00
H105   H     0.83886   0.07007   0.11703   0.00000  Uiso   1.00
H106   H     0.88092   0.05040   0.06579   0.00000  Uiso   1.00
N107   N     0.73744   0.15214   0.01284   0.00000  Uiso   1.00
N108   N     0.76255   0.18119   0.32049   0.00000  Uiso   1.00
O109   O     0.75325   0.09538   0.20659   0.00000  Uiso   1.00
O110   O     0.74674   0.23796   0.12674   0.00000  Uiso   1.00
O111   O     0.74480   0.08559   0.10279   0.00000  Uiso   1.00
O112   O     0.75520   0.24774   0.23055   0.00000  Uiso   1.00
O113   O     0.68935   0.17155   0.21857   0.00000  Uiso   1.00
O114   O     0.81064   0.16179   0.11476   0.00000  Uiso   1.00
O115   O     0.68090   0.16176   0.11477   0.00000  Uiso   1.00
O116   O     0.81910   0.17157   0.21857   0.00000  Uiso   1.00
C117   C     0.24843   0.39990   0.15109   0.00000  Uiso   1.00
C118   C     0.09159   0.45447   0.14601   0.00000  Uiso   1.00
C119   C     0.38323   0.49822   0.16335   0.00000  Uiso   1.00
C120   C     0.11677   0.50177   0.16998   0.00000  Uiso   1.00
C121   C     0.40339   0.45088   0.13992   0.00000  Uiso   1.00
C122   C     0.09661   0.54911   0.19344   0.00000  Uiso   1.00
C123   C     0.45047   0.45180   0.14140   0.00000  Uiso   1.00
C124   C     0.04953   0.54818   0.19199   0.00000  Uiso   1.00
C125   C     0.47642   0.49984   0.16593   0.00000  Uiso   1.00
C126   C     0.02358   0.50014   0.16745   0.00000  Uiso   1.00
C127   C     0.45527   0.54744   0.18895   0.00000  Uiso   1.00
C128   C     0.25157   0.60010   0.18224   0.00000  Uiso   1.00
C129   C     0.04473   0.45254   0.14444   0.00000  Uiso   1.00
C130   C     0.47202   0.40534   0.11918   0.00000  Uiso   1.00
C131   C     0.02798   0.59464   0.21424   0.00000  Uiso   1.00
C132   C     0.37518   0.39947   0.11493   0.00000  Uiso   1.00
C133   C     0.12481   0.60053   0.21841   0.00000  Uiso   1.00
C134   C     0.03780   0.35217   0.09578   0.00000  Uiso   1.00
C135   C     0.46221   0.64779   0.23769   0.00000  Uiso   1.00
C136   C     0.01834   0.40476   0.12044   0.00000  Uiso   1.00
C137   C     0.48166   0.59522   0.21298   0.00000  Uiso   1.00
C138   C     0.24785   0.34391   0.14232   0.00000  Uiso   1.00
C139   C     0.25215   0.65609   0.19101   0.00000  Uiso   1.00
C140   C     0.16471   0.50058   0.16774   0.00000  Uiso   1.00
C141   C     0.33528   0.49941   0.16559   0.00000  Uiso   1.00
C142   C     0.40842   0.54552   0.18735   0.00000  Uiso   1.00
Cu143  Cu    0.25500   0.50579   0.22813   0.00000  Uiso   1.00
Cu144  Cu    0.24499   0.49421   0.10521   0.00000  Uiso   1.00
F145   F     0.38597   0.58928   0.20886   0.00000  Uiso   1.00
F146   F     0.11403   0.41071   0.12446   0.00000  Uiso   1.00
H147   H     0.45288   0.36839   0.10037   0.00000  Uiso   1.00
H148   H     0.11576   0.62995   0.19125   0.00000  Uiso   1.00
H149   H     0.11912   0.61623   0.26758   0.00000  Uiso   1.00
H150   H     0.16113   0.59661   0.21622   0.00000  Uiso   1.00
H151   H     0.01165   0.65280   0.07998   0.00000  Uiso   1.00
H152   H     0.05685   0.35429   0.05544   0.00000  Uiso   1.00
H153   H     0.05955   0.34126   0.13254   0.00000  Uiso   1.00
H154   H     0.48836   0.34715   0.25355   0.00000  Uiso   1.00
H155   H     0.44048   0.65875   0.20094   0.00000  Uiso   1.00
H156   H     0.44313   0.64563   0.27799   0.00000  Uiso   1.00
H157   H     0.04712   0.63158   0.23308   0.00000  Uiso   1.00
H158   H     0.24397   0.65332   0.09541   0.00000  Uiso   1.00
H159   H     0.25603   0.34668   0.23792   0.00000  Uiso   1.00
H160   H     0.21505   0.45927   0.31623   0.00000  Uiso   1.00
H161   H     0.28495   0.54073   0.01710   0.00000  Uiso   1.00
H162   H     0.38418   0.37006   0.14213   0.00000  Uiso   1.00
H163   H     0.33886   0.40340   0.11703   0.00000  Uiso   1.00
H164   H     0.38092   0.38374   0.06579   0.00000  Uiso   1.00
N165   N     0.23744   0.48547   0.01284   0.00000  Uiso   1.00
N166   N     0.26255   0.51453   0.32049   0.00000  Uiso   1.00
O167   O     0.25325   0.42871   0.20659   0.00000  Uiso   1.00
O168   O     0.24674   0.57129   0.12674   0.00000  Uiso   1.00
O169   O     0.24480   0.41892   0.10279   0.00000  Uiso   1.00
O170   O     0.25520   0.58108   0.23055   0.00000  Uiso   1.00
O171   O     0.18935   0.50488   0.21857   0.00000  Uiso   1.00
O172   O     0.31064   0.49512   0.11476   0.00000  Uiso   1.00
O173   O     0.18090   0.49510   0.11477   0.00000  Uiso   1.00
O174   O     0.31910   0.50490   0.21857   0.00000  Uiso   1.00
C175   C     0.74843   0.39990   0.15109   0.00000  Uiso   1.00
C176   C     0.59159   0.45447   0.14601   0.00000  Uiso   1.00
C177   C     0.88323   0.49822   0.16335   0.00000  Uiso   1.00
C178   C     0.61677   0.50177   0.16998   0.00000  Uiso   1.00
C179   C     0.90339   0.45088   0.13992   0.00000  Uiso   1.00
C180   C     0.59661   0.54911   0.19344   0.00000  Uiso   1.00
C181   C     0.95047   0.45180   0.14140   0.00000  Uiso   1.00
C182   C     0.54953   0.54818   0.19199   0.00000  Uiso   1.00
C183   C     0.97642   0.49984   0.16593   0.00000  Uiso   1.00
C184   C     0.52358   0.50014   0.16745   0.00000  Uiso   1.00
C185   C     0.95527   0.54744   0.18895   0.00000  Uiso   1.00
C186   C     0.75157   0.60010   0.18224   0.00000  Uiso   1.00
C187   C     0.54473   0.45254   0.14444   0.00000  Uiso   1.00
C188   C     0.97202   0.40534   0.11918   0.00000  Uiso   1.00
C189   C     0.52798   0.59464   0.21424   0.00000  Uiso   1.00
C190   C     0.87518   0.39947   0.11493   0.00000  Uiso   1.00
C191   C     0.62481   0.60053   0.21841   0.00000  Uiso   1.00
C192   C     0.53780   0.35217   0.09578   0.00000  Uiso   1.00
C193   C     0.96221   0.64779   0.23769   0.00000  Uiso   1.00
C194   C     0.51834   0.40476   0.12044   0.00000  Uiso   1.00
C195   C     0.98166   0.59522   0.21298   0.00000  Uiso   1.00
C196   C     0.74785   0.34391   0.14232   0.00000  Uiso   1.00
C197   C     0.75215   0.65609   0.19101   0.00000  Uiso   1.00
C198   C     0.66471   0.50058   0.16774   0.00000  Uiso   1.00
C199   C     0.83528   0.49941   0.16559   0.00000  Uiso   1.00
C200   C     0.90842   0.54552   0.18735   0.00000  Uiso   1.00
Cu201  Cu    0.75500   0.50579   0.22813   0.00000  Uiso   1.00
Cu202  Cu    0.74499   0.49421   0.10521   0.00000  Uiso   1.00
F203   F     0.88597   0.58928   0.20886   0.00000  Uiso   1.00
F204   F     0.61403   0.41071   0.12446   0.00000  Uiso   1.00
H205   H     0.95288   0.36839   0.10037   0.00000  Uiso   1.00
H206   H     0.61576   0.62995   0.19125   0.00000  Uiso   1.00
H207   H     0.61912   0.61623   0.26758   0.00000  Uiso   1.00
H208   H     0.66113   0.59661   0.21622   0.00000  Uiso   1.00
H209   H     0.51165   0.65280   0.07998   0.00000  Uiso   1.00
H210   H     0.55685   0.35429   0.05544   0.00000  Uiso   1.00
H211   H     0.55955   0.34126   0.13254   0.00000  Uiso   1.00
H212   H     0.98836   0.34715   0.25355   0.00000  Uiso   1.00
H213   H     0.94048   0.65875   0.20094   0.00000  Uiso   1.00
H214   H     0.94313   0.64563   0.27799   0.00000  Uiso   1.00
H215   H     0.54712   0.63158   0.23308   0.00000  Uiso   1.00
H216   H     0.74397   0.65332   0.09541   0.00000  Uiso   1.00
H217   H     0.75603   0.34668   0.23792   0.00000  Uiso   1.00
H218   H     0.71505   0.45927   0.31623   0.00000  Uiso   1.00
H219   H     0.78495   0.54073   0.01710   0.00000  Uiso   1.00
H220   H     0.88418   0.37006   0.14213   0.00000  Uiso   1.00
H221   H     0.83886   0.40340   0.11703   0.00000  Uiso   1.00
H222   H     0.88092   0.38374   0.06579   0.00000  Uiso   1.00
N223   N     0.73744   0.48547   0.01284   0.00000  Uiso   1.00
N224   N     0.76255   0.51453   0.32049   0.00000  Uiso   1.00
O225   O     0.75325   0.42871   0.20659   0.00000  Uiso   1.00
O226   O     0.74674   0.57129   0.12674   0.00000  Uiso   1.00
O227   O     0.74480   0.41892   0.10279   0.00000  Uiso   1.00
O228   O     0.75520   0.58108   0.23055   0.00000  Uiso   1.00
O229   O     0.68935   0.50488   0.21857   0.00000  Uiso   1.00
O230   O     0.81064   0.49512   0.11476   0.00000  Uiso   1.00
O231   O     0.68090   0.49510   0.11477   0.00000  Uiso   1.00
O232   O     0.81910   0.50490   0.21857   0.00000  Uiso   1.00
C233   C     0.24843   0.73323   0.15109   0.00000  Uiso   1.00
C234   C     0.09159   0.78780   0.14601   0.00000  Uiso   1.00
C235   C     0.38323   0.83156   0.16335   0.00000  Uiso   1.00
C236   C     0.11677   0.83510   0.16998   0.00000  Uiso   1.00
C237   C     0.40339   0.78421   0.13992   0.00000  Uiso   1.00
C238   C     0.09661   0.88245   0.19344   0.00000  Uiso   1.00
C239   C     0.45047   0.78514   0.14140   0.00000  Uiso   1.00
C240   C     0.04953   0.88151   0.19199   0.00000  Uiso   1.00
C241   C     0.47642   0.83317   0.16593   0.00000  Uiso   1.00
C242   C     0.02358   0.83348   0.16745   0.00000  Uiso   1.00
C243   C     0.45527   0.88078   0.18895   0.00000  Uiso   1.00
C244   C     0.25157   0.93343   0.18224   0.00000  Uiso   1.00
C245   C     0.04473   0.78587   0.14444   0.00000  Uiso   1.00
C246   C     0.47202   0.73867   0.11918   0.00000  Uiso   1.00
C247   C     0.02798   0.92797   0.21424   0.00000  Uiso   1.00
C248   C     0.37518   0.73280   0.11493   0.00000  Uiso   1.00
C249   C     0.12481   0.93386   0.21841   0.00000  Uiso   1.00
C250   C     0.03780   0.68551   0.09578   0.00000  Uiso   1.00
C251   C     0.46221   0.98113   0.23769   0.00000  Uiso   1.00
C252   C     0.01834   0.73809   0.12044   0.00000  Uiso   1.00
C253   C     0.48166   0.92855   0.21298   0.00000  Uiso   1.00
C254   C     0.24785   0.67724   0.14232   0.00000  Uiso   1.00
C255   C     0.25215   0.98943   0.19101   0.00000  Uiso   1.00
C256   C     0.16471   0.83392   0.16774   0.00000  Uiso   1.00
C257   C     0.33528   0.83275   0.16559   0.00000  Uiso   1.00
C258   C     0.40842   0.87886   0.18735   0.00000  Uiso   1.00
Cu259  Cu    0.25500   0.83913   0.22813   0.00000  Uiso   1.00
Cu260  Cu    0.24499   0.82754   0.10521   0.00000  Uiso   1.00
F261   F     0.38597   0.92262   0.20886   0.00000  Uiso   1.00
F262   F     0.11403   0.74404   0.12446   0.00000  Uiso   1.00
H263   H     0.45288   0.70173   0.10037   0.00000  Uiso   1.00
H264   H     0.11576   0.96329   0.19125   0.00000  Uiso   1.00
H265   H     0.11912   0.94956   0.26758   0.00000  Uiso   1.00
H266   H     0.16113   0.92994   0.21622   0.00000  Uiso   1.00
H267   H     0.01165   0.98613   0.07998   0.00000  Uiso   1.00
H268   H     0.05685   0.68763   0.05544   0.00000  Uiso   1.00
H269   H     0.05955   0.67460   0.13254   0.00000  Uiso   1.00
H270   H     0.48836   0.68049   0.25355   0.00000  Uiso   1.00
H271   H     0.44048   0.99208   0.20094   0.00000  Uiso   1.00
H272   H     0.44313   0.97896   0.27799   0.00000  Uiso   1.00
H273   H     0.04712   0.96491   0.23308   0.00000  Uiso   1.00
H274   H     0.24397   0.98666   0.09541   0.00000  Uiso   1.00
H275   H     0.25603   0.68001   0.23792   0.00000  Uiso   1.00
H276   H     0.21505   0.79260   0.31623   0.00000  Uiso   1.00
H277   H     0.28495   0.87406   0.01710   0.00000  Uiso   1.00
H278   H     0.38418   0.70339   0.14213   0.00000  Uiso   1.00
H279   H     0.33886   0.73674   0.11703   0.00000  Uiso   1.00
H280   H     0.38092   0.71707   0.06579   0.00000  Uiso   1.00
N281   N     0.23744   0.81881   0.01284   0.00000  Uiso   1.00
N282   N     0.26255   0.84786   0.32049   0.00000  Uiso   1.00
O283   O     0.25325   0.76204   0.20659   0.00000  Uiso   1.00
O284   O     0.24674   0.90462   0.12674   0.00000  Uiso   1.00
O285   O     0.24480   0.75226   0.10279   0.00000  Uiso   1.00
O286   O     0.25520   0.91441   0.23055   0.00000  Uiso   1.00
O287   O     0.18935   0.83821   0.21857   0.00000  Uiso   1.00
O288   O     0.31064   0.82845   0.11476   0.00000  Uiso   1.00
O289   O     0.18090   0.82843   0.11477   0.00000  Uiso   1.00
O290   O     0.31910   0.83824   0.21857   0.00000  Uiso   1.00
C291   C     0.74843   0.73323   0.15109   0.00000  Uiso   1.00
C292   C     0.59159   0.78780   0.14601   0.00000  Uiso   1.00
C293   C     0.88323   0.83156   0.16335   0.00000  Uiso   1.00
C294   C     0.61677   0.83510   0.16998   0.00000  Uiso   1.00
C295   C     0.90339   0.78421   0.13992   0.00000  Uiso   1.00
C296   C     0.59661   0.88245   0.19344   0.00000  Uiso   1.00
C297   C     0.95047   0.78514   0.14140   0.00000  Uiso   1.00
C298   C     0.54953   0.88151   0.19199   0.00000  Uiso   1.00
C299   C     0.97642   0.83317   0.16593   0.00000  Uiso   1.00
C300   C     0.52358   0.83348   0.16745   0.00000  Uiso   1.00
C301   C     0.95527   0.88078   0.18895   0.00000  Uiso   1.00
C302   C     0.75157   0.93343   0.18224   0.00000  Uiso   1.00
C303   C     0.54473   0.78587   0.14444   0.00000  Uiso   1.00
C304   C     0.97202   0.73867   0.11918   0.00000  Uiso   1.00
C305   C     0.52798   0.92797   0.21424   0.00000  Uiso   1.00
C306   C     0.87518   0.73280   0.11493   0.00000  Uiso   1.00
C307   C     0.62481   0.93386   0.21841   0.00000  Uiso   1.00
C308   C     0.53780   0.68551   0.09578   0.00000  Uiso   1.00
C309   C     0.96221   0.98113   0.23769   0.00000  Uiso   1.00
C310   C     0.51834   0.73809   0.12044   0.00000  Uiso   1.00
C311   C     0.98166   0.92855   0.21298   0.00000  Uiso   1.00
C312   C     0.74785   0.67724   0.14232   0.00000  Uiso   1.00
C313   C     0.75215   0.98943   0.19101   0.00000  Uiso   1.00
C314   C     0.66471   0.83392   0.16774   0.00000  Uiso   1.00
C315   C     0.83528   0.83275   0.16559   0.00000  Uiso   1.00
C316   C     0.90842   0.87886   0.18735   0.00000  Uiso   1.00
Cu317  Cu    0.75500   0.83913   0.22813   0.00000  Uiso   1.00
Cu318  Cu    0.74499   0.82754   0.10521   0.00000  Uiso   1.00
F319   F     0.88597   0.92262   0.20886   0.00000  Uiso   1.00
F320   F     0.61403   0.74404   0.12446   0.00000  Uiso   1.00
H321   H     0.95288   0.70173   0.10037   0.00000  Uiso   1.00
H322   H     0.61576   0.96329   0.19125   0.00000  Uiso   1.00
H323   H     0.61912   0.94956   0.26758   0.00000  Uiso   1.00
H324   H     0.66113   0.92994   0.21622   0.00000  Uiso   1.00
H325   H     0.51165   0.98613   0.07998   0.00000  Uiso   1.00
H326   H     0.55685   0.68763   0.05544   0.00000  Uiso   1.00
H327   H     0.55955   0.67460   0.13254   0.00000  Uiso   1.00
H328   H     0.98836   0.68049   0.25355   0.00000  Uiso   1.00
H329   H     0.94048   0.99208   0.20094   0.00000  Uiso   1.00
H330   H     0.94313   0.97896   0.27799   0.00000  Uiso   1.00
H331   H     0.54712   0.96491   0.23308   0.00000  Uiso   1.00
H332   H     0.74397   0.98666   0.09541   0.00000  Uiso   1.00
H333   H     0.75603   0.68001   0.23792   0.00000  Uiso   1.00
H334   H     0.71505   0.79260   0.31623   0.00000  Uiso   1.00
H335   H     0.78495   0.87406   0.01710   0.00000  Uiso   1.00
H336   H     0.88418   0.70339   0.14213   0.00000  Uiso   1.00
H337   H     0.83886   0.73674   0.11703   0.00000  Uiso   1.00
H338   H     0.88092   0.71707   0.06579   0.00000  Uiso   1.00
N339   N     0.73744   0.81881   0.01284   0.00000  Uiso   1.00
N340   N     0.76255   0.84786   0.32049   0.00000  Uiso   1.00
O341   O     0.75325   0.76204   0.20659   0.00000  Uiso   1.00
O342   O     0.74674   0.90462   0.12674   0.00000  Uiso   1.00
O343   O     0.74480   0.75226   0.10279   0.00000  Uiso   1.00
O344   O     0.75520   0.91441   0.23055   0.00000  Uiso   1.00
O345   O     0.68935   0.83821   0.21857   0.00000  Uiso   1.00
O346   O     0.81064   0.82845   0.11476   0.00000  Uiso   1.00
O347   O     0.68090   0.82843   0.11477   0.00000  Uiso   1.00
O348   O     0.81910   0.83824   0.21857   0.00000  Uiso   1.00
C349   C     0.24843   0.06657   0.48442   0.00000  Uiso   1.00
C350   C     0.09159   0.12113   0.47934   0.00000  Uiso   1.00
C351   C     0.38323   0.16489   0.49669   0.00000  Uiso   1.00
C352   C     0.11677   0.16844   0.50332   0.00000  Uiso   1.00
C353   C     0.40339   0.11754   0.47325   0.00000  Uiso   1.00
C354   C     0.09661   0.21578   0.52677   0.00000  Uiso   1.00
C355   C     0.45047   0.11847   0.47473   0.00000  Uiso   1.00
C356   C     0.04953   0.21485   0.52532   0.00000  Uiso   1.00
C357   C     0.47642   0.16651   0.49927   0.00000  Uiso   1.00
C358   C     0.02358   0.16681   0.50079   0.00000  Uiso   1.00
C359   C     0.45527   0.21411   0.52228   0.00000  Uiso   1.00
C360   C     0.25157   0.26677   0.51557   0.00000  Uiso   1.00
C361   C     0.04473   0.11921   0.47777   0.00000  Uiso   1.00
C362   C     0.47202   0.07200   0.45251   0.00000  Uiso   1.00
C363   C     0.02798   0.26130   0.54757   0.00000  Uiso   1.00
C364   C     0.37518   0.06614   0.44826   0.00000  Uiso   1.00
C365   C     0.12481   0.26719   0.55174   0.00000  Uiso   1.00
C366   C     0.03780   0.01884   0.42911   0.00000  Uiso   1.00
C367   C     0.46221   0.31446   0.57103   0.00000  Uiso   1.00
C368   C     0.01834   0.07142   0.45377   0.00000  Uiso   1.00
C369   C     0.48166   0.26188   0.54632   0.00000  Uiso   1.00
C370   C     0.24785   0.01057   0.47565   0.00000  Uiso   1.00
C371   C     0.25215   0.32276   0.52435   0.00000  Uiso   1.00
C372   C     0.16471   0.16725   0.50107   0.00000  Uiso   1.00
C373   C     0.33528   0.16608   0.49893   0.00000  Uiso   1.00
C374   C     0.40842   0.21219   0.52068   0.00000  Uiso   1.00
Cu375  Cu    0.25500   0.17246   0.56146   0.00000  Uiso   1.00
Cu376  Cu    0.24499   0.16087   0.43854   0.00000  Uiso   1.00
F377   F     0.38597   0.25595   0.54220   0.00000  Uiso   1.00
F378   F     0.11403   0.07738   0.45780   0.00000  Uiso   1.00
H379   H     0.45288   0.03506   0.43370   0.00000  Uiso   1.00
H380   H     0.11576   0.29662   0.52459   0.00000  Uiso   1.00
H381   H     0.11912   0.28289   0.60091   0.00000  Uiso   1.00
H382   H     0.16113   0.26328   0.54956   0.00000  Uiso   1.00
H383   H     0.01165   0.31946   0.41332   0.00000  Uiso   1.00
H384   H     0.05685   0.02096   0.38877   0.00000  Uiso   1.00
H385   H     0.05955   0.00793   0.46588   0.00000  Uiso   1.00
H386   H     0.48836   0.01382   0.58688   0.00000  Uiso   1.00
H387   H     0.44048   0.32541   0.53427   0.00000  Uiso   1.00
H388   H     0.44313   0.31230   0.61133   0.00000  Uiso   1.00
H389   H     0.04712   0.29824   0.56641   0.00000  Uiso   1.00
H390   H     0.24397   0.31999   0.42875   0.00000  Uiso   1.00
H391   H     0.25603   0.01334   0.57125   0.00000  Uiso   1.00
H392   H     0.21505   0.12594   0.64957   0.00000  Uiso   1.00
H393   H     0.28495   0.20740   0.35043   0.00000  Uiso   1.00
H394   H     0.38418   0.03672   0.47546   0.00000  Uiso   1.00
H395   H     0.33886   0.07007   0.45037   0.00000  Uiso   1.00
H396   H     0.38092   0.05040   0.39912   0.00000  Uiso   1.00
N397   N     0.23744   0.15214   0.34617   0.00000  Uiso   1.00
N398   N     0.26255   0.18119   0.65383   0.00000  Uiso   1.00
O399   O     0.25325   0.09538   0.53992   0.00000  Uiso   1.00
O400   O     0.24674   0.23796   0.46008   0.00000  Uiso   1.00
O401   O     0.24480   0.08559   0.43612   0.00000  Uiso   1.00
O402   O     0.25520   0.24774   0.56388   0.00000  Uiso   1.00
O403   O     0.18935   0.17155   0.55191   0.00000  Uiso   1.00
O404   O     0.31064   0.16179   0.44809   0.00000  Uiso   1.00
O405   O     0.18090   0.16176   0.44810   0.00000  Uiso   1.00
O406   O     0.31910   0.17157   0.55190   0.00000  Uiso   1.00
C407   C     0.74843   0.06657   0.48442   0.00000  Uiso   1.00
C408   C     0.59159   0.12113   0.47934   0.00000  Uiso   1.00
C409   C     0.88323   0.16489   0.49669   0.00000  Uiso   1.00
C410   C     0.61677   0.16844   0.50332   0.00000  Uiso   1.00
C411   C     0.90339   0.11754   0.47325   0.00000  Uiso   1.00
C412   C     0.59661   0.21578   0.52677   0.00000  Uiso   1.00
C413   C     0.95047   0.11847   0.47473   0.00000  Uiso   1.00
C414   C     0.54953   0.21485   0.52532   0.00000  Uiso   1.00
C415   C     0.97642   0.16651   0.49927   0.00000  Uiso   1.00
C416   C     0.52358   0.16681   0.50079   0.00000  Uiso   1.00
C417   C     0.95527   0.21411   0.52228   0.00000  Uiso   1.00
C418   C     0.75157   0.26677   0.51557   0.00000  Uiso   1.00
C419   C     0.54473   0.11921   0.47777   0.00000  Uiso   1.00
C420   C     0.97202   0.07200   0.45251   0.00000  Uiso   1.00
C421   C     0.52798   0.26130   0.54757   0.00000  Uiso   1.00
C422   C     0.87518   0.06614   0.44826   0.00000  Uiso   1.00
C423   C     0.62481   0.26719   0.55174   0.00000  Uiso   1.00
C424   C     0.53780   0.01884   0.42911   0.00000  Uiso   1.00
C425   C     0.96221   0.31446   0.57103   0.00000  Uiso   1.00
C426   C     0.51834   0.07142   0.45377   0.00000  Uiso   1.00
C427   C     0.98166   0.26188   0.54632   0.00000  Uiso   1.00
C428   C     0.74785   0.01057   0.47565   0.00000  Uiso   1.00
C429   C     0.75215   0.32276   0.52435   0.00000  Uiso   1.00
C430   C     0.66471   0.16725   0.50107   0.00000  Uiso   1.00
C431   C     0.83528   0.16608   0.49893   0.00000  Uiso   1.00
C432   C     0.90842   0.21219   0.52068   0.00000  Uiso   1.00
Cu433  Cu    0.75500   0.17246   0.56146   0.00000  Uiso   1.00
Cu434  Cu    0.74499   0.16087   0.43854   0.00000  Uiso   1.00
F435   F     0.88597   0.25595   0.54220   0.00000  Uiso   1.00
F436   F     0.61403   0.07738   0.45780   0.00000  Uiso   1.00
H437   H     0.95288   0.03506   0.43370   0.00000  Uiso   1.00
H438   H     0.61576   0.29662   0.52459   0.00000  Uiso   1.00
H439   H     0.61912   0.28289   0.60091   0.00000  Uiso   1.00
H440   H     0.66113   0.26328   0.54956   0.00000  Uiso   1.00
H441   H     0.51165   0.31946   0.41332   0.00000  Uiso   1.00
H442   H     0.55685   0.02096   0.38877   0.00000  Uiso   1.00
H443   H     0.55955   0.00793   0.46588   0.00000  Uiso   1.00
H444   H     0.98836   0.01382   0.58688   0.00000  Uiso   1.00
H445   H     0.94048   0.32541   0.53427   0.00000  Uiso   1.00
H446   H     0.94313   0.31230   0.61133   0.00000  Uiso   1.00
H447   H     0.54712   0.29824   0.56641   0.00000  Uiso   1.00
H448   H     0.74397   0.31999   0.42875   0.00000  Uiso   1.00
H449   H     0.75603   0.01334   0.57125   0.00000  Uiso   1.00
H450   H     0.71505   0.12594   0.64957   0.00000  Uiso   1.00
H451   H     0.78495   0.20740   0.35043   0.00000  Uiso   1.00
H452   H     0.88418   0.03672   0.47546   0.00000  Uiso   1.00
H453   H     0.83886   0.07007   0.45037   0.00000  Uiso   1.00
H454   H     0.88092   0.05040   0.39912   0.00000  Uiso   1.00
N455   N     0.73744   0.15214   0.34617   0.00000  Uiso   1.00
N456   N     0.76255   0.18119   0.65383   0.00000  Uiso   1.00
O457   O     0.75325   0.09538   0.53992   0.00000  Uiso   1.00
O458   O     0.74674   0.23796   0.46008   0.00000  Uiso   1.00
O459   O     0.74480   0.08559   0.43612   0.00000  Uiso   1.00
O460   O     0.75520   0.24774   0.56388   0.00000  Uiso   1.00
O461   O     0.68935   0.17155   0.55191   0.00000  Uiso   1.00
O462   O     0.81064   0.16179   0.44809   0.00000  Uiso   1.00
O463   O     0.68090   0.16176   0.44810   0.00000  Uiso   1.00
O464   O     0.81910   0.17157   0.55190   0.00000  Uiso   1.00
C465   C     0.24843   0.39990   0.48442   0.00000  Uiso   1.00
C466   C     0.09159   0.45447   0.47934   0.00000  Uiso   1.00
C467   C     0.38323   0.49822   0.49669   0.00000  Uiso   1.00
C468   C     0.11677   0.50177   0.50332   0.00000  Uiso   1.00
C469   C     0.40339   0.45088   0.47325   0.00000  Uiso   1.00
C470   C     0.09661   0.54911   0.52677   0.00000  Uiso   1.00
C471   C     0.45047   0.45180   0.47473   0.00000  Uiso   1.00
C472   C     0.04953   0.54818   0.52532   0.00000  Uiso   1.00
C473   C     0.47642   0.49984   0.49927   0.00000  Uiso   1.00
C474   C     0.02358   0.50014   0.50079   0.00000  Uiso   1.00
C475   C     0.45527   0.54744   0.52228   0.00000  Uiso   1.00
C476   C     0.25157   0.60010   0.51557   0.00000  Uiso   1.00
C477   C     0.04473   0.45254   0.47777   0.00000  Uiso   1.00
C478   C     0.47202   0.40534   0.45251   0.00000  Uiso   1.00
C479   C     0.02798   0.59464   0.54757   0.00000  Uiso   1.00
C480   C     0.37518   0.39947   0.44826   0.00000  Uiso   1.00
C481   C     0.12481   0.60053   0.55174   0.00000  Uiso   1.00
C482   C     0.03780   0.35217   0.42911   0.00000  Uiso   1.00
C483   C     0.46221   0.64779   0.57103   0.00000  Uiso   1.00
C484   C     0.01834   0.40476   0.45377   0.00000  Uiso   1.00
C485   C     0.48166   0.59522   0.54632   0.00000  Uiso   1.00
C486   C     0.24785   0.34391   0.47565   0.00000  Uiso   1.00
C487   C     0.25215   0.65609   0.52435   0.00000  Uiso   1.00
C488   C     0.16471   0.50058   0.50107   0.00000  Uiso   1.00
C489   C     0.33528   0.49941   0.49893   0.00000  Uiso   1.00
C490   C     0.40842   0.54552   0.52068   0.00000  Uiso   1.00
Cu491  Cu    0.25500   0.50579   0.56146   0.00000  Uiso   1.00
Cu492  Cu    0.24499   0.49421   0.43854   0.00000  Uiso   1.00
F493   F     0.38597   0.58928   0.54220   0.00000  Uiso   1.00
F494   F     0.11403   0.41071   0.45780   0.00000  Uiso   1.00
H495   H     0.45288   0.36839   0.43370   0.00000  Uiso   1.00
H496   H     0.11576   0.62995   0.52459   0.00000  Uiso   1.00
H497   H     0.11912   0.61623   0.60091   0.00000  Uiso   1.00
H498   H     0.16113   0.59661   0.54956   0.00000  Uiso   1.00
H499   H     0.01165   0.65280   0.41332   0.00000  Uiso   1.00
H500   H     0.05685   0.35429   0.38877   0.00000  Uiso   1.00
H501   H     0.05955   0.34126   0.46588   0.00000  Uiso   1.00
H502   H     0.48836   0.34715   0.58688   0.00000  Uiso   1.00
H503   H     0.44048   0.65875   0.53427   0.00000  Uiso   1.00
H504   H     0.44313   0.64563   0.61133   0.00000  Uiso   1.00
H505   H     0.04712   0.63158   0.56641   0.00000  Uiso   1.00
H506   H     0.24397   0.65332   0.42875   0.00000  Uiso   1.00
H507   H     0.25603   0.34668   0.57125   0.00000  Uiso   1.00
H508   H     0.21505   0.45927   0.64957   0.00000  Uiso   1.00
H509   H     0.28495   0.54073   0.35043   0.00000  Uiso   1.00
H510   H     0.38418   0.37006   0.47546   0.00000  Uiso   1.00
H511   H     0.33886   0.40340   0.45037   0.00000  Uiso   1.00
H512   H     0.38092   0.38374   0.39912   0.00000  Uiso   1.00
N513   N     0.23744   0.48547   0.34617   0.00000  Uiso   1.00
N514   N     0.26255   0.51453   0.65383   0.00000  Uiso   1.00
O515   O     0.25325   0.42871   0.53992   0.00000  Uiso   1.00
O516   O     0.24674   0.57129   0.46008   0.00000  Uiso   1.00
O517   O     0.24480   0.41892   0.43612   0.00000  Uiso   1.00
O518   O     0.25520   0.58108   0.56388   0.00000  Uiso   1.00
O519   O     0.18935   0.50488   0.55191   0.00000  Uiso   1.00
O520   O     0.31064   0.49512   0.44809   0.00000  Uiso   1.00
O521   O     0.18090   0.49510   0.44810   0.00000  Uiso   1.00
O522   O     0.31910   0.50490   0.55190   0.00000  Uiso   1.00
C523   C     0.74843   0.39990   0.48442   0.00000  Uiso   1.00
C524   C     0.59159   0.45447   0.47934   0.00000  Uiso   1.00
C525   C     0.88323   0.49822   0.49669   0.00000  Uiso   1.00
C526   C     0.61677   0.50177   0.50332   0.00000  Uiso   1.00
C527   C     0.90339   0.45088   0.47325   0.00000  Uiso   1.00
C528   C     0.59661   0.54911   0.52677   0.00000  Uiso   1.00
C529   C     0.95047   0.45180   0.47473   0.00000  Uiso   1.00
C530   C     0.54953   0.54818   0.52532   0.00000  Uiso   1.00
C531   C     0.97642   0.49984   0.49927   0.00000  Uiso   1.00
C532   C     0.52358   0.50014   0.50079   0.00000  Uiso   1.00
C533   C     0.95527   0.54744   0.52228   0.00000  Uiso   1.00
C534   C     0.75157   0.60010   0.51557   0.00000  Uiso   1.00
C535   C     0.54473   0.45254   0.47777   0.00000  Uiso   1.00
C536   C     0.97202   0.40534   0.45251   0.00000  Uiso   1.00
C537   C     0.52798   0.59464   0.54757   0.00000  Uiso   1.00
C538   C     0.87518   0.39947   0.44826   0.00000  Uiso   1.00
C539   C     0.62481   0.60053   0.55174   0.00000  Uiso   1.00
C540   C     0.53780   0.35217   0.42911   0.00000  Uiso   1.00
C541   C     0.96221   0.64779   0.57103   0.00000  Uiso   1.00
C542   C     0.51834   0.40476   0.45377   0.00000  Uiso   1.00
C543   C     0.98166   0.59522   0.54632   0.00000  Uiso   1.00
C544   C     0.74785   0.34391   0.47565   0.00000  Uiso   1.00
C545   C     0.75215   0.65609   0.52435   0.00000  Uiso   1.00
C546   C     0.66471   0.50058   0.50107   0.00000  Uiso   1.00
C547   C     0.83528   0.49941   0.49893   0.00000  Uiso   1.00
C548   C     0.90842   0.54552   0.52068   0.00000  Uiso   1.00
Cu549  Cu    0.75500   0.50579   0.56146   0.00000  Uiso   1.00
Cu550  Cu    0.74499   0.49421   0.43854   0.00000  Uiso   1.00
F551   F     0.88597   0.58928   0.54220   0.00000  Uiso   1.00
F552   F     0.61403   0.41071   0.45780   0.00000  Uiso   1.00
H553   H     0.95288   0.36839   0.43370   0.00000  Uiso   1.00
H554   H     0.61576   0.62995   0.52459   0.00000  Uiso   1.00
H555   H     0.61912   0.61623   0.60091   0.00000  Uiso   1.00
H556   H     0.66113   0.59661   0.54956   0.00000  Uiso   1.00
H557   H     0.51165   0.65280   0.41332   0.00000  Uiso   1.00
H558   H     0.55685   0.35429   0.38877   0.00000  Uiso   1.00
H559   H     0.55955   0.34126   0.46588   0.00000  Uiso   1.00
H560   H     0.98836   0.34715   0.58688   0.00000  Uiso   1.00
H561   H     0.94048   0.65875   0.53427   0.00000  Uiso   1.00
H562   H     0.94313   0.64563   0.61133   0.00000  Uiso   1.00
H563   H     0.54712   0.63158   0.56641   0.00000  Uiso   1.00
H564   H     0.74397   0.65332   0.42875   0.00000  Uiso   1.00
H565   H     0.75603   0.34668   0.57125   0.00000  Uiso   1.00
H566   H     0.71505   0.45927   0.64957   0.00000  Uiso   1.00
H567   H     0.78495   0.54073   0.35043   0.00000  Uiso   1.00
H568   H     0.88418   0.37006   0.47546   0.00000  Uiso   1.00
H569   H     0.83886   0.40340   0.45037   0.00000  Uiso   1.00
H570   H     0.88092   0.38374   0.39912   0.00000  Uiso   1.00
N571   N     0.73744   0.48547   0.34617   0.00000  Uiso   1.00
N572   N     0.76255   0.51453   0.65383   0.00000  Uiso   1.00
O573   O     0.75325   0.42871   0.53992   0.00000  Uiso   1.00
O574   O     0.74674   0.57129   0.46008   0.00000  Uiso   1.00
O575   O     0.74480   0.41892   0.43612   0.00000  Uiso   1.00
O576   O     0.75520   0.58108   0.56388   0.00000  Uiso   1.00
O577   O     0.68935   0.50488   0.55191   0.00000  Uiso   1.00
O578   O     0.81064   0.49512   0.44809   0.00000  Uiso   1.00
O579   O     0.68090   0.49510   0.44810   0.00000  Uiso   1.00
O580   O     0.81910   0.50490   0.55190   0.00000  Uiso   1.00
C581   C     0.24843   0.73323   0.48442   0.00000  Uiso   1.00
C582   C     0.09159   0.78780   0.47934   0.00000  Uiso   1.00
C583   C     0.38323   0.83156   0.49669   0.00000  Uiso   1.00
C584   C     0.11677   0.83510   0.50332   0.00000  Uiso   1.00
C585   C     0.40339   0.78421   0.47325   0.00000  Uiso   1.00
C586   C     0.09661   0.88245   0.52677   0.00000  Uiso   1.00
C587   C     0.45047   0.78514   0.47473   0.00000  Uiso   1.00
C588   C     0.04953   0.88151   0.52532   0.00000  Uiso   1.00
C589   C     0.47642   0.83317   0.49927   0.00000  Uiso   1.00
C590   C     0.02358   0.83348   0.50079   0.00000  Uiso   1.00
C591   C     0.45527   0.88078   0.52228   0.00000  Uiso   1.00
C592   C     0.25157   0.93343   0.51557   0.00000  Uiso   1.00
C593   C     0.04473   0.78587   0.47777   0.00000  Uiso   1.00
C594   C     0.47202   0.73867   0.45251   0.00000  Uiso   1.00
C595   C     0.02798   0.92797   0.54757   0.00000  Uiso   1.00
C596   C     0.37518   0.73280   0.44826   0.00000  Uiso   1.00
C597   C     0.12481   0.93386   0.55174   0.00000  Uiso   1.00
C598   C     0.03780   0.68551   0.42911   0.00000  Uiso   1.00
C599   C     0.46221   0.98113   0.57103   0.00000  Uiso   1.00
C600   C     0.01834   0.73809   0.45377   0.00000  Uiso   1.00
C601   C     0.48166   0.92855   0.54632   0.00000  Uiso   1.00
C602   C     0.24785   0.67724   0.47565   0.00000  Uiso   1.00
C603   C     0.25215   0.98943   0.52435   0.00000  Uiso   1.00
C604   C     0.16471   0.83392   0.50107   0.00000  Uiso   1.00
C605   C     0.33528   0.83275   0.49893   0.00000  Uiso   1.00
C606   C     0.40842   0.87886   0.52068   0.00000  Uiso   1.00
Cu607  Cu    0.25500   0.83913   0.56146   0.00000  Uiso   1.00
Cu608  Cu    0.24499   0.82754   0.43854   0.00000  Uiso   1.00
F609   F     0.38597   0.92262   0.54220   0.00000  Uiso   1.00
F610   F     0.11403   0.74404   0.45780   0.00000  Uiso   1.00
H611   H     0.45288   0.70173   0.43370   0.00000  Uiso   1.00
H612   H     0.11576   0.96329   0.52459   0.00000  Uiso   1.00
H613   H     0.11912   0.94956   0.60091   0.00000  Uiso   1.00
H614   H     0.16113   0.92994   0.54956   0.00000  Uiso   1.00
H615   H     0.01165   0.98613   0.41332   0.00000  Uiso   1.00
H616   H     0.05685   0.68763   0.38877   0.00000  Uiso   1.00
H617   H     0.05955   0.67460   0.46588   0.00000  Uiso   1.00
H618   H     0.48836   0.68049   0.58688   0.00000  Uiso   1.00
H619   H     0.44048   0.99208   0.53427   0.00000  Uiso   1.00
H620   H     0.44313   0.97896   0.61133   0.00000  Uiso   1.00
H621   H     0.04712   0.96491   0.56641   0.00000  Uiso   1.00
H622   H     0.24397   0.98666   0.42875   0.00000  Uiso   1.00
H623   H     0.25603   0.68001   0.57125   0.00000  Uiso   1.00
H624   H     0.21505   0.79260   0.64957   0.00000  Uiso   1.00
H625   H     0.28495   0.87406   0.35043   0.00000  Uiso   1.00
H626   H     0.38418   0.70339   0.47546   0.00000  Uiso   1.00
H627   H     0.33886   0.73674   0.45037   0.00000  Uiso   1.00
H628   H     0.38092   0.71707   0.39912   0.00000  Uiso   1.00
N629   N     0.23744   0.81881   0.34617   0.00000  Uiso   1.00
N630   N     0.26255   0.84786   0.65383   0.00000  Uiso   1.00
O631   O     0.25325   0.76204   0.53992   0.00000  Uiso   1.00
O632   O     0.24674   0.90462   0.46008   0.00000  Uiso   1.00
O633   O     0.24480   0.75226   0.43612   0.00000  Uiso   1.00
O634   O     0.25520   0.91441   0.56388   0.00000  Uiso   1.00
O635   O     0.18935   0.83821   0.55191   0.00000  Uiso   1.00
O636   O     0.31064   0.82845   0.44809   0.00000  Uiso   1.00
O637   O     0.18090   0.82843   0.44810   0.00000  Uiso   1.00
O638   O     0.31910   0.83824   0.55190   0.00000  Uiso   1.00
C639   C     0.74843   0.73323   0.48442   0.00000  Uiso   1.00
C640   C     0.59159   0.78780   0.47934   0.00000  Uiso   1.00
C641   C     0.88323   0.83156   0.49669   0.00000  Uiso   1.00
C642   C     0.61677   0.83510   0.50332   0.00000  Uiso   1.00
C643   C     0.90339   0.78421   0.47325   0.00000  Uiso   1.00
C644   C     0.59661   0.88245   0.52677   0.00000  Uiso   1.00
C645   C     0.95047   0.78514   0.47473   0.00000  Uiso   1.00
C646   C     0.54953   0.88151   0.52532   0.00000  Uiso   1.00
C647   C     0.97642   0.83317   0.49927   0.00000  Uiso   1.00
C648   C     0.52358   0.83348   0.50079   0.00000  Uiso   1.00
C649   C     0.95527   0.88078   0.52228   0.00000  Uiso   1.00
C650   C     0.75157   0.93343   0.51557   0.00000  Uiso   1.00
C651   C     0.54473   0.78587   0.47777   0.00000  Uiso   1.00
C652   C     0.97202   0.73867   0.45251   0.00000  Uiso   1.00
C653   C     0.52798   0.92797   0.54757   0.00000  Uiso   1.00
C654   C     0.87518   0.73280   0.44826   0.00000  Uiso   1.00
C655   C     0.62481   0.93386   0.55174   0.00000  Uiso   1.00
C656   C     0.53780   0.68551   0.42911   0.00000  Uiso   1.00
C657   C     0.96221   0.98113   0.57103   0.00000  Uiso   1.00
C658   C     0.51834   0.73809   0.45377   0.00000  Uiso   1.00
C659   C     0.98166   0.92855   0.54632   0.00000  Uiso   1.00
C660   C     0.74785   0.67724   0.47565   0.00000  Uiso   1.00
C661   C     0.75215   0.98943   0.52435   0.00000  Uiso   1.00
C662   C     0.66471   0.83392   0.50107   0.00000  Uiso   1.00
C663   C     0.83528   0.83275   0.49893   0.00000  Uiso   1.00
C664   C     0.90842   0.87886   0.52068   0.00000  Uiso   1.00
Cu665  Cu    0.75500   0.83913   0.56146   0.00000  Uiso   1.00
Cu666  Cu    0.74499   0.82754   0.43854   0.00000  Uiso   1.00
F667   F     0.88597   0.92262   0.54220   0.00000  Uiso   1.00
F668   F     0.61403   0.74404   0.45780   0.00000  Uiso   1.00
H669   H     0.95288   0.70173   0.43370   0.00000  Uiso   1.00
H670   H     0.61576   0.96329   0.52459   0.00000  Uiso   1.00
H671   H     0.61912   0.94956   0.60091   0.00000  Uiso   1.00
H672   H     0.66113   0.92994   0.54956   0.00000  Uiso   1.00
H673   H     0.51165   0.98613   0.41332   0.00000  Uiso   1.00
H674   H     0.55685   0.68763   0.38877   0.00000  Uiso   1.00
H675   H     0.55955   0.67460   0.46588   0.00000  Uiso   1.00
H676   H     0.98836   0.68049   0.58688   0.00000  Uiso   1.00
H677   H     0.94048   0.99208   0.53427   0.00000  Uiso   1.00
H678   H     0.94313   0.97896   0.61133   0.00000  Uiso   1.00
H679   H     0.54712   0.96491   0.56641   0.00000  Uiso   1.00
H680   H     0.74397   0.98666   0.42875   0.00000  Uiso   1.00
H681   H     0.75603   0.68001   0.57125   0.00000  Uiso   1.00
H682   H     0.71505   0.79260   0.64957   0.00000  Uiso   1.00
H683   H     0.78495   0.87406   0.35043   0.00000  Uiso   1.00
H684   H     0.88418   0.70339   0.47546   0.00000  Uiso   1.00
H685   H     0.83886   0.73674   0.45037   0.00000  Uiso   1.00
H686   H     0.88092   0.71707   0.39912   0.00000  Uiso   1.00
N687   N     0.73744   0.81881   0.34617   0.00000  Uiso   1.00
N688   N     0.76255   0.84786   0.65383   0.00000  Uiso   1.00
O689   O     0.75325   0.76204   0.53992   0.00000  Uiso   1.00
O690   O     0.74674   0.90462   0.46008   0.00000  Uiso   1.00
O691   O     0.74480   0.75226   0.43612   0.00000  Uiso   1.00
O692   O     0.75520   0.91441   0.56388   0.00000  Uiso   1.00
O693   O     0.68935   0.83821   0.55191   0.00000  Uiso   1.00
O694   O     0.81064   0.82845   0.44809   0.00000  Uiso   1.00
O695   O     0.68090   0.82843   0.44810   0.00000  Uiso   1.00
O696   O     0.81910   0.83824   0.55190   0.00000  Uiso   1.00
C697   C     0.24843   0.06657   0.81776   0.00000  Uiso   1.00
C698   C     0.09159   0.12113   0.81267   0.00000  Uiso   1.00
C699   C     0.38323   0.16489   0.83002   0.00000  Uiso   1.00
C700   C     0.11677   0.16844   0.83665   0.00000  Uiso   1.00
C701   C     0.40339   0.11754   0.80659   0.00000  Uiso   1.00
C702   C     0.09661   0.21578   0.86010   0.00000  Uiso   1.00
C703   C     0.45047   0.11847   0.80807   0.00000  Uiso   1.00
C704   C     0.04953   0.21485   0.85865   0.00000  Uiso   1.00
C705   C     0.47642   0.16651   0.83260   0.00000  Uiso   1.00
C706   C     0.02358   0.16681   0.83412   0.00000  Uiso   1.00
C707   C     0.45527   0.21411   0.85561   0.00000  Uiso   1.00
C708   C     0.25157   0.26677   0.84891   0.00000  Uiso   1.00
C709   C     0.04473   0.11921   0.81110   0.00000  Uiso   1.00
C710   C     0.47202   0.07200   0.78585   0.00000  Uiso   1.00
C711   C     0.02798   0.26130   0.88091   0.00000  Uiso   1.00
C712   C     0.37518   0.06614   0.78160   0.00000  Uiso   1.00
C713   C     0.12481   0.26719   0.88508   0.00000  Uiso   1.00
C714   C     0.03780   0.01884   0.76244   0.00000  Uiso   1.00
C715   C     0.46221   0.31446   0.90436   0.00000  Uiso   1.00
C716   C     0.01834   0.07142   0.78710   0.00000  Uiso   1.00
C717   C     0.48166   0.26188   0.87965   0.00000  Uiso   1.00
C718   C     0.24785   0.01057   0.80899   0.00000  Uiso   1.00
C719   C     0.25215   0.32276   0.85768   0.00000  Uiso   1.00
C720   C     0.16471   0.16725   0.83440   0.00000  Uiso   1.00
C721   C     0.33528   0.16608   0.83226   0.00000  Uiso   1.00
C722   C     0.40842   0.21219   0.85401   0.00000  Uiso   1.00
Cu723  Cu    0.25500   0.17246   0.89479   0.00000  Uiso   1.00
Cu724  Cu    0.24499   0.16087   0.77187   0.00000  Uiso   1.00
F725   F     0.38597   0.25595   0.87553   0.00000  Uiso   1.00
F726   F     0.11403   0.07738   0.79113   0.00000  Uiso   1.00
H727   H     0.45288   0.03506   0.76703   0.00000  Uiso   1.00
H728   H     0.11576   0.29662   0.85792   0.00000  Uiso   1.00
H729   H     0.11912   0.28289   0.93425   0.00000  Uiso   1.00
H730   H     0.16113   0.26328   0.88289   0.00000  Uiso   1.00
H731   H     0.01165   0.31946   0.74665   0.00000  Uiso   1.00
H732   H     0.05685   0.02096   0.72211   0.00000  Uiso   1.00
H733   H     0.05955   0.00793   0.79921   0.00000  Uiso   1.00
H734   H     0.48836   0.01382   0.92022   0.00000  Uiso   1.00
H735   H     0.44048   0.32541   0.86760   0.00000  Uiso   1.00
H736   H     0.44313   0.31230   0.94466   0.00000  Uiso   1.00
H737   H     0.04712   0.29824   0.89975   0.00000  Uiso   1.00
H738   H     0.24397   0.31999   0.76208   0.00000  Uiso   1.00
H739   H     0.25603   0.01334   0.90458   0.00000  Uiso   1.00
H740   H     0.21505   0.12594   0.98290   0.00000  Uiso   1.00
H741   H     0.28495   0.20740   0.68377   0.00000  Uiso   1.00
H742   H     0.38418   0.03672   0.80880   0.00000  Uiso   1.00
H743   H     0.33886   0.07007   0.78370   0.00000  Uiso   1.00
H744   H     0.38092   0.05040   0.73245   0.00000  Uiso   1.00
N745   N     0.23744   0.15214   0.67951   0.00000  Uiso   1.00
N746   N     0.26255   0.18119   0.98716   0.00000  Uiso   1.00
O747   O     0.25325   0.09538   0.87326   0.00000  Uiso   1.00
O748   O     0.24674   0.23796   0.79341   0.00000  Uiso   1.00
O749   O     0.24480   0.08559   0.76945   0.00000  Uiso   1.00
O750   O     0.25520   0.24774   0.89721   0.00000  Uiso   1.00
O751   O     0.18935   0.17155   0.88524   0.00000  Uiso   1.00
O752   O     0.31064   0.16179   0.78143   0.00000  Uiso   1.00
O753   O     0.18090   0.16176   0.78143   0.00000  Uiso   1.00
O754   O     0.31910   0.17157   0.88523   0.00000  Uiso   1.00
C755   C     0.74843   0.06657   0.81776   0.00000  Uiso   1.00
C756   C     0.59159   0.12113   0.81267   0.00000  Uiso   1.00
C757   C     0.88323   0.16489   0.83002   0.00000  Uiso   1.00
C758   C     0.61677   0.16844   0.83665   0.00000  Uiso   1.00
C759   C     0.90339   0.11754   0.80659   0.00000  Uiso   1.00
C760   C     0.59661   0.21578   0.86010   0.00000  Uiso   1.00
C761   C     0.95047   0.11847   0.80807   0.00000  Uiso   1.00
C762   C     0.54953   0.21485   0.85865   0.00000  Uiso   1.00
C763   C     0.97642   0.16651   0.83260   0.00000  Uiso   1.00
C764   C     0.52358   0.16681   0.83412   0.00000  Uiso   1.00
C765   C     0.95527   0.21411   0.85561   0.00000  Uiso   1.00
C766   C     0.75157   0.26677   0.84891   0.00000  Uiso   1.00
C767   C     0.54473   0.11921   0.81110   0.00000  Uiso   1.00
C768   C     0.97202   0.07200   0.78585   0.00000  Uiso   1.00
C769   C     0.52798   0.26130   0.88091   0.00000  Uiso   1.00
C770   C     0.87518   0.06614   0.78160   0.00000  Uiso   1.00
C771   C     0.62481   0.26719   0.88508   0.00000  Uiso   1.00
C772   C     0.53780   0.01884   0.76244   0.00000  Uiso   1.00
C773   C     0.96221   0.31446   0.90436   0.00000  Uiso   1.00
C774   C     0.51834   0.07142   0.78710   0.00000  Uiso   1.00
C775   C     0.98166   0.26188   0.87965   0.00000  Uiso   1.00
C776   C     0.74785   0.01057   0.80899   0.00000  Uiso   1.00
C777   C     0.75215   0.32276   0.85768   0.00000  Uiso   1.00
C778   C     0.66471   0.16725   0.83440   0.00000  Uiso   1.00
C779   C     0.83528   0.16608   0.83226   0.00000  Uiso   1.00
C780   C     0.90842   0.21219   0.85401   0.00000  Uiso   1.00
Cu781  Cu    0.75500   0.17246   0.89479   0.00000  Uiso   1.00
Cu782  Cu    0.74499   0.16087   0.77187   0.00000  Uiso   1.00
F783   F     0.88597   0.25595   0.87553   0.00000  Uiso   1.00
F784   F     0.61403   0.07738   0.79113   0.00000  Uiso   1.00
H785   H     0.95288   0.03506   0.76703   0.00000  Uiso   1.00
H786   H     0.61576   0.29662   0.85792   0.00000  Uiso   1.00
H787   H     0.61912   0.28289   0.93425   0.00000  Uiso   1.00
H788   H     0.66113   0.26328   0.88289   0.00000  Uiso   1.00
H789   H     0.51165   0.31946   0.74665   0.00000  Uiso   1.00
H790   H     0.55685   0.02096   0.72211   0.00000  Uiso   1.00
H791   H     0.55955   0.00793   0.79921   0.00000  Uiso   1.00
H792   H     0.98836   0.01382   0.92022   0.00000  Uiso   1.00
H793   H     0.94048   0.32541   0.86760   0.00000  Uiso   1.00
H794   H     0.94313   0.31230   0.94466   0.00000  Uiso   1.00
H795   H     0.54712   0.29824   0.89975   0.00000  Uiso   1.00
H796   H     0.74397   0.31999   0.76208   0.00000  Uiso   1.00
H797   H     0.75603   0.01334   0.90458   0.00000  Uiso   1.00
H798   H     0.71505   0.12594   0.98290   0.00000  Uiso   1.00
H799   H     0.78495   0.20740   0.68377   0.00000  Uiso   1.00
H800   H     0.88418   0.03672   0.80880   0.00000  Uiso   1.00
H801   H     0.83886   0.07007   0.78370   0.00000  Uiso   1.00
H802   H     0.88092   0.05040   0.73245   0.00000  Uiso   1.00
N803   N     0.73744   0.15214   0.67951   0.00000  Uiso   1.00
N804   N     0.76255   0.18119   0.98716   0.00000  Uiso   1.00
O805   O     0.75325   0.09538   0.87326   0.00000  Uiso   1.00
O806   O     0.74674   0.23796   0.79341   0.00000  Uiso   1.00
O807   O     0.74480   0.08559   0.76945   0.00000  Uiso   1.00
O808   O     0.75520   0.24774   0.89721   0.00000  Uiso   1.00
O809   O     0.68935   0.17155   0.88524   0.00000  Uiso   1.00
O810   O     0.81064   0.16179   0.78143   0.00000  Uiso   1.00
O811   O     0.68090   0.16176   0.78143   0.00000  Uiso   1.00
O812   O     0.81910   0.17157   0.88523   0.00000  Uiso   1.00
C813   C     0.24843   0.39990   0.81776   0.00000  Uiso   1.00
C814   C     0.09159   0.45447   0.81267   0.00000  Uiso   1.00
C815   C     0.38323   0.49822   0.83002   0.00000  Uiso   1.00
C816   C     0.11677   0.50177   0.83665   0.00000  Uiso   1.00
C817   C     0.40339   0.45088   0.80659   0.00000  Uiso   1.00
C818   C     0.09661   0.54911   0.86010   0.00000  Uiso   1.00
C819   C     0.45047   0.45180   0.80807   0.00000  Uiso   1.00
C820   C     0.04953   0.54818   0.85865   0.00000  Uiso   1.00
C821   C     0.47642   0.49984   0.83260   0.00000  Uiso   1.00
C822   C     0.02358   0.50014   0.83412   0.00000  Uiso   1.00
C823   C     0.45527   0.54744   0.85561   0.00000  Uiso   1.00
C824   C     0.25157   0.60010   0.84891   0.00000  Uiso   1.00
C825   C     0.04473   0.45254   0.81110   0.00000  Uiso   1.00
C826   C     0.47202   0.40534   0.78585   0.00000  Uiso   1.00
C827   C     0.02798   0.59464   0.88091   0.00000  Uiso   1.00
C828   C     0.37518   0.39947   0.78160   0.00000  Uiso   1.00
C829   C     0.12481   0.60053   0.88508   0.00000  Uiso   1.00
C830   C     0.03780   0.35217   0.76244   0.00000  Uiso   1.00
C831   C     0.46221   0.64779   0.90436   0.00000  Uiso   1.00
C832   C     0.01834   0.40476   0.78710   0.00000  Uiso   1.00
C833   C     0.48166   0.59522   0.87965   0.00000  Uiso   1.00
C834   C     0.24785   0.34391   0.80899   0.00000  Uiso   1.00
C835   C     0.25215   0.65609   0.85768   0.00000  Uiso   1.00
C836   C     0.16471   0.50058   0.83440   0.00000  Uiso   1.00
C837   C     0.33528   0.49941   0.83226   0.00000  Uiso   1.00
C838   C     0.40842   0.54552   0.85401   0.00000  Uiso   1.00
Cu839  Cu    0.25500   0.50579   0.89479   0.00000  Uiso   1.00
Cu840  Cu    0.24499   0.49421   0.77187   0.00000  Uiso   1.00
F841   F     0.38597   0.58928   0.87553   0.00000  Uiso   1.00
F842   F     0.11403   0.41071   0.79113   0.00000  Uiso   1.00
H843   H     0.45288   0.36839   0.76703   0.00000  Uiso   1.00
H844   H     0.11576   0.62995   0.85792   0.00000  Uiso   1.00
H845   H     0.11912   0.61623   0.93425   0.00000  Uiso   1.00
H846   H     0.16113   0.59661   0.88289   0.00000  Uiso   1.00
H847   H     0.01165   0.65280   0.74665   0.00000  Uiso   1.00
H848   H     0.05685   0.35429   0.72211   0.00000  Uiso   1.00
H849   H     0.05955   0.34126   0.79921   0.00000  Uiso   1.00
H850   H     0.48836   0.34715   0.92022   0.00000  Uiso   1.00
H851   H     0.44048   0.65875   0.86760   0.00000  Uiso   1.00
H852   H     0.44313   0.64563   0.94466   0.00000  Uiso   1.00
H853   H     0.04712   0.63158   0.89975   0.00000  Uiso   1.00
H854   H     0.24397   0.65332   0.76208   0.00000  Uiso   1.00
H855   H     0.25603   0.34668   0.90458   0.00000  Uiso   1.00
H856   H     0.21505   0.45927   0.98290   0.00000  Uiso   1.00
H857   H     0.28495   0.54073   0.68377   0.00000  Uiso   1.00
H858   H     0.38418   0.37006   0.80880   0.00000  Uiso   1.00
H859   H     0.33886   0.40340   0.78370   0.00000  Uiso   1.00
H860   H     0.38092   0.38374   0.73245   0.00000  Uiso   1.00
N861   N     0.23744   0.48547   0.67951   0.00000  Uiso   1.00
N862   N     0.26255   0.51453   0.98716   0.00000  Uiso   1.00
O863   O     0.25325   0.42871   0.87326   0.00000  Uiso   1.00
O864   O     0.24674   0.57129   0.79341   0.00000  Uiso   1.00
O865   O     0.24480   0.41892   0.76945   0.00000  Uiso   1.00
O866   O     0.25520   0.58108   0.89721   0.00000  Uiso   1.00
O867   O     0.18935   0.50488   0.88524   0.00000  Uiso   1.00
O868   O     0.31064   0.49512   0.78143   0.00000  Uiso   1.00
O869   O     0.18090   0.49510   0.78143   0.00000  Uiso   1.00
O870   O     0.31910   0.50490   0.88523   0.00000  Uiso   1.00
C871   C     0.74843   0.39990   0.81776   0.00000  Uiso   1.00
C872   C     0.59159   0.45447   0.81267   0.00000  Uiso   1.00
C873   C     0.88323   0.49822   0.83002   0.00000  Uiso   1.00
C874   C     0.61677   0.50177   0.83665   0.00000  Uiso   1.00
C875   C     0.90339   0.45088   0.80659   0.00000  Uiso   1.00
C876   C     0.59661   0.54911   0.86010   0.00000  Uiso   1.00
C877   C     0.95047   0.45180   0.80807   0.00000  Uiso   1.00
C878   C     0.54953   0.54818   0.85865   0.00000  Uiso   1.00
C879   C     0.97642   0.49984   0.83260   0.00000  Uiso   1.00
C880   C     0.52358   0.50014   0.83412   0.00000  Uiso   1.00
C881   C     0.95527   0.54744   0.85561   0.00000  Uiso   1.00
C882   C     0.75157   0.60010   0.84891   0.00000  Uiso   1.00
C883   C     0.54473   0.45254   0.81110   0.00000  Uiso   1.00
C884   C     0.97202   0.40534   0.78585   0.00000  Uiso   1.00
C885   C     0.52798   0.59464   0.88091   0.00000  Uiso   1.00
C886   C     0.87518   0.39947   0.78160   0.00000  Uiso   1.00
C887   C     0.62481   0.60053   0.88508   0.00000  Uiso   1.00
C888   C     0.53780   0.35217   0.76244   0.00000  Uiso   1.00
C889   C     0.96221   0.64779   0.90436   0.00000  Uiso   1.00
C890   C     0.51834   0.40476   0.78710   0.00000  Uiso   1.00
C891   C     0.98166   0.59522   0.87965   0.00000  Uiso   1.00
C892   C     0.74785   0.34391   0.80899   0.00000  Uiso   1.00
C893   C     0.75215   0.65609   0.85768   0.00000  Uiso   1.00
C894   C     0.66471   0.50058   0.83440   0.00000  Uiso   1.00
C895   C     0.83528   0.49941   0.83226   0.00000  Uiso   1.00
C896   C     0.90842   0.54552   0.85401   0.00000  Uiso   1.00
Cu897  Cu    0.75500   0.50579   0.89479   0.00000  Uiso   1.00
Cu898  Cu    0.74499   0.49421   0.77187   0.00000  Uiso   1.00
F899   F     0.88597   0.58928   0.87553   0.00000  Uiso   1.00
F900   F     0.61403   0.41071   0.79113   0.00000  Uiso   1.00
H901   H     0.95288   0.36839   0.76703   0.00000  Uiso   1.00
H902   H     0.61576   0.62995   0.85792   0.00000  Uiso   1.00
H903   H     0.61912   0.61623   0.93425   0.00000  Uiso   1.00
H904   H     0.66113   0.59661   0.88289   0.00000  Uiso   1.00
H905   H     0.51165   0.65280   0.74665   0.00000  Uiso   1.00
H906   H     0.55685   0.35429   0.72211   0.00000  Uiso   1.00
H907   H     0.55955   0.34126   0.79921   0.00000  Uiso   1.00
H908   H     0.98836   0.34715   0.92022   0.00000  Uiso   1.00
H909   H     0.94048   0.65875   0.86760   0.00000  Uiso   1.00
H910   H     0.94313   0.64563   0.94466   0.00000  Uiso   1.00
H911   H     0.54712   0.63158   0.89975   0.00000  Uiso   1.00
H912   H     0.74397   0.65332   0.76208   0.00000  Uiso   1.00
H913   H     0.75603   0.34668   0.90458   0.00000  Uiso   1.00
H914   H     0.71505   0.45927   0.98290   0.00000  Uiso   1.00
H915   H     0.78495   0.54073   0.68377   0.00000  Uiso   1.00
H916   H     0.88418   0.37006   0.80880   0.00000  Uiso   1.00
H917   H     0.83886   0.40340   0.78370   0.00000  Uiso   1.00
H918   H     0.88092   0.38374   0.73245   0.00000  Uiso   1.00
N919   N     0.73744   0.48547   0.67951   0.00000  Uiso   1.00
N920   N     0.76255   0.51453   0.98716   0.00000  Uiso   1.00
O921   O     0.75325   0.42871   0.87326   0.00000  Uiso   1.00
O922   O     0.74674   0.57129   0.79341   0.00000  Uiso   1.00
O923   O     0.74480   0.41892   0.76945   0.00000  Uiso   1.00
O924   O     0.75520   0.58108   0.89721   0.00000  Uiso   1.00
O925   O     0.68935   0.50488   0.88524   0.00000  Uiso   1.00
O926   O     0.81064   0.49512   0.78143   0.00000  Uiso   1.00
O927   O     0.68090   0.49510   0.78143   0.00000  Uiso   1.00
O928   O     0.81910   0.50490   0.88523   0.00000  Uiso   1.00
C929   C     0.24843   0.73323   0.81776   0.00000  Uiso   1.00
C930   C     0.09159   0.78780   0.81267   0.00000  Uiso   1.00
C931   C     0.38323   0.83156   0.83002   0.00000  Uiso   1.00
C932   C     0.11677   0.83510   0.83665   0.00000  Uiso   1.00
C933   C     0.40339   0.78421   0.80659   0.00000  Uiso   1.00
C934   C     0.09661   0.88245   0.86010   0.00000  Uiso   1.00
C935   C     0.45047   0.78514   0.80807   0.00000  Uiso   1.00
C936   C     0.04953   0.88151   0.85865   0.00000  Uiso   1.00
C937   C     0.47642   0.83317   0.83260   0.00000  Uiso   1.00
C938   C     0.02358   0.83348   0.83412   0.00000  Uiso   1.00
C939   C     0.45527   0.88078   0.85561   0.00000  Uiso   1.00
C940   C     0.25157   0.93343   0.84891   0.00000  Uiso   1.00
C941   C     0.04473   0.78587   0.81110   0.00000  Uiso   1.00
C942   C     0.47202   0.73867   0.78585   0.00000  Uiso   1.00
C943   C     0.02798   0.92797   0.88091   0.00000  Uiso   1.00
C944   C     0.37518   0.73280   0.78160   0.00000  Uiso   1.00
C945   C     0.12481   0.93386   0.88508   0.00000  Uiso   1.00
C946   C     0.03780   0.68551   0.76244   0.00000  Uiso   1.00
C947   C     0.46221   0.98113   0.90436   0.00000  Uiso   1.00
C948   C     0.01834   0.73809   0.78710   0.00000  Uiso   1.00
C949   C     0.48166   0.92855   0.87965   0.00000  Uiso   1.00
C950   C     0.24785   0.67724   0.80899   0.00000  Uiso   1.00
C951   C     0.25215   0.98943   0.85768   0.00000  Uiso   1.00
C952   C     0.16471   0.83392   0.83440   0.00000  Uiso   1.00
C953   C     0.33528   0.83275   0.83226   0.00000  Uiso   1.00
C954   C     0.40842   0.87886   0.85401   0.00000  Uiso   1.00
Cu955  Cu    0.25500   0.83913   0.89479   0.00000  Uiso   1.00
Cu956  Cu    0.24499   0.82754   0.77187   0.00000  Uiso   1.00
F957   F     0.38597   0.92262   0.87553   0.00000  Uiso   1.00
F958   F     0.11403   0.74404   0.79113   0.00000  Uiso   1.00
H959   H     0.45288   0.70173   0.76703   0.00000  Uiso   1.00
H960   H     0.11576   0.96329   0.85792   0.00000  Uiso   1.00
H961   H     0.11912   0.94956   0.93425   0.00000  Uiso   1.00
H962   H     0.16113   0.92994   0.88289   0.00000  Uiso   1.00
H963   H     0.01165   0.98613   0.74665   0.00000  Uiso   1.00
H964   H     0.05685   0.68763   0.72211   0.00000  Uiso   1.00
H965   H     0.05955   0.67460   0.79921   0.00000  Uiso   1.00
H966   H     0.48836   0.68049   0.92022   0.00000  Uiso   1.00
H967   H     0.44048   0.99208   0.86760   0.00000  Uiso   1.00
H968   H     0.44313   0.97896   0.94466   0.00000  Uiso   1.00
H969   H     0.04712   0.96491   0.89975   0.00000  Uiso   1.00
H970   H     0.24397   0.98666   0.76208   0.00000  Uiso   1.00
H971   H     0.25603   0.68001   0.90458   0.00000  Uiso   1.00
H972   H     0.21505   0.79260   0.98290   0.00000  Uiso   1.00
H973   H     0.28495   0.87406   0.68377   0.00000  Uiso   1.00
H974   H     0.38418   0.70339   0.80880   0.00000  Uiso   1.00
H975   H     0.33886   0.73674   0.78370   0.00000  Uiso   1.00
H976   H     0.38092   0.71707   0.73245   0.00000  Uiso   1.00
N977   N     0.23744   0.81881   0.67951   0.00000  Uiso   1.00
N978   N     0.26255   0.84786   0.98716   0.00000  Uiso   1.00
O979   O     0.25325   0.76204   0.87326   0.00000  Uiso   1.00
O980   O     0.24674   0.90462   0.79341   0.00000  Uiso   1.00
O981   O     0.24480   0.75226   0.76945   0.00000  Uiso   1.00
O982   O     0.25520   0.91441   0.89721   0.00000  Uiso   1.00
O983   O     0.18935   0.83821   0.88524   0.00000  Uiso   1.00
O984   O     0.31064   0.82845   0.78143   0.00000  Uiso   1.00
O985   O     0.18090   0.82843   0.78143   0.00000  Uiso   1.00
O986   O     0.31910   0.83824   0.88523   0.00000  Uiso   1.00
C987   C     0.74843   0.73323   0.81776   0.00000  Uiso   1.00
C988   C     0.59159   0.78780   0.81267   0.00000  Uiso   1.00
C989   C     0.88323   0.83156   0.83002   0.00000  Uiso   1.00
C990   C     0.61677   0.83510   0.83665   0.00000  Uiso   1.00
C991   C     0.90339   0.78421   0.80659   0.00000  Uiso   1.00
C992   C     0.59661   0.88245   0.86010   0.00000  Uiso   1.00
C993   C     0.95047   0.78514   0.80807   0.00000  Uiso   1.00
C994   C     0.54953   0.88151   0.85865   0.00000  Uiso   1.00
C995   C     0.97642   0.83317   0.83260   0.00000  Uiso   1.00
C996   C     0.52358   0.83348   0.83412   0.00000  Uiso   1.00
C997   C     0.95527   0.88078   0.85561   0.00000  Uiso   1.00
C998   C     0.75157   0.93343   0.84891   0.00000  Uiso   1.00
C999   C     0.54473   0.78587   0.81110   0.00000  Uiso   1.00
C1000  C     0.97202   0.73867   0.78585   0.00000  Uiso   1.00
C1001  C     0.52798   0.92797   0.88091   0.00000  Uiso   1.00
C1002  C     0.87518   0.73280   0.78160   0.00000  Uiso   1.00
C1003  C     0.62481   0.93386   0.88508   0.00000  Uiso   1.00
C1004  C     0.53780   0.68551   0.76244   0.00000  Uiso   1.00
C1005  C     0.96221   0.98113   0.90436   0.00000  Uiso   1.00
C1006  C     0.51834   0.73809   0.78710   0.00000  Uiso   1.00
C1007  C     0.98166   0.92855   0.87965   0.00000  Uiso   1.00
C1008  C     0.74785   0.67724   0.80899   0.00000  Uiso   1.00
C1009  C     0.75215   0.98943   0.85768   0.00000  Uiso   1.00
C1010  C     0.66471   0.83392   0.83440   0.00000  Uiso   1.00
C1011  C     0.83528   0.83275   0.83226   0.00000  Uiso   1.00
C1012  C     0.90842   0.87886   0.85401   0.00000  Uiso   1.00
Cu1013 Cu    0.75500   0.83913   0.89479   0.00000  Uiso   1.00
Cu1014 Cu    0.74499   0.82754   0.77187   0.00000  Uiso   1.00
F1015  F     0.88597   0.92262   0.87553   0.00000  Uiso   1.00
F1016  F     0.61403   0.74404   0.79113   0.00000  Uiso   1.00
H1017  H     0.95288   0.70173   0.76703   0.00000  Uiso   1.00
H1018  H     0.61576   0.96329   0.85792   0.00000  Uiso   1.00
H1019  H     0.61912   0.94956   0.93425   0.00000  Uiso   1.00
H1020  H     0.66113   0.92994   0.88289   0.00000  Uiso   1.00
H1021  H     0.51165   0.98613   0.74665   0.00000  Uiso   1.00
H1022  H     0.55685   0.68763   0.72211   0.00000  Uiso   1.00
H1023  H     0.55955   0.67460   0.79921   0.00000  Uiso   1.00
H1024  H     0.98836   0.68049   0.92022   0.00000  Uiso   1.00
H1025  H     0.94048   0.99208   0.86760   0.00000  Uiso   1.00
H1026  H     0.94313   0.97896   0.94466   0.00000  Uiso   1.00
H1027  H     0.54712   0.96491   0.89975   0.00000  Uiso   1.00
H1028  H     0.74397   0.98666   0.76208   0.00000  Uiso   1.00
H1029  H     0.75603   0.68001   0.90458   0.00000  Uiso   1.00
H1030  H     0.71505   0.79260   0.98290   0.00000  Uiso   1.00
H1031  H     0.78495   0.87406   0.68377   0.00000  Uiso   1.00
H1032  H     0.88418   0.70339   0.80880   0.00000  Uiso   1.00
H1033  H     0.83886   0.73674   0.78370   0.00000  Uiso   1.00
H1034  H     0.88092   0.71707   0.73245   0.00000  Uiso   1.00
N1035  N     0.73744   0.81881   0.67951   0.00000  Uiso   1.00
N1036  N     0.76255   0.84786   0.98716   0.00000  Uiso   1.00
O1037  O     0.75325   0.76204   0.87326   0.00000  Uiso   1.00
O1038  O     0.74674   0.90462   0.79341   0.00000  Uiso   1.00
O1039  O     0.74480   0.75226   0.76945   0.00000  Uiso   1.00
O1040  O     0.75520   0.91441   0.89721   0.00000  Uiso   1.00
O1041  O     0.68935   0.83821   0.88524   0.00000  Uiso   1.00
O1042  O     0.81064   0.82845   0.78143   0.00000  Uiso   1.00
O1043  O     0.68090   0.82843   0.78143   0.00000  Uiso   1.00
O1044  O     0.81910   0.83824   0.88523   0.00000  Uiso   1.00
loop_
_geom_bond_atom_site_label_1
_geom_bond_atom_site_label_2
_geom_bond_distance
_geom_bond_site_symmetry_2
_ccdc_geom_bond_type
C1     O51     1.292   .     A
C1     C22     1.424   .     S
C1     O53     1.284   .     A
C2     C4      1.393   .     A
C2     F30     1.359   .     S
C2     C13     1.405   .     A
C3     C26     1.393   .     A
C3     C25     1.447   .     S
C3     C5      1.406   .     A
C4     C6      1.406   .     A
C4     C24     1.447   .     S
C5     C7      1.413   .     A
C5     C16     1.523   .     S
C6     C17     1.523   .     S
C6     C8      1.413   .     A
C7     C9      1.421   .     A
C7     C14     1.404   .     A
C8     C15     1.404   .     A
C8     C10     1.421   .     A
C9     C11     1.425   .     A
C9     C68     1.416   .     S
C10    C13     1.425   .     A
C10    C67     1.416   1_455 S
C11    C26     1.405   .     A
C11    C21     1.420   .     A
C12    C23     1.424   .     S
C12    O52     1.292   .     A
C12    O54     1.284   .     A
C13    C20     1.420   .     A
C14    H31     1.081   .     S
C14    C78     1.392   .     S
C15    H41     1.081   .     S
C15    C79     1.392   1_455 S
C16    H48     1.110   .     S
C16    H47     1.105   .     S
C16    H46     1.110   .     S
C17    H34     1.105   .     S
C17    H33     1.110   .     S
C17    H32     1.110   .     S
C18    H37     1.110   .     S
C18    C20     1.514   .     S
C18    H36     1.110   .     S
C18    H267    1.111   1_545 S
C19    H39     1.110   .     S
C19    C21     1.514   .     S
C19    H40     1.110   .     S
C19    H154    1.111   .     S
C20    C72     1.392   1_455 S
C21    C73     1.392   .     S
C22    C255    1.326   1_545 S
C22    H274    1.088   1_545 S
C23    C138    1.326   .     S
C23    H159    1.088   .     S
C24    O55     1.294   .     A
C24    O57     1.291   .     A
C25    O56     1.294   .     A
C25    O58     1.291   .     A
C26    F29     1.359   .     S
Cu27   N50     2.021   .     S
Cu27   O54     1.946   .     S
Cu27   O58     1.954   .     S
Cu27   O51     1.951   .     S
Cu27   O55     1.970   .     S
Cu27   Cu28    2.689   .     S
Cu28   O53     1.946   .     S
Cu28   N49     2.021   .     S
Cu28   O56     1.970   .     S
Cu28   O57     1.954   .     S
Cu28   O52     1.951   .     S
H35    C134    1.111   .     S
H38    C251    1.111   1_545 S
H42    C138    1.088   .     S
H43    C255    1.088   1_545 S
H44    N397    1.029   .     S
H45    N746    1.029   1_554 S
N49    H740    1.029   1_554 S
N49    N746    1.293   1_554 S
N50    N397    1.293   .     S
N50    H393    1.029   .     S
C59    O109    1.292   .     A
C59    C80     1.424   .     S
C59    O111    1.284   .     A
C60    C62     1.393   .     A
C60    F88     1.359   .     S
C60    C71     1.405   .     A
C61    C84     1.393   .     A
C61    C83     1.447   .     S
C61    C63     1.406   .     A
C62    C64     1.406   .     A
C62    C82     1.447   .     S
C63    C65     1.413   .     A
C63    C74     1.523   .     S
C64    C75     1.523   .     S
C64    C66     1.413   .     A
C65    C67     1.421   .     A
C65    C72     1.404   .     A
C66    C73     1.404   .     A
C66    C68     1.421   .     A
C67    C69     1.425   .     A
C67    C10     1.416   1_655 S
C68    C71     1.425   .     A
C69    C84     1.405   .     A
C69    C79     1.420   .     A
C70    C81     1.424   .     S
C70    O110    1.292   .     A
C70    O112    1.284   .     A
C71    C78     1.420   .     A
C72    H89     1.081   .     S
C72    C20     1.392   1_655 S
C73    H99     1.081   .     S
C74    H106    1.110   .     S
C74    H105    1.105   .     S
C74    H104    1.110   .     S
C75    H92     1.105   .     S
C75    H91     1.110   .     S
C75    H90     1.110   .     S
C76    H95     1.110   .     S
C76    C78     1.514   .     S
C76    H94     1.110   .     S
C76    H325    1.111   1_545 S
C77    H97     1.110   .     S
C77    C79     1.514   .     S
C77    H98     1.110   .     S
C77    H212    1.111   .     S
C79    C15     1.392   1_655 S
C80    C313    1.326   1_545 S
C80    H332    1.088   1_545 S
C81    C196    1.326   .     S
C81    H217    1.088   .     S
C82    O113    1.294   .     A
C82    O115    1.291   .     A
C83    O114    1.294   .     A
C83    O116    1.291   .     A
C84    F87     1.359   .     S
Cu85   N108    2.021   .     S
Cu85   O112    1.946   .     S
Cu85   O116    1.954   .     S
Cu85   O109    1.951   .     S
Cu85   O113    1.970   .     S
Cu85   Cu86    2.689   .     S
Cu86   O111    1.946   .     S
Cu86   N107    2.021   .     S
Cu86   O114    1.970   .     S
Cu86   O115    1.954   .     S
Cu86   O110    1.951   .     S
H93    C192    1.111   .     S
H96    C309    1.111   1_545 S
H100   C196    1.088   .     S
H101   C313    1.088   1_545 S
H102   N455    1.029   .     S
H103   N804    1.029   1_554 S
N107   H798    1.029   1_554 S
N107   N804    1.293   1_554 S
N108   N455    1.293   .     S
N108   H451    1.029   .     S
C117   O167    1.292   .     A
C117   C138    1.424   .     S
C117   O169    1.284   .     A
C118   C120    1.393   .     A
C118   F146    1.359   .     S
C118   C129    1.405   .     A
C119   C142    1.393   .     A
C119   C141    1.447   .     S
C119   C121    1.406   .     A
C120   C122    1.406   .     A
C120   C140    1.447   .     S
C121   C123    1.413   .     A
C121   C132    1.523   .     S
C122   C133    1.523   .     S
C122   C124    1.413   .     A
C123   C125    1.421   .     A
C123   C130    1.404   .     A
C124   C131    1.404   .     A
C124   C126    1.421   .     A
C125   C127    1.425   .     A
C125   C184    1.416   .     S
C126   C129    1.425   .     A
C126   C183    1.416   1_455 S
C127   C142    1.405   .     A
C127   C137    1.420   .     A
C128   C139    1.424   .     S
C128   O168    1.292   .     A
C128   O170    1.284   .     A
C129   C136    1.420   .     A
C130   H147    1.081   .     S
C130   C194    1.392   .     S
C131   H157    1.081   .     S
C131   C195    1.392   1_455 S
C132   H164    1.110   .     S
C132   H163    1.105   .     S
C132   H162    1.110   .     S
C133   H150    1.105   .     S
C133   H149    1.110   .     S
C133   H148    1.110   .     S
C134   H153    1.110   .     S
C134   C136    1.514   .     S
C134   H152    1.110   .     S
C135   H155    1.110   .     S
C135   C137    1.514   .     S
C135   H156    1.110   .     S
C135   H270    1.111   .     S
C136   C188    1.392   1_455 S
C137   C189    1.392   .     S
C139   C254    1.326   .     S
C139   H275    1.088   .     S
C140   O171    1.294   .     A
C140   O173    1.291   .     A
C141   O172    1.294   .     A
C141   O174    1.291   .     A
C142   F145    1.359   .     S
Cu143  N166    2.021   .     S
Cu143  O170    1.946   .     S
Cu143  O174    1.954   .     S
Cu143  O167    1.951   .     S
Cu143  O171    1.970   .     S
Cu143  Cu144   2.689   .     S
Cu144  O169    1.946   .     S
Cu144  N165    2.021   .     S
Cu144  O172    1.970   .     S
Cu144  O173    1.954   .     S
Cu144  O168    1.951   .     S
H151   C250    1.111   .     S
H158   C254    1.088   .     S
H160   N513    1.029   .     S
H161   N862    1.029   1_554 S
N165   H856    1.029   1_554 S
N165   N862    1.293   1_554 S
N166   N513    1.293   .     S
N166   H509    1.029   .     S
C175   O225    1.292   .     A
C175   C196    1.424   .     S
C175   O227    1.284   .     A
C176   C178    1.393   .     A
C176   F204    1.359   .     S
C176   C187    1.405   .     A
C177   C200    1.393   .     A
C177   C199    1.447   .     S
C177   C179    1.406   .     A
C178   C180    1.406   .     A
C178   C198    1.447   .     S
C179   C181    1.413   .     A
C179   C190    1.523   .     S
C180   C191    1.523   .     S
C180   C182    1.413   .     A
C181   C183    1.421   .     A
C181   C188    1.404   .     A
C182   C189    1.404   .     A
C182   C184    1.421   .     A
C183   C185    1.425   .     A
C183   C126    1.416   1_655 S
C184   C187    1.425   .     A
C185   C200    1.405   .     A
C185   C195    1.420   .     A
C186   C197    1.424   .     S
C186   O226    1.292   .     A
C186   O228    1.284   .     A
C187   C194    1.420   .     A
C188   H205    1.081   .     S
C188   C136    1.392   1_655 S
C189   H215    1.081   .     S
C190   H222    1.110   .     S
C190   H221    1.105   .     S
C190   H220    1.110   .     S
C191   H208    1.105   .     S
C191   H207    1.110   .     S
C191   H206    1.110   .     S
C192   H211    1.110   .     S
C192   C194    1.514   .     S
C192   H210    1.110   .     S
C193   H213    1.110   .     S
C193   C195    1.514   .     S
C193   H214    1.110   .     S
C193   H328    1.111   .     S
C195   C131    1.392   1_655 S
C197   C312    1.326   .     S
C197   H333    1.088   .     S
C198   O229    1.294   .     A
C198   O231    1.291   .     A
C199   O230    1.294   .     A
C199   O232    1.291   .     A
C200   F203    1.359   .     S
Cu201  N224    2.021   .     S
Cu201  O228    1.946   .     S
Cu201  O232    1.954   .     S
Cu201  O225    1.951   .     S
Cu201  O229    1.970   .     S
Cu201  Cu202   2.689   .     S
Cu202  O227    1.946   .     S
Cu202  N223    2.021   .     S
Cu202  O230    1.970   .     S
Cu202  O231    1.954   .     S
Cu202  O226    1.951   .     S
H209   C308    1.111   .     S
H216   C312    1.088   .     S
H218   N571    1.029   .     S
H219   N920    1.029   1_554 S
N223   H914    1.029   1_554 S
N223   N920    1.293   1_554 S
N224   N571    1.293   .     S
N224   H567    1.029   .     S
C233   O283    1.292   .     A
C233   C254    1.424   .     S
C233   O285    1.284   .     A
C234   C236    1.393   .     A
C234   F262    1.359   .     S
C234   C245    1.405   .     A
C235   C258    1.393   .     A
C235   C257    1.447   .     S
C235   C237    1.406   .     A
C236   C238    1.406   .     A
C236   C256    1.447   .     S
C237   C239    1.413   .     A
C237   C248    1.523   .     S
C238   C249    1.523   .     S
C238   C240    1.413   .     A
C239   C241    1.421   .     A
C239   C246    1.404   .     A
C240   C247    1.404   .     A
C240   C242    1.421   .     A
C241   C243    1.425   .     A
C241   C300    1.416   .     S
C242   C245    1.425   .     A
C242   C299    1.416   1_455 S
C243   C258    1.405   .     A
C243   C253    1.420   .     A
C244   C255    1.424   .     S
C244   O284    1.292   .     A
C244   O286    1.284   .     A
C245   C252    1.420   .     A
C246   H263    1.081   .     S
C246   C310    1.392   .     S
C247   H273    1.081   .     S
C247   C311    1.392   1_455 S
C248   H280    1.110   .     S
C248   H279    1.105   .     S
C248   H278    1.110   .     S
C249   H266    1.105   .     S
C249   H265    1.110   .     S
C249   H264    1.110   .     S
C250   H269    1.110   .     S
C250   C252    1.514   .     S
C250   H268    1.110   .     S
C251   H271    1.110   .     S
C251   C253    1.514   .     S
C251   H272    1.110   .     S
C251   H38     1.111   1_565 S
C252   C304    1.392   1_455 S
C253   C305    1.392   .     S
C255   C22     1.326   1_565 S
C255   H43     1.088   1_565 S
C256   O287    1.294   .     A
C256   O289    1.291   .     A
C257   O288    1.294   .     A
C257   O290    1.291   .     A
C258   F261    1.359   .     S
Cu259  N282    2.021   .     S
Cu259  O286    1.946   .     S
Cu259  O290    1.954   .     S
Cu259  O283    1.951   .     S
Cu259  O287    1.970   .     S
Cu259  Cu260   2.689   .     S
Cu260  O285    1.946   .     S
Cu260  N281    2.021   .     S
Cu260  O288    1.970   .     S
Cu260  O289    1.954   .     S
Cu260  O284    1.951   .     S
H267   C18     1.111   1_565 S
H274   C22     1.088   1_565 S
H276   N629    1.029   .     S
H277   N978    1.029   1_554 S
N281   H972    1.029   1_554 S
N281   N978    1.293   1_554 S
N282   N629    1.293   .     S
N282   H625    1.029   .     S
C291   O341    1.292   .     A
C291   C312    1.424   .     S
C291   O343    1.284   .     A
C292   C294    1.393   .     A
C292   F320    1.359   .     S
C292   C303    1.405   .     A
C293   C316    1.393   .     A
C293   C315    1.447   .     S
C293   C295    1.406   .     A
C294   C296    1.406   .     A
C294   C314    1.447   .     S
C295   C297    1.413   .     A
C295   C306    1.523   .     S
C296   C307    1.523   .     S
C296   C298    1.413   .     A
C297   C299    1.421   .     A
C297   C304    1.404   .     A
C298   C305    1.404   .     A
C298   C300    1.421   .     A
C299   C301    1.425   .     A
C299   C242    1.416   1_655 S
C300   C303    1.425   .     A
C301   C316    1.405   .     A
C301   C311    1.420   .     A
C302   C313    1.424   .     S
C302   O342    1.292   .     A
C302   O344    1.284   .     A
C303   C310    1.420   .     A
C304   H321    1.081   .     S
C304   C252    1.392   1_655 S
C305   H331    1.081   .     S
C306   H338    1.110   .     S
C306   H337    1.105   .     S
C306   H336    1.110   .     S
C307   H324    1.105   .     S
C307   H323    1.110   .     S
C307   H322    1.110   .     S
C308   H327    1.110   .     S
C308   C310    1.514   .     S
C308   H326    1.110   .     S
C309   H329    1.110   .     S
C309   C311    1.514   .     S
C309   H330    1.110   .     S
C309   H96     1.111   1_565 S
C311   C247    1.392   1_655 S
C313   C80     1.326   1_565 S
C313   H101    1.088   1_565 S
C314   O345    1.294   .     A
C314   O347    1.291   .     A
C315   O346    1.294   .     A
C315   O348    1.291   .     A
C316   F319    1.359   .     S
Cu317  N340    2.021   .     S
Cu317  O344    1.946   .     S
Cu317  O348    1.954   .     S
Cu317  O341    1.951   .     S
Cu317  O345    1.970   .     S
Cu317  Cu318   2.689   .     S
Cu318  O343    1.946   .     S
Cu318  N339    2.021   .     S
Cu318  O346    1.970   .     S
Cu318  O347    1.954   .     S
Cu318  O342    1.951   .     S
H325   C76     1.111   1_565 S
H332   C80     1.088   1_565 S
H334   N687    1.029   .     S
H335   N1036   1.029   1_554 S
N339   H1030   1.029   1_554 S
N339   N1036   1.293   1_554 S
N340   N687    1.293   .     S
N340   H683    1.029   .     S
C349   O399    1.292   .     A
C349   C370    1.424   .     S
C349   O401    1.284   .     A
C350   C352    1.393   .     A
C350   F378    1.359   .     S
C350   C361    1.405   .     A
C351   C374    1.393   .     A
C351   C373    1.447   .     S
C351   C353    1.406   .     A
C352   C354    1.406   .     A
C352   C372    1.447   .     S
C353   C355    1.413   .     A
C353   C364    1.523   .     S
C354   C365    1.523   .     S
C354   C356    1.413   .     A
C355   C357    1.421   .     A
C355   C362    1.404   .     A
C356   C363    1.404   .     A
C356   C358    1.421   .     A
C357   C359    1.425   .     A
C357   C416    1.416   .     S
C358   C361    1.425   .     A
C358   C415    1.416   1_455 S
C359   C374    1.405   .     A
C359   C369    1.420   .     A
C360   C371    1.424   .     S
C360   O400    1.292   .     A
C360   O402    1.284   .     A
C361   C368    1.420   .     A
C362   H379    1.081   .     S
C362   C426    1.392   .     S
C363   H389    1.081   .     S
C363   C427    1.392   1_455 S
C364   H396    1.110   .     S
C364   H395    1.105   .     S
C364   H394    1.110   .     S
C365   H382    1.105   .     S
C365   H381    1.110   .     S
C365   H380    1.110   .     S
C366   H385    1.110   .     S
C366   C368    1.514   .     S
C366   H384    1.110   .     S
C366   H615    1.111   1_545 S
C367   H387    1.110   .     S
C367   C369    1.514   .     S
C367   H388    1.110   .     S
C367   H502    1.111   .     S
C368   C420    1.392   1_455 S
C369   C421    1.392   .     S
C370   C603    1.326   1_545 S
C370   H622    1.088   1_545 S
C371   C486    1.326   .     S
C371   H507    1.088   .     S
C372   O403    1.294   .     A
C372   O405    1.291   .     A
C373   O404    1.294   .     A
C373   O406    1.291   .     A
C374   F377    1.359   .     S
Cu375  N398    2.021   .     S
Cu375  O402    1.946   .     S
Cu375  O406    1.954   .     S
Cu375  O399    1.951   .     S
Cu375  O403    1.970   .     S
Cu375  Cu376   2.689   .     S
Cu376  O401    1.946   .     S
Cu376  N397    2.021   .     S
Cu376  O404    1.970   .     S
Cu376  O405    1.954   .     S
Cu376  O400    1.951   .     S
H383   C482    1.111   .     S
H386   C599    1.111   1_545 S
H390   C486    1.088   .     S
H391   C603    1.088   1_545 S
H392   N745    1.029   .     S
N398   N745    1.293   .     S
N398   H741    1.029   .     S
C407   O457    1.292   .     A
C407   C428    1.424   .     S
C407   O459    1.284   .     A
C408   C410    1.393   .     A
C408   F436    1.359   .     S
C408   C419    1.405   .     A
C409   C432    1.393   .     A
C409   C431    1.447   .     S
C409   C411    1.406   .     A
C410   C412    1.406   .     A
C410   C430    1.447   .     S
C411   C413    1.413   .     A
C411   C422    1.523   .     S
C412   C423    1.523   .     S
C412   C414    1.413   .     A
C413   C415    1.421   .     A
C413   C420    1.404   .     A
C414   C421    1.404   .     A
C414   C416    1.421   .     A
C415   C417    1.425   .     A
C415   C358    1.416   1_655 S
C416   C419    1.425   .     A
C417   C432    1.405   .     A
C417   C427    1.420   .     A
C418   C429    1.424   .     S
C418   O458    1.292   .     A
C418   O460    1.284   .     A
C419   C426    1.420   .     A
C420   H437    1.081   .     S
C420   C368    1.392   1_655 S
C421   H447    1.081   .     S
C422   H454    1.110   .     S
C422   H453    1.105   .     S
C422   H452    1.110   .     S
C423   H440    1.105   .     S
C423   H439    1.110   .     S
C423   H438    1.110   .     S
C424   H443    1.110   .     S
C424   C426    1.514   .     S
C424   H442    1.110   .     S
C424   H673    1.111   1_545 S
C425   H445    1.110   .     S
C425   C427    1.514   .     S
C425   H446    1.110   .     S
C425   H560    1.111   .     S
C427   C363    1.392   1_655 S
C428   C661    1.326   1_545 S
C428   H680    1.088   1_545 S
C429   C544    1.326   .     S
C429   H565    1.088   .     S
C430   O461    1.294   .     A
C430   O463    1.291   .     A
C431   O462    1.294   .     A
C431   O464    1.291   .     A
C432   F435    1.359   .     S
Cu433  N456    2.021   .     S
Cu433  O460    1.946   .     S
Cu433  O464    1.954   .     S
Cu433  O457    1.951   .     S
Cu433  O461    1.970   .     S
Cu433  Cu434   2.689   .     S
Cu434  O459    1.946   .     S
Cu434  N455    2.021   .     S
Cu434  O462    1.970   .     S
Cu434  O463    1.954   .     S
Cu434  O458    1.951   .     S
H441   C540    1.111   .     S
H444   C657    1.111   1_545 S
H448   C544    1.088   .     S
H449   C661    1.088   1_545 S
H450   N803    1.029   .     S
N456   N803    1.293   .     S
N456   H799    1.029   .     S
C465   O515    1.292   .     A
C465   C486    1.424   .     S
C465   O517    1.284   .     A
C466   C468    1.393   .     A
C466   F494    1.359   .     S
C466   C477    1.405   .     A
C467   C490    1.393   .     A
C467   C489    1.447   .     S
C467   C469    1.406   .     A
C468   C470    1.406   .     A
C468   C488    1.447   .     S
C469   C471    1.413   .     A
C469   C480    1.523   .     S
C470   C481    1.523   .     S
C470   C472    1.413   .     A
C471   C473    1.421   .     A
C471   C478    1.404   .     A
C472   C479    1.404   .     A
C472   C474    1.421   .     A
C473   C475    1.425   .     A
C473   C532    1.416   .     S
C474   C477    1.425   .     A
C474   C531    1.416   1_455 S
C475   C490    1.405   .     A
C475   C485    1.420   .     A
C476   C487    1.424   .     S
C476   O516    1.292   .     A
C476   O518    1.284   .     A
C477   C484    1.420   .     A
C478   H495    1.081   .     S
C478   C542    1.392   .     S
C479   H505    1.081   .     S
C479   C543    1.392   1_455 S
C480   H512    1.110   .     S
C480   H511    1.105   .     S
C480   H510    1.110   .     S
C481   H498    1.105   .     S
C481   H497    1.110   .     S
C481   H496    1.110   .     S
C482   H501    1.110   .     S
C482   C484    1.514   .     S
C482   H500    1.110   .     S
C483   H503    1.110   .     S
C483   C485    1.514   .     S
C483   H504    1.110   .     S
C483   H618    1.111   .     S
C484   C536    1.392   1_455 S
C485   C537    1.392   .     S
C487   C602    1.326   .     S
C487   H623    1.088   .     S
C488   O519    1.294   .     A
C488   O521    1.291   .     A
C489   O520    1.294   .     A
C489   O522    1.291   .     A
C490   F493    1.359   .     S
Cu491  N514    2.021   .     S
Cu491  O518    1.946   .     S
Cu491  O522    1.954   .     S
Cu491  O515    1.951   .     S
Cu491  O519    1.970   .     S
Cu491  Cu492   2.689   .     S
Cu492  O517    1.946   .     S
Cu492  N513    2.021   .     S
Cu492  O520    1.970   .     S
Cu492  O521    1.954   .     S
Cu492  O516    1.951   .     S
H499   C598    1.111   .     S
H506   C602    1.088   .     S
H508   N861    1.029   .     S
N514   N861    1.293   .     S
N514   H857    1.029   .     S
C523   O573    1.292   .     A
C523   C544    1.424   .     S
C523   O575    1.284   .     A
C524   C526    1.393   .     A
C524   F552    1.359   .     S
C524   C535    1.405   .     A
C525   C548    1.393   .     A
C525   C547    1.447   .     S
C525   C527    1.406   .     A
C526   C528    1.406   .     A
C526   C546    1.447   .     S
C527   C529    1.413   .     A
C527   C538    1.523   .     S
C528   C539    1.523   .     S
C528   C530    1.413   .     A
C529   C531    1.421   .     A
C529   C536    1.404   .     A
C530   C537    1.404   .     A
C530   C532    1.421   .     A
C531   C533    1.425   .     A
C531   C474    1.416   1_655 S
C532   C535    1.425   .     A
C533   C548    1.405   .     A
C533   C543    1.420   .     A
C534   C545    1.424   .     S
C534   O574    1.292   .     A
C534   O576    1.284   .     A
C535   C542    1.420   .     A
C536   H553    1.081   .     S
C536   C484    1.392   1_655 S
C537   H563    1.081   .     S
C538   H570    1.110   .     S
C538   H569    1.105   .     S
C538   H568    1.110   .     S
C539   H556    1.105   .     S
C539   H555    1.110   .     S
C539   H554    1.110   .     S
C540   H559    1.110   .     S
C540   C542    1.514   .     S
C540   H558    1.110   .     S
C541   H561    1.110   .     S
C541   C543    1.514   .     S
C541   H562    1.110   .     S
C541   H676    1.111   .     S
C543   C479    1.392   1_655 S
C545   C660    1.326   .     S
C545   H681    1.088   .     S
C546   O577    1.294   .     A
C546   O579    1.291   .     A
C547   O578    1.294   .     A
C547   O580    1.291   .     A
C548   F551    1.359   .     S
Cu549  N572    2.021   .     S
Cu549  O576    1.946   .     S
Cu549  O580    1.954   .     S
Cu549  O573    1.951   .     S
Cu549  O577    1.970   .     S
Cu549  Cu550   2.689   .     S
Cu550  O575    1.946   .     S
Cu550  N571    2.021   .     S
Cu550  O578    1.970   .     S
Cu550  O579    1.954   .     S
Cu550  O574    1.951   .     S
H557   C656    1.111   .     S
H564   C660    1.088   .     S
H566   N919    1.029   .     S
N572   N919    1.293   .     S
N572   H915    1.029   .     S
C581   O631    1.292   .     A
C581   C602    1.424   .     S
C581   O633    1.284   .     A
C582   C584    1.393   .     A
C582   F610    1.359   .     S
C582   C593    1.405   .     A
C583   C606    1.393   .     A
C583   C605    1.447   .     S
C583   C585    1.406   .     A
C584   C586    1.406   .     A
C584   C604    1.447   .     S
C585   C587    1.413   .     A
C585   C596    1.523   .     S
C586   C597    1.523   .     S
C586   C588    1.413   .     A
C587   C589    1.421   .     A
C587   C594    1.404   .     A
C588   C595    1.404   .     A
C588   C590    1.421   .     A
C589   C591    1.425   .     A
C589   C648    1.416   .     S
C590   C593    1.425   .     A
C590   C647    1.416   1_455 S
C591   C606    1.405   .     A
C591   C601    1.420   .     A
C592   C603    1.424   .     S
C592   O632    1.292   .     A
C592   O634    1.284   .     A
C593   C600    1.420   .     A
C594   H611    1.081   .     S
C594   C658    1.392   .     S
C595   H621    1.081   .     S
C595   C659    1.392   1_455 S
C596   H628    1.110   .     S
C596   H627    1.105   .     S
C596   H626    1.110   .     S
C597   H614    1.105   .     S
C597   H613    1.110   .     S
C597   H612    1.110   .     S
C598   H617    1.110   .     S
C598   C600    1.514   .     S
C598   H616    1.110   .     S
C599   H619    1.110   .     S
C599   C601    1.514   .     S
C599   H620    1.110   .     S
C599   H386    1.111   1_565 S
C600   C652    1.392   1_455 S
C601   C653    1.392   .     S
C603   C370    1.326   1_565 S
C603   H391    1.088   1_565 S
C604   O635    1.294   .     A
C604   O637    1.291   .     A
C605   O636    1.294   .     A
C605   O638    1.291   .     A
C606   F609    1.359   .     S
Cu607  N630    2.021   .     S
Cu607  O634    1.946   .     S
Cu607  O638    1.954   .     S
Cu607  O631    1.951   .     S
Cu607  O635    1.970   .     S
Cu607  Cu608   2.689   .     S
Cu608  O633    1.946   .     S
Cu608  N629    2.021   .     S
Cu608  O636    1.970   .     S
Cu608  O637    1.954   .     S
Cu608  O632    1.951   .     S
H615   C366    1.111   1_565 S
H622   C370    1.088   1_565 S
H624   N977    1.029   .     S
N630   N977    1.293   .     S
N630   H973    1.029   .     S
C639   O689    1.292   .     A
C639   C660    1.424   .     S
C639   O691    1.284   .     A
C640   C642    1.393   .     A
C640   F668    1.359   .     S
C640   C651    1.405   .     A
C641   C664    1.393   .     A
C641   C663    1.447   .     S
C641   C643    1.406   .     A
C642   C644    1.406   .     A
C642   C662    1.447   .     S
C643   C645    1.413   .     A
C643   C654    1.523   .     S
C644   C655    1.523   .     S
C644   C646    1.413   .     A
C645   C647    1.421   .     A
C645   C652    1.404   .     A
C646   C653    1.404   .     A
C646   C648    1.421   .     A
C647   C649    1.425   .     A
C647   C590    1.416   1_655 S
C648   C651    1.425   .     A
C649   C664    1.405   .     A
C649   C659    1.420   .     A
C650   C661    1.424   .     S
C650   O690    1.292   .     A
C650   O692    1.284   .     A
C651   C658    1.420   .     A
C652   H669    1.081   .     S
C652   C600    1.392   1_655 S
C653   H679    1.081   .     S
C654   H686    1.110   .     S
C654   H685    1.105   .     S
C654   H684    1.110   .     S
C655   H672    1.105   .     S
C655   H671    1.110   .     S
C655   H670    1.110   .     S
C656   H675    1.110   .     S
C656   C658    1.514   .     S
C656   H674    1.110   .     S
C657   H677    1.110   .     S
C657   C659    1.514   .     S
C657   H678    1.110   .     S
C657   H444    1.111   1_565 S
C659   C595    1.392   1_655 S
C661   C428    1.326   1_565 S
C661   H449    1.088   1_565 S
C662   O693    1.294   .     A
C662   O695    1.291   .     A
C663   O694    1.294   .     A
C663   O696    1.291   .     A
C664   F667    1.359   .     S
Cu665  N688    2.021   .     S
Cu665  O692    1.946   .     S
Cu665  O696    1.954   .     S
Cu665  O689    1.951   .     S
Cu665  O693    1.970   .     S
Cu665  Cu666   2.689   .     S
Cu666  O691    1.946   .     S
Cu666  N687    2.021   .     S
Cu666  O694    1.970   .     S
Cu666  O695    1.954   .     S
Cu666  O690    1.951   .     S
H673   C424    1.111   1_565 S
H680   C428    1.088   1_565 S
H682   N1035   1.029   .     S
N688   N1035   1.293   .     S
N688   H1031   1.029   .     S
C697   O747    1.292   .     A
C697   C718    1.424   .     S
C697   O749    1.284   .     A
C698   C700    1.393   .     A
C698   F726    1.359   .     S
C698   C709    1.405   .     A
C699   C722    1.393   .     A
C699   C721    1.447   .     S
C699   C701    1.406   .     A
C700   C702    1.406   .     A
C700   C720    1.447   .     S
C701   C703    1.413   .     A
C701   C712    1.523   .     S
C702   C713    1.523   .     S
C702   C704    1.413   .     A
C703   C705    1.421   .     A
C703   C710    1.404   .     A
C704   C711    1.404   .     A
C704   C706    1.421   .     A
C705   C707    1.425   .     A
C705   C764    1.416   .     S
C706   C709    1.425   .     A
C706   C763    1.416   1_455 S
C707   C722    1.405   .     A
C707   C717    1.420   .     A
C708   C719    1.424   .     S
C708   O748    1.292   .     A
C708   O750    1.284   .     A
C709   C716    1.420   .     A
C710   H727    1.081   .     S
C710   C774    1.392   .     S
C711   H737    1.081   .     S
C711   C775    1.392   1_455 S
C712   H744    1.110   .     S
C712   H743    1.105   .     S
C712   H742    1.110   .     S
C713   H730    1.105   .     S
C713   H729    1.110   .     S
C713   H728    1.110   .     S
C714   H733    1.110   .     S
C714   C716    1.514   .     S
C714   H732    1.110   .     S
C714   H963    1.111   1_545 S
C715   H735    1.110   .     S
C715   C717    1.514   .     S
C715   H736    1.110   .     S
C715   H850    1.111   .     S
C716   C768    1.392   1_455 S
C717   C769    1.392   .     S
C718   C951    1.326   1_545 S
C718   H970    1.088   1_545 S
C719   C834    1.326   .     S
C719   H855    1.088   .     S
C720   O751    1.294   .     A
C720   O753    1.291   .     A
C721   O752    1.294   .     A
C721   O754    1.291   .     A
C722   F725    1.359   .     S
Cu723  N746    2.021   .     S
Cu723  O750    1.946   .     S
Cu723  O754    1.954   .     S
Cu723  O747    1.951   .     S
Cu723  O751    1.970   .     S
Cu723  Cu724   2.689   .     S
Cu724  O749    1.946   .     S
Cu724  N745    2.021   .     S
Cu724  O752    1.970   .     S
Cu724  O753    1.954   .     S
Cu724  O748    1.951   .     S
H731   C830    1.111   .     S
H734   C947    1.111   1_545 S
H738   C834    1.088   .     S
H739   C951    1.088   1_545 S
H740   N49     1.029   1_556 S
N746   N49     1.293   1_556 S
N746   H45     1.029   1_556 S
C755   O805    1.292   .     A
C755   C776    1.424   .     S
C755   O807    1.284   .     A
C756   C758    1.393   .     A
C756   F784    1.359   .     S
C756   C767    1.405   .     A
C757   C780    1.393   .     A
C757   C779    1.447   .     S
C757   C759    1.406   .     A
C758   C760    1.406   .     A
C758   C778    1.447   .     S
C759   C761    1.413   .     A
C759   C770    1.523   .     S
C760   C771    1.523   .     S
C760   C762    1.413   .     A
C761   C763    1.421   .     A
C761   C768    1.404   .     A
C762   C769    1.404   .     A
C762   C764    1.421   .     A
C763   C765    1.425   .     A
C763   C706    1.416   1_655 S
C764   C767    1.425   .     A
C765   C780    1.405   .     A
C765   C775    1.420   .     A
C766   C777    1.424   .     S
C766   O806    1.292   .     A
C766   O808    1.284   .     A
C767   C774    1.420   .     A
C768   H785    1.081   .     S
C768   C716    1.392   1_655 S
C769   H795    1.081   .     S
C770   H802    1.110   .     S
C770   H801    1.105   .     S
C770   H800    1.110   .     S
C771   H788    1.105   .     S
C771   H787    1.110   .     S
C771   H786    1.110   .     S
C772   H791    1.110   .     S
C772   C774    1.514   .     S
C772   H790    1.110   .     S
C772   H1021   1.111   1_545 S
C773   H793    1.110   .     S
C773   C775    1.514   .     S
C773   H794    1.110   .     S
C773   H908    1.111   .     S
C775   C711    1.392   1_655 S
C776   C1009   1.326   1_545 S
C776   H1028   1.088   1_545 S
C777   C892    1.326   .     S
C777   H913    1.088   .     S
C778   O809    1.294   .     A
C778   O811    1.291   .     A
C779   O810    1.294   .     A
C779   O812    1.291   .     A
C780   F783    1.359   .     S
Cu781  N804    2.021   .     S
Cu781  O808    1.946   .     S
Cu781  O812    1.954   .     S
Cu781  O805    1.951   .     S
Cu781  O809    1.970   .     S
Cu781  Cu782   2.689   .     S
Cu782  O807    1.946   .     S
Cu782  N803    2.021   .     S
Cu782  O810    1.970   .     S
Cu782  O811    1.954   .     S
Cu782  O806    1.951   .     S
H789   C888    1.111   .     S
H792   C1005   1.111   1_545 S
H796   C892    1.088   .     S
H797   C1009   1.088   1_545 S
H798   N107    1.029   1_556 S
N804   N107    1.293   1_556 S
N804   H103    1.029   1_556 S
C813   O863    1.292   .     A
C813   C834    1.424   .     S
C813   O865    1.284   .     A
C814   C816    1.393   .     A
C814   F842    1.359   .     S
C814   C825    1.405   .     A
C815   C838    1.393   .     A
C815   C837    1.447   .     S
C815   C817    1.406   .     A
C816   C818    1.406   .     A
C816   C836    1.447   .     S
C817   C819    1.413   .     A
C817   C828    1.523   .     S
C818   C829    1.523   .     S
C818   C820    1.413   .     A
C819   C821    1.421   .     A
C819   C826    1.404   .     A
C820   C827    1.404   .     A
C820   C822    1.421   .     A
C821   C823    1.425   .     A
C821   C880    1.416   .     S
C822   C825    1.425   .     A
C822   C879    1.416   1_455 S
C823   C838    1.405   .     A
C823   C833    1.420   .     A
C824   C835    1.424   .     S
C824   O864    1.292   .     A
C824   O866    1.284   .     A
C825   C832    1.420   .     A
C826   H843    1.081   .     S
C826   C890    1.392   .     S
C827   H853    1.081   .     S
C827   C891    1.392   1_455 S
C828   H860    1.110   .     S
C828   H859    1.105   .     S
C828   H858    1.110   .     S
C829   H846    1.105   .     S
C829   H845    1.110   .     S
C829   H844    1.110   .     S
C830   H849    1.110   .     S
C830   C832    1.514   .     S
C830   H848    1.110   .     S
C831   H851    1.110   .     S
C831   C833    1.514   .     S
C831   H852    1.110   .     S
C831   H966    1.111   .     S
C832   C884    1.392   1_455 S
C833   C885    1.392   .     S
C835   C950    1.326   .     S
C835   H971    1.088   .     S
C836   O867    1.294   .     A
C836   O869    1.291   .     A
C837   O868    1.294   .     A
C837   O870    1.291   .     A
C838   F841    1.359   .     S
Cu839  N862    2.021   .     S
Cu839  O866    1.946   .     S
Cu839  O870    1.954   .     S
Cu839  O863    1.951   .     S
Cu839  O867    1.970   .     S
Cu839  Cu840   2.689   .     S
Cu840  O865    1.946   .     S
Cu840  N861    2.021   .     S
Cu840  O868    1.970   .     S
Cu840  O869    1.954   .     S
Cu840  O864    1.951   .     S
H847   C946    1.111   .     S
H854   C950    1.088   .     S
H856   N165    1.029   1_556 S
N862   N165    1.293   1_556 S
N862   H161    1.029   1_556 S
C871   O921    1.292   .     A
C871   C892    1.424   .     S
C871   O923    1.284   .     A
C872   C874    1.393   .     A
C872   F900    1.359   .     S
C872   C883    1.405   .     A
C873   C896    1.393   .     A
C873   C895    1.447   .     S
C873   C875    1.406   .     A
C874   C876    1.406   .     A
C874   C894    1.447   .     S
C875   C877    1.413   .     A
C875   C886    1.523   .     S
C876   C887    1.523   .     S
C876   C878    1.413   .     A
C877   C879    1.421   .     A
C877   C884    1.404   .     A
C878   C885    1.404   .     A
C878   C880    1.421   .     A
C879   C881    1.425   .     A
C879   C822    1.416   1_655 S
C880   C883    1.425   .     A
C881   C896    1.405   .     A
C881   C891    1.420   .     A
C882   C893    1.424   .     S
C882   O922    1.292   .     A
C882   O924    1.284   .     A
C883   C890    1.420   .     A
C884   H901    1.081   .     S
C884   C832    1.392   1_655 S
C885   H911    1.081   .     S
C886   H918    1.110   .     S
C886   H917    1.105   .     S
C886   H916    1.110   .     S
C887   H904    1.105   .     S
C887   H903    1.110   .     S
C887   H902    1.110   .     S
C888   H907    1.110   .     S
C888   C890    1.514   .     S
C888   H906    1.110   .     S
C889   H909    1.110   .     S
C889   C891    1.514   .     S
C889   H910    1.110   .     S
C889   H1024   1.111   .     S
C891   C827    1.392   1_655 S
C893   C1008   1.326   .     S
C893   H1029   1.088   .     S
C894   O925    1.294   .     A
C894   O927    1.291   .     A
C895   O926    1.294   .     A
C895   O928    1.291   .     A
C896   F899    1.359   .     S
Cu897  N920    2.021   .     S
Cu897  O924    1.946   .     S
Cu897  O928    1.954   .     S
Cu897  O921    1.951   .     S
Cu897  O925    1.970   .     S
Cu897  Cu898   2.689   .     S
Cu898  O923    1.946   .     S
Cu898  N919    2.021   .     S
Cu898  O926    1.970   .     S
Cu898  O927    1.954   .     S
Cu898  O922    1.951   .     S
H905   C1004   1.111   .     S
H912   C1008   1.088   .     S
H914   N223    1.029   1_556 S
N920   N223    1.293   1_556 S
N920   H219    1.029   1_556 S
C929   O979    1.292   .     A
C929   C950    1.424   .     S
C929   O981    1.284   .     A
C930   C932    1.393   .     A
C930   F958    1.359   .     S
C930   C941    1.405   .     A
C931   C954    1.393   .     A
C931   C953    1.447   .     S
C931   C933    1.406   .     A
C932   C934    1.406   .     A
C932   C952    1.447   .     S
C933   C935    1.413   .     A
C933   C944    1.523   .     S
C934   C945    1.523   .     S
C934   C936    1.413   .     A
C935   C937    1.421   .     A
C935   C942    1.404   .     A
C936   C943    1.404   .     A
C936   C938    1.421   .     A
C937   C939    1.425   .     A
C937   C996    1.416   .     S
C938   C941    1.425   .     A
C938   C995    1.416   1_455 S
C939   C954    1.405   .     A
C939   C949    1.420   .     A
C940   C951    1.424   .     S
C940   O980    1.292   .     A
C940   O982    1.284   .     A
C941   C948    1.420   .     A
C942   H959    1.081   .     S
C942   C1006   1.392   .     S
C943   H969    1.081   .     S
C943   C1007   1.392   1_455 S
C944   H976    1.110   .     S
C944   H975    1.105   .     S
C944   H974    1.110   .     S
C945   H962    1.105   .     S
C945   H961    1.110   .     S
C945   H960    1.110   .     S
C946   H965    1.110   .     S
C946   C948    1.514   .     S
C946   H964    1.110   .     S
C947   H967    1.110   .     S
C947   C949    1.514   .     S
C947   H968    1.110   .     S
C947   H734    1.111   1_565 S
C948   C1000   1.392   1_455 S
C949   C1001   1.392   .     S
C951   C718    1.326   1_565 S
C951   H739    1.088   1_565 S
C952   O983    1.294   .     A
C952   O985    1.291   .     A
C953   O984    1.294   .     A
C953   O986    1.291   .     A
C954   F957    1.359   .     S
Cu955  N978    2.021   .     S
Cu955  O982    1.946   .     S
Cu955  O986    1.954   .     S
Cu955  O979    1.951   .     S
Cu955  O983    1.970   .     S
Cu955  Cu956   2.689   .     S
Cu956  O981    1.946   .     S
Cu956  N977    2.021   .     S
Cu956  O984    1.970   .     S
Cu956  O985    1.954   .     S
Cu956  O980    1.951   .     S
H963   C714    1.111   1_565 S
H970   C718    1.088   1_565 S
H972   N281    1.029   1_556 S
N978   N281    1.293   1_556 S
N978   H277    1.029   1_556 S
C987   O1037   1.292   .     A
C987   C1008   1.424   .     S
C987   O1039   1.284   .     A
C988   C990    1.393   .     A
C988   F1016   1.359   .     S
C988   C999    1.405   .     A
C989   C1012   1.393   .     A
C989   C1011   1.447   .     S
C989   C991    1.406   .     A
C990   C992    1.406   .     A
C990   C1010   1.447   .     S
C991   C993    1.413   .     A
C991   C1002   1.523   .     S
C992   C1003   1.523   .     S
C992   C994    1.413   .     A
C993   C995    1.421   .     A
C993   C1000   1.404   .     A
C994   C1001   1.404   .     A
C994   C996    1.421   .     A
C995   C997    1.425   .     A
C995   C938    1.416   1_655 S
C996   C999    1.425   .     A
C997   C1012   1.405   .     A
C997   C1007   1.420   .     A
C998   C1009   1.424   .     S
C998   O1038   1.292   .     A
C998   O1040   1.284   .     A
C999   C1006   1.420   .     A
C1000  H1017   1.081   .     S
C1000  C948    1.392   1_655 S
C1001  H1027   1.081   .     S
C1002  H1034   1.110   .     S
C1002  H1033   1.105   .     S
C1002  H1032   1.110   .     S
C1003  H1020   1.105   .     S
C1003  H1019   1.110   .     S
C1003  H1018   1.110   .     S
C1004  H1023   1.110   .     S
C1004  C1006   1.514   .     S
C1004  H1022   1.110   .     S
C1005  H1025   1.110   .     S
C1005  C1007   1.514   .     S
C1005  H1026   1.110   .     S
C1005  H792    1.111   1_565 S
C1007  C943    1.392   1_655 S
C1009  C776    1.326   1_565 S
C1009  H797    1.088   1_565 S
C1010  O1041   1.294   .     A
C1010  O1043   1.291   .     A
C1011  O1042   1.294   .     A
C1011  O1044   1.291   .     A
C1012  F1015   1.359   .     S
Cu1013 N1036   2.021   .     S
Cu1013 O1040   1.946   .     S
Cu1013 O1044   1.954   .     S
Cu1013 O1037   1.951   .     S
Cu1013 O1041   1.970   .     S
Cu1013 Cu1014  2.689   .     S
Cu1014 O1039   1.946   .     S
Cu1014 N1035   2.021   .     S
Cu1014 O1042   1.970   .     S
Cu1014 O1043   1.954   .     S
Cu1014 O1038   1.951   .     S
H1021  C772    1.111   1_565 S
H1028  C776    1.088   1_565 S
H1030  N339    1.029   1_556 S
N1036  N339    1.293   1_556 S
N1036  H335    1.029   1_556 S
