data_str_m2_o10_o18_pcu_sym.42
_audit_creation_date              2020-01-03
_audit_creation_method            'Materials Studio'
_symmetry_space_group_name_H-M    'P1'
_symmetry_Int_Tables_number       1
_symmetry_cell_setting            triclinic
loop_
_symmetry_equiv_pos_as_xyz
  x,y,z
_cell_length_a                    22.2466
_cell_length_b                    26.0555
_cell_length_c                    31.8410
_cell_angle_alpha                 94.2815
_cell_angle_beta                  74.5866
_cell_angle_gamma                 103.2794
loop_
_atom_site_label
_atom_site_type_symbol
_atom_site_fract_x
_atom_site_fract_y
_atom_site_fract_z
_atom_site_U_iso_or_equiv
_atom_site_adp_type
_atom_site_occupancy
C1     C     0.18174   0.26675   0.25130   0.00000  Uiso   1.00
C2     C     0.20560   0.16961   0.16675   0.00000  Uiso   1.00
C3     C     0.10336   0.15745   0.38111   0.00000  Uiso   1.00
C4     C     0.22997   0.17588   0.11889   0.00000  Uiso   1.00
C5     C     0.03673   0.09902   0.43899   0.00000  Uiso   1.00
C6     C     0.29660   0.23432   0.06102   0.00000  Uiso   1.00
C7     C     0.04653   0.12001   0.39806   0.00000  Uiso   1.00
C8     C     0.28680   0.21333   0.10195   0.00000  Uiso   1.00
C9     C     0.14297   0.18147   0.40888   0.00000  Uiso   1.00
C10    C     0.19036   0.15187   0.09113   0.00000  Uiso   1.00
C11    C     0.13026   0.16229   0.45197   0.00000  Uiso   1.00
C12    C     0.15159   0.06658   0.24870   0.00000  Uiso   1.00
C13    C     0.20307   0.17104   0.04803   0.00000  Uiso   1.00
C14    C     0.08088   0.11660   0.46378   0.00000  Uiso   1.00
C15    C     0.25245   0.21673   0.03622   0.00000  Uiso   1.00
C16    C     0.16826   0.18246   0.48216   0.00000  Uiso   1.00
C17    C     0.16507   0.15088   0.01784   0.00000  Uiso   1.00
C18    C     0.13259   0.11318   0.10993   0.00000  Uiso   1.00
C19    C     0.20075   0.22014   0.39007   0.00000  Uiso   1.00
C20    C     0.12510   0.10006   0.02134   0.00000  Uiso   1.00
C21    C     0.20823   0.23327   0.47866   0.00000  Uiso   1.00
C22    C     0.07950   0.08562   0.49791   0.00000  Uiso   1.00
C23    C     0.25383   0.24772   0.00209   0.00000  Uiso   1.00
C24    C     0.19023   0.32274   0.25194   0.00000  Uiso   1.00
C25    C     0.14311   0.01060   0.24806   0.00000  Uiso   1.00
C26    C     0.12773   0.16372   0.33325   0.00000  Uiso   1.00
Cu27   Cu    0.10737   0.16108   0.24517   0.00000  Uiso   1.00
Cu28   Cu    0.22596   0.17225   0.25484   0.00000  Uiso   1.00
H29    H     0.04622   0.04775   0.00419   0.00000  Uiso   1.00
H30    H     0.33213   0.12865   0.21551   0.00000  Uiso   1.00
H31    H     0.03283   0.26562   0.11263   0.00000  Uiso   1.00
H32    H     0.02072   0.20449   0.13074   0.00000  Uiso   1.00
H33    H     0.31261   0.12887   0.36926   0.00000  Uiso   1.00
H34    H     0.30048   0.06773   0.38738   0.00000  Uiso   1.00
H35    H     0.28711   0.28559   0.49582   0.00000  Uiso   1.00
H36    H     0.33008   0.06623   0.45026   0.00000  Uiso   1.00
H37    H     0.00324   0.26711   0.04974   0.00000  Uiso   1.00
H38    H     0.12907   0.07003   0.04127   0.00000  Uiso   1.00
H39    H     0.20426   0.26330   0.45873   0.00000  Uiso   1.00
H40    H     0.23560   0.01328   0.25562   0.00000  Uiso   1.00
H41    H     0.09773   0.32005   0.24438   0.00000  Uiso   1.00
H42    H     0.00120   0.20469   0.28449   0.00000  Uiso   1.00
N43    N     0.31506   0.18068   0.26212   0.00000  Uiso   1.00
N44    N     0.01827   0.15265   0.23788   0.00000  Uiso   1.00
N45    N     0.08656   0.08256   0.12535   0.00000  Uiso   1.00
N46    N     0.24679   0.25076   0.37465   0.00000  Uiso   1.00
N47    N     0.33069   0.23422   0.12818   0.00000  Uiso   1.00
N48    N     0.00263   0.09913   0.37182   0.00000  Uiso   1.00
O49    O     0.12815   0.23809   0.24686   0.00000  Uiso   1.00
O50    O     0.20518   0.09524   0.25314   0.00000  Uiso   1.00
O51    O     0.22829   0.24753   0.25503   0.00000  Uiso   1.00
O52    O     0.10504   0.08580   0.24498   0.00000  Uiso   1.00
O53    O     0.08851   0.15930   0.30855   0.00000  Uiso   1.00
O54    O     0.24482   0.17403   0.19146   0.00000  Uiso   1.00
O55    O     0.18866   0.16874   0.31671   0.00000  Uiso   1.00
O56    O     0.14468   0.16460   0.18329   0.00000  Uiso   1.00
C57    C     0.51507   0.26675   0.25130   0.00000  Uiso   1.00
C58    C     0.53894   0.16961   0.16675   0.00000  Uiso   1.00
C59    C     0.43670   0.15745   0.38111   0.00000  Uiso   1.00
C60    C     0.56330   0.17588   0.11889   0.00000  Uiso   1.00
C61    C     0.37006   0.09902   0.43899   0.00000  Uiso   1.00
C62    C     0.62993   0.23432   0.06102   0.00000  Uiso   1.00
C63    C     0.37986   0.12001   0.39806   0.00000  Uiso   1.00
C64    C     0.62013   0.21333   0.10195   0.00000  Uiso   1.00
C65    C     0.47631   0.18147   0.40888   0.00000  Uiso   1.00
C66    C     0.52370   0.15187   0.09113   0.00000  Uiso   1.00
C67    C     0.46359   0.16229   0.45197   0.00000  Uiso   1.00
C68    C     0.48492   0.06658   0.24870   0.00000  Uiso   1.00
C69    C     0.53641   0.17104   0.04803   0.00000  Uiso   1.00
C70    C     0.41421   0.11660   0.46378   0.00000  Uiso   1.00
C71    C     0.58578   0.21673   0.03622   0.00000  Uiso   1.00
C72    C     0.50160   0.18246   0.48216   0.00000  Uiso   1.00
C73    C     0.49840   0.15088   0.01784   0.00000  Uiso   1.00
C74    C     0.46592   0.11318   0.10993   0.00000  Uiso   1.00
C75    C     0.53409   0.22014   0.39007   0.00000  Uiso   1.00
C76    C     0.45843   0.10006   0.02134   0.00000  Uiso   1.00
C77    C     0.54156   0.23327   0.47866   0.00000  Uiso   1.00
C78    C     0.41283   0.08562   0.49791   0.00000  Uiso   1.00
C79    C     0.58717   0.24772   0.00209   0.00000  Uiso   1.00
C80    C     0.52356   0.32274   0.25194   0.00000  Uiso   1.00
C81    C     0.47644   0.01060   0.24806   0.00000  Uiso   1.00
C82    C     0.46106   0.16372   0.33325   0.00000  Uiso   1.00
Cu83   Cu    0.44071   0.16108   0.24517   0.00000  Uiso   1.00
Cu84   Cu    0.55929   0.17225   0.25484   0.00000  Uiso   1.00
H85    H     0.37955   0.04775   0.00419   0.00000  Uiso   1.00
H86    H     0.66547   0.12865   0.21551   0.00000  Uiso   1.00
H87    H     0.36617   0.26562   0.11263   0.00000  Uiso   1.00
H88    H     0.35406   0.20449   0.13074   0.00000  Uiso   1.00
H89    H     0.64595   0.12887   0.36926   0.00000  Uiso   1.00
H90    H     0.63382   0.06773   0.38738   0.00000  Uiso   1.00
H91    H     0.62044   0.28559   0.49582   0.00000  Uiso   1.00
H92    H     0.66341   0.06623   0.45026   0.00000  Uiso   1.00
H93    H     0.33658   0.26711   0.04974   0.00000  Uiso   1.00
H94    H     0.46240   0.07003   0.04127   0.00000  Uiso   1.00
H95    H     0.53759   0.26330   0.45873   0.00000  Uiso   1.00
H96    H     0.56893   0.01328   0.25562   0.00000  Uiso   1.00
H97    H     0.43107   0.32005   0.24438   0.00000  Uiso   1.00
H98    H     0.33453   0.20469   0.28449   0.00000  Uiso   1.00
N99    N     0.64839   0.18068   0.26212   0.00000  Uiso   1.00
N100   N     0.35161   0.15265   0.23788   0.00000  Uiso   1.00
N101   N     0.41990   0.08256   0.12535   0.00000  Uiso   1.00
N102   N     0.58012   0.25076   0.37465   0.00000  Uiso   1.00
N103   N     0.66403   0.23422   0.12818   0.00000  Uiso   1.00
N104   N     0.33596   0.09913   0.37182   0.00000  Uiso   1.00
O105   O     0.46148   0.23809   0.24686   0.00000  Uiso   1.00
O106   O     0.53852   0.09524   0.25314   0.00000  Uiso   1.00
O107   O     0.56163   0.24753   0.25503   0.00000  Uiso   1.00
O108   O     0.43837   0.08580   0.24498   0.00000  Uiso   1.00
O109   O     0.42185   0.15930   0.30855   0.00000  Uiso   1.00
O110   O     0.57815   0.17403   0.19146   0.00000  Uiso   1.00
O111   O     0.52199   0.16874   0.31671   0.00000  Uiso   1.00
O112   O     0.47801   0.16460   0.18329   0.00000  Uiso   1.00
C113   C     0.84841   0.26675   0.25130   0.00000  Uiso   1.00
C114   C     0.87227   0.16961   0.16675   0.00000  Uiso   1.00
C115   C     0.77003   0.15745   0.38111   0.00000  Uiso   1.00
C116   C     0.89664   0.17588   0.11889   0.00000  Uiso   1.00
C117   C     0.70340   0.09902   0.43899   0.00000  Uiso   1.00
C118   C     0.96326   0.23432   0.06102   0.00000  Uiso   1.00
C119   C     0.71320   0.12001   0.39806   0.00000  Uiso   1.00
C120   C     0.95347   0.21333   0.10195   0.00000  Uiso   1.00
C121   C     0.80964   0.18147   0.40888   0.00000  Uiso   1.00
C122   C     0.85703   0.15187   0.09113   0.00000  Uiso   1.00
C123   C     0.79692   0.16229   0.45197   0.00000  Uiso   1.00
C124   C     0.81826   0.06658   0.24870   0.00000  Uiso   1.00
C125   C     0.86974   0.17104   0.04803   0.00000  Uiso   1.00
C126   C     0.74754   0.11660   0.46378   0.00000  Uiso   1.00
C127   C     0.91912   0.21673   0.03622   0.00000  Uiso   1.00
C128   C     0.83493   0.18246   0.48216   0.00000  Uiso   1.00
C129   C     0.83174   0.15088   0.01784   0.00000  Uiso   1.00
C130   C     0.79926   0.11318   0.10993   0.00000  Uiso   1.00
C131   C     0.86742   0.22014   0.39007   0.00000  Uiso   1.00
C132   C     0.79177   0.10006   0.02134   0.00000  Uiso   1.00
C133   C     0.87489   0.23327   0.47866   0.00000  Uiso   1.00
C134   C     0.74616   0.08562   0.49791   0.00000  Uiso   1.00
C135   C     0.92050   0.24772   0.00209   0.00000  Uiso   1.00
C136   C     0.85689   0.32274   0.25194   0.00000  Uiso   1.00
C137   C     0.80977   0.01060   0.24806   0.00000  Uiso   1.00
C138   C     0.79440   0.16372   0.33325   0.00000  Uiso   1.00
Cu139  Cu    0.77404   0.16108   0.24517   0.00000  Uiso   1.00
Cu140  Cu    0.89263   0.17225   0.25484   0.00000  Uiso   1.00
H141   H     0.71288   0.04775   0.00419   0.00000  Uiso   1.00
H142   H     0.99880   0.12865   0.21551   0.00000  Uiso   1.00
H143   H     0.69950   0.26562   0.11263   0.00000  Uiso   1.00
H144   H     0.68739   0.20449   0.13074   0.00000  Uiso   1.00
H145   H     0.97928   0.12887   0.36926   0.00000  Uiso   1.00
H146   H     0.96715   0.06773   0.38738   0.00000  Uiso   1.00
H147   H     0.95377   0.28559   0.49582   0.00000  Uiso   1.00
H148   H     0.99675   0.06623   0.45026   0.00000  Uiso   1.00
H149   H     0.66991   0.26711   0.04974   0.00000  Uiso   1.00
H150   H     0.79574   0.07003   0.04127   0.00000  Uiso   1.00
H151   H     0.87092   0.26330   0.45873   0.00000  Uiso   1.00
H152   H     0.90227   0.01328   0.25562   0.00000  Uiso   1.00
H153   H     0.76440   0.32005   0.24438   0.00000  Uiso   1.00
H154   H     0.66787   0.20469   0.28449   0.00000  Uiso   1.00
N155   N     0.98173   0.18068   0.26212   0.00000  Uiso   1.00
N156   N     0.68494   0.15265   0.23788   0.00000  Uiso   1.00
N157   N     0.75323   0.08256   0.12535   0.00000  Uiso   1.00
N158   N     0.91345   0.25076   0.37465   0.00000  Uiso   1.00
N159   N     0.99736   0.23422   0.12818   0.00000  Uiso   1.00
N160   N     0.66930   0.09913   0.37182   0.00000  Uiso   1.00
O161   O     0.79482   0.23809   0.24686   0.00000  Uiso   1.00
O162   O     0.87185   0.09524   0.25314   0.00000  Uiso   1.00
O163   O     0.89496   0.24753   0.25503   0.00000  Uiso   1.00
O164   O     0.77171   0.08580   0.24498   0.00000  Uiso   1.00
O165   O     0.75518   0.15930   0.30855   0.00000  Uiso   1.00
O166   O     0.91149   0.17403   0.19146   0.00000  Uiso   1.00
O167   O     0.85532   0.16874   0.31671   0.00000  Uiso   1.00
O168   O     0.81134   0.16460   0.18329   0.00000  Uiso   1.00
C169   C     0.18174   0.60009   0.25130   0.00000  Uiso   1.00
C170   C     0.20560   0.50295   0.16675   0.00000  Uiso   1.00
C171   C     0.10336   0.49079   0.38111   0.00000  Uiso   1.00
C172   C     0.22997   0.50921   0.11889   0.00000  Uiso   1.00
C173   C     0.03673   0.43235   0.43899   0.00000  Uiso   1.00
C174   C     0.29660   0.56766   0.06102   0.00000  Uiso   1.00
C175   C     0.04653   0.45334   0.39806   0.00000  Uiso   1.00
C176   C     0.28680   0.54666   0.10195   0.00000  Uiso   1.00
C177   C     0.14297   0.51480   0.40888   0.00000  Uiso   1.00
C178   C     0.19036   0.48520   0.09113   0.00000  Uiso   1.00
C179   C     0.13026   0.49562   0.45197   0.00000  Uiso   1.00
C180   C     0.15159   0.39991   0.24870   0.00000  Uiso   1.00
C181   C     0.20307   0.50438   0.04803   0.00000  Uiso   1.00
C182   C     0.08088   0.44994   0.46378   0.00000  Uiso   1.00
C183   C     0.25245   0.55007   0.03622   0.00000  Uiso   1.00
C184   C     0.16826   0.51579   0.48216   0.00000  Uiso   1.00
C185   C     0.16507   0.48421   0.01784   0.00000  Uiso   1.00
C186   C     0.13259   0.44651   0.10993   0.00000  Uiso   1.00
C187   C     0.20075   0.55348   0.39007   0.00000  Uiso   1.00
C188   C     0.12510   0.43340   0.02134   0.00000  Uiso   1.00
C189   C     0.20823   0.56660   0.47866   0.00000  Uiso   1.00
C190   C     0.07950   0.41895   0.49791   0.00000  Uiso   1.00
C191   C     0.25383   0.58105   0.00209   0.00000  Uiso   1.00
C192   C     0.19023   0.65607   0.25194   0.00000  Uiso   1.00
C193   C     0.14311   0.34393   0.24806   0.00000  Uiso   1.00
C194   C     0.12773   0.49705   0.33325   0.00000  Uiso   1.00
Cu195  Cu    0.10737   0.49441   0.24517   0.00000  Uiso   1.00
Cu196  Cu    0.22596   0.50559   0.25484   0.00000  Uiso   1.00
H197   H     0.04622   0.38108   0.00419   0.00000  Uiso   1.00
H198   H     0.33213   0.46198   0.21551   0.00000  Uiso   1.00
H199   H     0.03283   0.59896   0.11263   0.00000  Uiso   1.00
H200   H     0.02072   0.53783   0.13074   0.00000  Uiso   1.00
H201   H     0.31261   0.46220   0.36926   0.00000  Uiso   1.00
H202   H     0.30048   0.40107   0.38738   0.00000  Uiso   1.00
H203   H     0.28711   0.61892   0.49582   0.00000  Uiso   1.00
H204   H     0.33008   0.39957   0.45026   0.00000  Uiso   1.00
H205   H     0.00324   0.60044   0.04974   0.00000  Uiso   1.00
H206   H     0.12907   0.40337   0.04127   0.00000  Uiso   1.00
H207   H     0.20426   0.59663   0.45873   0.00000  Uiso   1.00
H208   H     0.23560   0.34662   0.25562   0.00000  Uiso   1.00
H209   H     0.09773   0.65338   0.24438   0.00000  Uiso   1.00
H210   H     0.00120   0.53802   0.28449   0.00000  Uiso   1.00
N211   N     0.31506   0.51401   0.26212   0.00000  Uiso   1.00
N212   N     0.01827   0.48599   0.23788   0.00000  Uiso   1.00
N213   N     0.08656   0.41590   0.12535   0.00000  Uiso   1.00
N214   N     0.24679   0.58409   0.37465   0.00000  Uiso   1.00
N215   N     0.33069   0.56755   0.12818   0.00000  Uiso   1.00
N216   N     0.00263   0.43247   0.37182   0.00000  Uiso   1.00
O217   O     0.12815   0.57142   0.24686   0.00000  Uiso   1.00
O218   O     0.20518   0.42858   0.25314   0.00000  Uiso   1.00
O219   O     0.22829   0.58086   0.25503   0.00000  Uiso   1.00
O220   O     0.10504   0.41914   0.24498   0.00000  Uiso   1.00
O221   O     0.08851   0.49263   0.30855   0.00000  Uiso   1.00
O222   O     0.24482   0.50737   0.19146   0.00000  Uiso   1.00
O223   O     0.18866   0.50207   0.31671   0.00000  Uiso   1.00
O224   O     0.14468   0.49793   0.18329   0.00000  Uiso   1.00
C225   C     0.51507   0.60009   0.25130   0.00000  Uiso   1.00
C226   C     0.53894   0.50295   0.16675   0.00000  Uiso   1.00
C227   C     0.43670   0.49079   0.38111   0.00000  Uiso   1.00
C228   C     0.56330   0.50921   0.11889   0.00000  Uiso   1.00
C229   C     0.37006   0.43235   0.43899   0.00000  Uiso   1.00
C230   C     0.62993   0.56766   0.06102   0.00000  Uiso   1.00
C231   C     0.37986   0.45334   0.39806   0.00000  Uiso   1.00
C232   C     0.62013   0.54666   0.10195   0.00000  Uiso   1.00
C233   C     0.47631   0.51480   0.40888   0.00000  Uiso   1.00
C234   C     0.52370   0.48520   0.09113   0.00000  Uiso   1.00
C235   C     0.46359   0.49562   0.45197   0.00000  Uiso   1.00
C236   C     0.48492   0.39991   0.24870   0.00000  Uiso   1.00
C237   C     0.53641   0.50438   0.04803   0.00000  Uiso   1.00
C238   C     0.41421   0.44994   0.46378   0.00000  Uiso   1.00
C239   C     0.58578   0.55007   0.03622   0.00000  Uiso   1.00
C240   C     0.50160   0.51579   0.48216   0.00000  Uiso   1.00
C241   C     0.49840   0.48421   0.01784   0.00000  Uiso   1.00
C242   C     0.46592   0.44651   0.10993   0.00000  Uiso   1.00
C243   C     0.53409   0.55348   0.39007   0.00000  Uiso   1.00
C244   C     0.45843   0.43340   0.02134   0.00000  Uiso   1.00
C245   C     0.54156   0.56660   0.47866   0.00000  Uiso   1.00
C246   C     0.41283   0.41895   0.49791   0.00000  Uiso   1.00
C247   C     0.58717   0.58105   0.00209   0.00000  Uiso   1.00
C248   C     0.52356   0.65607   0.25194   0.00000  Uiso   1.00
C249   C     0.47644   0.34393   0.24806   0.00000  Uiso   1.00
C250   C     0.46106   0.49705   0.33325   0.00000  Uiso   1.00
Cu251  Cu    0.44071   0.49441   0.24517   0.00000  Uiso   1.00
Cu252  Cu    0.55929   0.50559   0.25484   0.00000  Uiso   1.00
H253   H     0.37955   0.38108   0.00419   0.00000  Uiso   1.00
H254   H     0.66547   0.46198   0.21551   0.00000  Uiso   1.00
H255   H     0.36617   0.59896   0.11263   0.00000  Uiso   1.00
H256   H     0.35406   0.53783   0.13074   0.00000  Uiso   1.00
H257   H     0.64595   0.46220   0.36926   0.00000  Uiso   1.00
H258   H     0.63382   0.40107   0.38738   0.00000  Uiso   1.00
H259   H     0.62044   0.61892   0.49582   0.00000  Uiso   1.00
H260   H     0.66341   0.39957   0.45026   0.00000  Uiso   1.00
H261   H     0.33658   0.60044   0.04974   0.00000  Uiso   1.00
H262   H     0.46240   0.40337   0.04127   0.00000  Uiso   1.00
H263   H     0.53759   0.59663   0.45873   0.00000  Uiso   1.00
H264   H     0.56893   0.34662   0.25562   0.00000  Uiso   1.00
H265   H     0.43107   0.65338   0.24438   0.00000  Uiso   1.00
H266   H     0.33453   0.53802   0.28449   0.00000  Uiso   1.00
N267   N     0.64839   0.51401   0.26212   0.00000  Uiso   1.00
N268   N     0.35161   0.48599   0.23788   0.00000  Uiso   1.00
N269   N     0.41990   0.41590   0.12535   0.00000  Uiso   1.00
N270   N     0.58012   0.58409   0.37465   0.00000  Uiso   1.00
N271   N     0.66403   0.56755   0.12818   0.00000  Uiso   1.00
N272   N     0.33596   0.43247   0.37182   0.00000  Uiso   1.00
O273   O     0.46148   0.57142   0.24686   0.00000  Uiso   1.00
O274   O     0.53852   0.42858   0.25314   0.00000  Uiso   1.00
O275   O     0.56163   0.58086   0.25503   0.00000  Uiso   1.00
O276   O     0.43837   0.41914   0.24498   0.00000  Uiso   1.00
O277   O     0.42185   0.49263   0.30855   0.00000  Uiso   1.00
O278   O     0.57815   0.50737   0.19146   0.00000  Uiso   1.00
O279   O     0.52199   0.50207   0.31671   0.00000  Uiso   1.00
O280   O     0.47801   0.49793   0.18329   0.00000  Uiso   1.00
C281   C     0.84841   0.60009   0.25130   0.00000  Uiso   1.00
C282   C     0.87227   0.50295   0.16675   0.00000  Uiso   1.00
C283   C     0.77003   0.49079   0.38111   0.00000  Uiso   1.00
C284   C     0.89664   0.50921   0.11889   0.00000  Uiso   1.00
C285   C     0.70340   0.43235   0.43899   0.00000  Uiso   1.00
C286   C     0.96326   0.56766   0.06102   0.00000  Uiso   1.00
C287   C     0.71320   0.45334   0.39806   0.00000  Uiso   1.00
C288   C     0.95347   0.54666   0.10195   0.00000  Uiso   1.00
C289   C     0.80964   0.51480   0.40888   0.00000  Uiso   1.00
C290   C     0.85703   0.48520   0.09113   0.00000  Uiso   1.00
C291   C     0.79692   0.49562   0.45197   0.00000  Uiso   1.00
C292   C     0.81826   0.39991   0.24870   0.00000  Uiso   1.00
C293   C     0.86974   0.50438   0.04803   0.00000  Uiso   1.00
C294   C     0.74754   0.44994   0.46378   0.00000  Uiso   1.00
C295   C     0.91912   0.55007   0.03622   0.00000  Uiso   1.00
C296   C     0.83493   0.51579   0.48216   0.00000  Uiso   1.00
C297   C     0.83174   0.48421   0.01784   0.00000  Uiso   1.00
C298   C     0.79926   0.44651   0.10993   0.00000  Uiso   1.00
C299   C     0.86742   0.55348   0.39007   0.00000  Uiso   1.00
C300   C     0.79177   0.43340   0.02134   0.00000  Uiso   1.00
C301   C     0.87489   0.56660   0.47866   0.00000  Uiso   1.00
C302   C     0.74616   0.41895   0.49791   0.00000  Uiso   1.00
C303   C     0.92050   0.58105   0.00209   0.00000  Uiso   1.00
C304   C     0.85689   0.65607   0.25194   0.00000  Uiso   1.00
C305   C     0.80977   0.34393   0.24806   0.00000  Uiso   1.00
C306   C     0.79440   0.49705   0.33325   0.00000  Uiso   1.00
Cu307  Cu    0.77404   0.49441   0.24517   0.00000  Uiso   1.00
Cu308  Cu    0.89263   0.50559   0.25484   0.00000  Uiso   1.00
H309   H     0.71288   0.38108   0.00419   0.00000  Uiso   1.00
H310   H     0.99880   0.46198   0.21551   0.00000  Uiso   1.00
H311   H     0.69950   0.59896   0.11263   0.00000  Uiso   1.00
H312   H     0.68739   0.53783   0.13074   0.00000  Uiso   1.00
H313   H     0.97928   0.46220   0.36926   0.00000  Uiso   1.00
H314   H     0.96715   0.40107   0.38738   0.00000  Uiso   1.00
H315   H     0.95377   0.61892   0.49582   0.00000  Uiso   1.00
H316   H     0.99675   0.39957   0.45026   0.00000  Uiso   1.00
H317   H     0.66991   0.60044   0.04974   0.00000  Uiso   1.00
H318   H     0.79574   0.40337   0.04127   0.00000  Uiso   1.00
H319   H     0.87092   0.59663   0.45873   0.00000  Uiso   1.00
H320   H     0.90227   0.34662   0.25562   0.00000  Uiso   1.00
H321   H     0.76440   0.65338   0.24438   0.00000  Uiso   1.00
H322   H     0.66787   0.53802   0.28449   0.00000  Uiso   1.00
N323   N     0.98173   0.51401   0.26212   0.00000  Uiso   1.00
N324   N     0.68494   0.48599   0.23788   0.00000  Uiso   1.00
N325   N     0.75323   0.41590   0.12535   0.00000  Uiso   1.00
N326   N     0.91345   0.58409   0.37465   0.00000  Uiso   1.00
N327   N     0.99736   0.56755   0.12818   0.00000  Uiso   1.00
N328   N     0.66930   0.43247   0.37182   0.00000  Uiso   1.00
O329   O     0.79482   0.57142   0.24686   0.00000  Uiso   1.00
O330   O     0.87185   0.42858   0.25314   0.00000  Uiso   1.00
O331   O     0.89496   0.58086   0.25503   0.00000  Uiso   1.00
O332   O     0.77171   0.41914   0.24498   0.00000  Uiso   1.00
O333   O     0.75518   0.49263   0.30855   0.00000  Uiso   1.00
O334   O     0.91149   0.50737   0.19146   0.00000  Uiso   1.00
O335   O     0.85532   0.50207   0.31671   0.00000  Uiso   1.00
O336   O     0.81134   0.49793   0.18329   0.00000  Uiso   1.00
C337   C     0.18174   0.93342   0.25130   0.00000  Uiso   1.00
C338   C     0.20560   0.83628   0.16675   0.00000  Uiso   1.00
C339   C     0.10336   0.82412   0.38111   0.00000  Uiso   1.00
C340   C     0.22997   0.84255   0.11889   0.00000  Uiso   1.00
C341   C     0.03673   0.76568   0.43899   0.00000  Uiso   1.00
C342   C     0.29660   0.90099   0.06102   0.00000  Uiso   1.00
C343   C     0.04653   0.78668   0.39806   0.00000  Uiso   1.00
C344   C     0.28680   0.88000   0.10195   0.00000  Uiso   1.00
C345   C     0.14297   0.84813   0.40888   0.00000  Uiso   1.00
C346   C     0.19036   0.81853   0.09113   0.00000  Uiso   1.00
C347   C     0.13026   0.82896   0.45197   0.00000  Uiso   1.00
C348   C     0.15159   0.73325   0.24870   0.00000  Uiso   1.00
C349   C     0.20307   0.83771   0.04803   0.00000  Uiso   1.00
C350   C     0.08088   0.78327   0.46378   0.00000  Uiso   1.00
C351   C     0.25245   0.88340   0.03622   0.00000  Uiso   1.00
C352   C     0.16826   0.84912   0.48216   0.00000  Uiso   1.00
C353   C     0.16507   0.81754   0.01784   0.00000  Uiso   1.00
C354   C     0.13259   0.77985   0.10993   0.00000  Uiso   1.00
C355   C     0.20075   0.88681   0.39007   0.00000  Uiso   1.00
C356   C     0.12510   0.76673   0.02134   0.00000  Uiso   1.00
C357   C     0.20823   0.89994   0.47866   0.00000  Uiso   1.00
C358   C     0.07950   0.75228   0.49791   0.00000  Uiso   1.00
C359   C     0.25383   0.91439   0.00209   0.00000  Uiso   1.00
C360   C     0.19023   0.98940   0.25194   0.00000  Uiso   1.00
C361   C     0.14311   0.67726   0.24806   0.00000  Uiso   1.00
C362   C     0.12773   0.83039   0.33325   0.00000  Uiso   1.00
Cu363  Cu    0.10737   0.82775   0.24517   0.00000  Uiso   1.00
Cu364  Cu    0.22596   0.83892   0.25484   0.00000  Uiso   1.00
H365   H     0.04622   0.71442   0.00419   0.00000  Uiso   1.00
H366   H     0.33213   0.79531   0.21551   0.00000  Uiso   1.00
H367   H     0.03283   0.93229   0.11263   0.00000  Uiso   1.00
H368   H     0.02072   0.87116   0.13074   0.00000  Uiso   1.00
H369   H     0.31261   0.79553   0.36926   0.00000  Uiso   1.00
H370   H     0.30048   0.73440   0.38738   0.00000  Uiso   1.00
H371   H     0.28711   0.95225   0.49582   0.00000  Uiso   1.00
H372   H     0.33008   0.73290   0.45026   0.00000  Uiso   1.00
H373   H     0.00324   0.93378   0.04974   0.00000  Uiso   1.00
H374   H     0.12907   0.73670   0.04127   0.00000  Uiso   1.00
H375   H     0.20426   0.92997   0.45873   0.00000  Uiso   1.00
H376   H     0.23560   0.67995   0.25562   0.00000  Uiso   1.00
H377   H     0.09773   0.98672   0.24438   0.00000  Uiso   1.00
H378   H     0.00120   0.87135   0.28449   0.00000  Uiso   1.00
N379   N     0.31506   0.84735   0.26212   0.00000  Uiso   1.00
N380   N     0.01827   0.81932   0.23788   0.00000  Uiso   1.00
N381   N     0.08656   0.74923   0.12535   0.00000  Uiso   1.00
N382   N     0.24679   0.91742   0.37465   0.00000  Uiso   1.00
N383   N     0.33069   0.90089   0.12818   0.00000  Uiso   1.00
N384   N     0.00263   0.76580   0.37182   0.00000  Uiso   1.00
O385   O     0.12815   0.90476   0.24686   0.00000  Uiso   1.00
O386   O     0.20518   0.76191   0.25314   0.00000  Uiso   1.00
O387   O     0.22829   0.91420   0.25503   0.00000  Uiso   1.00
O388   O     0.10504   0.75247   0.24498   0.00000  Uiso   1.00
O389   O     0.08851   0.82597   0.30855   0.00000  Uiso   1.00
O390   O     0.24482   0.84070   0.19146   0.00000  Uiso   1.00
O391   O     0.18866   0.83540   0.31671   0.00000  Uiso   1.00
O392   O     0.14468   0.83126   0.18329   0.00000  Uiso   1.00
C393   C     0.51507   0.93342   0.25130   0.00000  Uiso   1.00
C394   C     0.53894   0.83628   0.16675   0.00000  Uiso   1.00
C395   C     0.43670   0.82412   0.38111   0.00000  Uiso   1.00
C396   C     0.56330   0.84255   0.11889   0.00000  Uiso   1.00
C397   C     0.37006   0.76568   0.43899   0.00000  Uiso   1.00
C398   C     0.62993   0.90099   0.06102   0.00000  Uiso   1.00
C399   C     0.37986   0.78668   0.39806   0.00000  Uiso   1.00
C400   C     0.62013   0.88000   0.10195   0.00000  Uiso   1.00
C401   C     0.47631   0.84813   0.40888   0.00000  Uiso   1.00
C402   C     0.52370   0.81853   0.09113   0.00000  Uiso   1.00
C403   C     0.46359   0.82896   0.45197   0.00000  Uiso   1.00
C404   C     0.48492   0.73325   0.24870   0.00000  Uiso   1.00
C405   C     0.53641   0.83771   0.04803   0.00000  Uiso   1.00
C406   C     0.41421   0.78327   0.46378   0.00000  Uiso   1.00
C407   C     0.58578   0.88340   0.03622   0.00000  Uiso   1.00
C408   C     0.50160   0.84912   0.48216   0.00000  Uiso   1.00
C409   C     0.49840   0.81754   0.01784   0.00000  Uiso   1.00
C410   C     0.46592   0.77985   0.10993   0.00000  Uiso   1.00
C411   C     0.53409   0.88681   0.39007   0.00000  Uiso   1.00
C412   C     0.45843   0.76673   0.02134   0.00000  Uiso   1.00
C413   C     0.54156   0.89994   0.47866   0.00000  Uiso   1.00
C414   C     0.41283   0.75228   0.49791   0.00000  Uiso   1.00
C415   C     0.58717   0.91439   0.00209   0.00000  Uiso   1.00
C416   C     0.52356   0.98940   0.25194   0.00000  Uiso   1.00
C417   C     0.47644   0.67726   0.24806   0.00000  Uiso   1.00
C418   C     0.46106   0.83039   0.33325   0.00000  Uiso   1.00
Cu419  Cu    0.44071   0.82775   0.24517   0.00000  Uiso   1.00
Cu420  Cu    0.55929   0.83892   0.25484   0.00000  Uiso   1.00
H421   H     0.37955   0.71442   0.00419   0.00000  Uiso   1.00
H422   H     0.66547   0.79531   0.21551   0.00000  Uiso   1.00
H423   H     0.36617   0.93229   0.11263   0.00000  Uiso   1.00
H424   H     0.35406   0.87116   0.13074   0.00000  Uiso   1.00
H425   H     0.64595   0.79553   0.36926   0.00000  Uiso   1.00
H426   H     0.63382   0.73440   0.38738   0.00000  Uiso   1.00
H427   H     0.62044   0.95225   0.49582   0.00000  Uiso   1.00
H428   H     0.66341   0.73290   0.45026   0.00000  Uiso   1.00
H429   H     0.33658   0.93378   0.04974   0.00000  Uiso   1.00
H430   H     0.46240   0.73670   0.04127   0.00000  Uiso   1.00
H431   H     0.53759   0.92997   0.45873   0.00000  Uiso   1.00
H432   H     0.56893   0.67995   0.25562   0.00000  Uiso   1.00
H433   H     0.43107   0.98672   0.24438   0.00000  Uiso   1.00
H434   H     0.33453   0.87135   0.28449   0.00000  Uiso   1.00
N435   N     0.64839   0.84735   0.26212   0.00000  Uiso   1.00
N436   N     0.35161   0.81932   0.23788   0.00000  Uiso   1.00
N437   N     0.41990   0.74923   0.12535   0.00000  Uiso   1.00
N438   N     0.58012   0.91742   0.37465   0.00000  Uiso   1.00
N439   N     0.66403   0.90089   0.12818   0.00000  Uiso   1.00
N440   N     0.33596   0.76580   0.37182   0.00000  Uiso   1.00
O441   O     0.46148   0.90476   0.24686   0.00000  Uiso   1.00
O442   O     0.53852   0.76191   0.25314   0.00000  Uiso   1.00
O443   O     0.56163   0.91420   0.25503   0.00000  Uiso   1.00
O444   O     0.43837   0.75247   0.24498   0.00000  Uiso   1.00
O445   O     0.42185   0.82597   0.30855   0.00000  Uiso   1.00
O446   O     0.57815   0.84070   0.19146   0.00000  Uiso   1.00
O447   O     0.52199   0.83540   0.31671   0.00000  Uiso   1.00
O448   O     0.47801   0.83126   0.18329   0.00000  Uiso   1.00
C449   C     0.84841   0.93342   0.25130   0.00000  Uiso   1.00
C450   C     0.87227   0.83628   0.16675   0.00000  Uiso   1.00
C451   C     0.77003   0.82412   0.38111   0.00000  Uiso   1.00
C452   C     0.89664   0.84255   0.11889   0.00000  Uiso   1.00
C453   C     0.70340   0.76568   0.43899   0.00000  Uiso   1.00
C454   C     0.96326   0.90099   0.06102   0.00000  Uiso   1.00
C455   C     0.71320   0.78668   0.39806   0.00000  Uiso   1.00
C456   C     0.95347   0.88000   0.10195   0.00000  Uiso   1.00
C457   C     0.80964   0.84813   0.40888   0.00000  Uiso   1.00
C458   C     0.85703   0.81853   0.09113   0.00000  Uiso   1.00
C459   C     0.79692   0.82896   0.45197   0.00000  Uiso   1.00
C460   C     0.81826   0.73325   0.24870   0.00000  Uiso   1.00
C461   C     0.86974   0.83771   0.04803   0.00000  Uiso   1.00
C462   C     0.74754   0.78327   0.46378   0.00000  Uiso   1.00
C463   C     0.91912   0.88340   0.03622   0.00000  Uiso   1.00
C464   C     0.83493   0.84912   0.48216   0.00000  Uiso   1.00
C465   C     0.83174   0.81754   0.01784   0.00000  Uiso   1.00
C466   C     0.79926   0.77985   0.10993   0.00000  Uiso   1.00
C467   C     0.86742   0.88681   0.39007   0.00000  Uiso   1.00
C468   C     0.79177   0.76673   0.02134   0.00000  Uiso   1.00
C469   C     0.87489   0.89994   0.47866   0.00000  Uiso   1.00
C470   C     0.74616   0.75228   0.49791   0.00000  Uiso   1.00
C471   C     0.92050   0.91439   0.00209   0.00000  Uiso   1.00
C472   C     0.85689   0.98940   0.25194   0.00000  Uiso   1.00
C473   C     0.80977   0.67726   0.24806   0.00000  Uiso   1.00
C474   C     0.79440   0.83039   0.33325   0.00000  Uiso   1.00
Cu475  Cu    0.77404   0.82775   0.24517   0.00000  Uiso   1.00
Cu476  Cu    0.89263   0.83892   0.25484   0.00000  Uiso   1.00
H477   H     0.71288   0.71442   0.00419   0.00000  Uiso   1.00
H478   H     0.99880   0.79531   0.21551   0.00000  Uiso   1.00
H479   H     0.69950   0.93229   0.11263   0.00000  Uiso   1.00
H480   H     0.68739   0.87116   0.13074   0.00000  Uiso   1.00
H481   H     0.97928   0.79553   0.36926   0.00000  Uiso   1.00
H482   H     0.96715   0.73440   0.38738   0.00000  Uiso   1.00
H483   H     0.95377   0.95225   0.49582   0.00000  Uiso   1.00
H484   H     0.99675   0.73290   0.45026   0.00000  Uiso   1.00
H485   H     0.66991   0.93378   0.04974   0.00000  Uiso   1.00
H486   H     0.79574   0.73670   0.04127   0.00000  Uiso   1.00
H487   H     0.87092   0.92997   0.45873   0.00000  Uiso   1.00
H488   H     0.90227   0.67995   0.25562   0.00000  Uiso   1.00
H489   H     0.76440   0.98672   0.24438   0.00000  Uiso   1.00
H490   H     0.66787   0.87135   0.28449   0.00000  Uiso   1.00
N491   N     0.98173   0.84735   0.26212   0.00000  Uiso   1.00
N492   N     0.68494   0.81932   0.23788   0.00000  Uiso   1.00
N493   N     0.75323   0.74923   0.12535   0.00000  Uiso   1.00
N494   N     0.91345   0.91742   0.37465   0.00000  Uiso   1.00
N495   N     0.99736   0.90089   0.12818   0.00000  Uiso   1.00
N496   N     0.66930   0.76580   0.37182   0.00000  Uiso   1.00
O497   O     0.79482   0.90476   0.24686   0.00000  Uiso   1.00
O498   O     0.87185   0.76191   0.25314   0.00000  Uiso   1.00
O499   O     0.89496   0.91420   0.25503   0.00000  Uiso   1.00
O500   O     0.77171   0.75247   0.24498   0.00000  Uiso   1.00
O501   O     0.75518   0.82597   0.30855   0.00000  Uiso   1.00
O502   O     0.91149   0.84070   0.19146   0.00000  Uiso   1.00
O503   O     0.85532   0.83540   0.31671   0.00000  Uiso   1.00
O504   O     0.81134   0.83126   0.18329   0.00000  Uiso   1.00
C505   C     0.18174   0.26675   0.75130   0.00000  Uiso   1.00
C506   C     0.20560   0.16961   0.66675   0.00000  Uiso   1.00
C507   C     0.10336   0.15745   0.88111   0.00000  Uiso   1.00
C508   C     0.22997   0.17588   0.61889   0.00000  Uiso   1.00
C509   C     0.03673   0.09902   0.93899   0.00000  Uiso   1.00
C510   C     0.29660   0.23432   0.56102   0.00000  Uiso   1.00
C511   C     0.04653   0.12001   0.89806   0.00000  Uiso   1.00
C512   C     0.28680   0.21333   0.60195   0.00000  Uiso   1.00
C513   C     0.14297   0.18147   0.90888   0.00000  Uiso   1.00
C514   C     0.19036   0.15187   0.59113   0.00000  Uiso   1.00
C515   C     0.13026   0.16229   0.95197   0.00000  Uiso   1.00
C516   C     0.15159   0.06658   0.74870   0.00000  Uiso   1.00
C517   C     0.20307   0.17104   0.54803   0.00000  Uiso   1.00
C518   C     0.08088   0.11660   0.96378   0.00000  Uiso   1.00
C519   C     0.25245   0.21673   0.53622   0.00000  Uiso   1.00
C520   C     0.16826   0.18246   0.98216   0.00000  Uiso   1.00
C521   C     0.16507   0.15088   0.51784   0.00000  Uiso   1.00
C522   C     0.13259   0.11318   0.60993   0.00000  Uiso   1.00
C523   C     0.20075   0.22014   0.89007   0.00000  Uiso   1.00
C524   C     0.12510   0.10006   0.52134   0.00000  Uiso   1.00
C525   C     0.20823   0.23327   0.97866   0.00000  Uiso   1.00
C526   C     0.07950   0.08562   0.99791   0.00000  Uiso   1.00
C527   C     0.25383   0.24772   0.50209   0.00000  Uiso   1.00
C528   C     0.19023   0.32274   0.75194   0.00000  Uiso   1.00
C529   C     0.14311   0.01060   0.74806   0.00000  Uiso   1.00
C530   C     0.12773   0.16372   0.83325   0.00000  Uiso   1.00
Cu531  Cu    0.10737   0.16108   0.74517   0.00000  Uiso   1.00
Cu532  Cu    0.22596   0.17225   0.75484   0.00000  Uiso   1.00
H533   H     0.04622   0.04775   0.50419   0.00000  Uiso   1.00
H534   H     0.33213   0.12865   0.71551   0.00000  Uiso   1.00
H535   H     0.03283   0.26562   0.61263   0.00000  Uiso   1.00
H536   H     0.02072   0.20449   0.63074   0.00000  Uiso   1.00
H537   H     0.31261   0.12887   0.86926   0.00000  Uiso   1.00
H538   H     0.30048   0.06773   0.88738   0.00000  Uiso   1.00
H539   H     0.28711   0.28559   0.99582   0.00000  Uiso   1.00
H540   H     0.33008   0.06623   0.95026   0.00000  Uiso   1.00
H541   H     0.00324   0.26711   0.54974   0.00000  Uiso   1.00
H542   H     0.12907   0.07003   0.54127   0.00000  Uiso   1.00
H543   H     0.20426   0.26330   0.95873   0.00000  Uiso   1.00
H544   H     0.23560   0.01328   0.75562   0.00000  Uiso   1.00
H545   H     0.09773   0.32005   0.74438   0.00000  Uiso   1.00
H546   H     0.00120   0.20469   0.78449   0.00000  Uiso   1.00
N547   N     0.31506   0.18068   0.76212   0.00000  Uiso   1.00
N548   N     0.01827   0.15265   0.73788   0.00000  Uiso   1.00
N549   N     0.08656   0.08256   0.62535   0.00000  Uiso   1.00
N550   N     0.24679   0.25076   0.87465   0.00000  Uiso   1.00
N551   N     0.33069   0.23422   0.62818   0.00000  Uiso   1.00
N552   N     0.00263   0.09913   0.87182   0.00000  Uiso   1.00
O553   O     0.12815   0.23809   0.74686   0.00000  Uiso   1.00
O554   O     0.20518   0.09524   0.75314   0.00000  Uiso   1.00
O555   O     0.22829   0.24753   0.75503   0.00000  Uiso   1.00
O556   O     0.10504   0.08580   0.74498   0.00000  Uiso   1.00
O557   O     0.08851   0.15930   0.80855   0.00000  Uiso   1.00
O558   O     0.24482   0.17403   0.69146   0.00000  Uiso   1.00
O559   O     0.18866   0.16874   0.81671   0.00000  Uiso   1.00
O560   O     0.14468   0.16460   0.68329   0.00000  Uiso   1.00
C561   C     0.51507   0.26675   0.75130   0.00000  Uiso   1.00
C562   C     0.53894   0.16961   0.66675   0.00000  Uiso   1.00
C563   C     0.43670   0.15745   0.88111   0.00000  Uiso   1.00
C564   C     0.56330   0.17588   0.61889   0.00000  Uiso   1.00
C565   C     0.37006   0.09902   0.93899   0.00000  Uiso   1.00
C566   C     0.62993   0.23432   0.56102   0.00000  Uiso   1.00
C567   C     0.37986   0.12001   0.89806   0.00000  Uiso   1.00
C568   C     0.62013   0.21333   0.60195   0.00000  Uiso   1.00
C569   C     0.47631   0.18147   0.90888   0.00000  Uiso   1.00
C570   C     0.52370   0.15187   0.59113   0.00000  Uiso   1.00
C571   C     0.46359   0.16229   0.95197   0.00000  Uiso   1.00
C572   C     0.48492   0.06658   0.74870   0.00000  Uiso   1.00
C573   C     0.53641   0.17104   0.54803   0.00000  Uiso   1.00
C574   C     0.41421   0.11660   0.96378   0.00000  Uiso   1.00
C575   C     0.58578   0.21673   0.53622   0.00000  Uiso   1.00
C576   C     0.50160   0.18246   0.98216   0.00000  Uiso   1.00
C577   C     0.49840   0.15088   0.51784   0.00000  Uiso   1.00
C578   C     0.46592   0.11318   0.60993   0.00000  Uiso   1.00
C579   C     0.53409   0.22014   0.89007   0.00000  Uiso   1.00
C580   C     0.45843   0.10006   0.52134   0.00000  Uiso   1.00
C581   C     0.54156   0.23327   0.97866   0.00000  Uiso   1.00
C582   C     0.41283   0.08562   0.99791   0.00000  Uiso   1.00
C583   C     0.58717   0.24772   0.50209   0.00000  Uiso   1.00
C584   C     0.52356   0.32274   0.75194   0.00000  Uiso   1.00
C585   C     0.47644   0.01060   0.74806   0.00000  Uiso   1.00
C586   C     0.46106   0.16372   0.83325   0.00000  Uiso   1.00
Cu587  Cu    0.44071   0.16108   0.74517   0.00000  Uiso   1.00
Cu588  Cu    0.55929   0.17225   0.75484   0.00000  Uiso   1.00
H589   H     0.37955   0.04775   0.50419   0.00000  Uiso   1.00
H590   H     0.66547   0.12865   0.71551   0.00000  Uiso   1.00
H591   H     0.36617   0.26562   0.61263   0.00000  Uiso   1.00
H592   H     0.35406   0.20449   0.63074   0.00000  Uiso   1.00
H593   H     0.64595   0.12887   0.86926   0.00000  Uiso   1.00
H594   H     0.63382   0.06773   0.88738   0.00000  Uiso   1.00
H595   H     0.62044   0.28559   0.99582   0.00000  Uiso   1.00
H596   H     0.66341   0.06623   0.95026   0.00000  Uiso   1.00
H597   H     0.33658   0.26711   0.54974   0.00000  Uiso   1.00
H598   H     0.46240   0.07003   0.54127   0.00000  Uiso   1.00
H599   H     0.53759   0.26330   0.95873   0.00000  Uiso   1.00
H600   H     0.56893   0.01328   0.75562   0.00000  Uiso   1.00
H601   H     0.43107   0.32005   0.74438   0.00000  Uiso   1.00
H602   H     0.33453   0.20469   0.78449   0.00000  Uiso   1.00
N603   N     0.64839   0.18068   0.76212   0.00000  Uiso   1.00
N604   N     0.35161   0.15265   0.73788   0.00000  Uiso   1.00
N605   N     0.41990   0.08256   0.62535   0.00000  Uiso   1.00
N606   N     0.58012   0.25076   0.87465   0.00000  Uiso   1.00
N607   N     0.66403   0.23422   0.62818   0.00000  Uiso   1.00
N608   N     0.33596   0.09913   0.87182   0.00000  Uiso   1.00
O609   O     0.46148   0.23809   0.74686   0.00000  Uiso   1.00
O610   O     0.53852   0.09524   0.75314   0.00000  Uiso   1.00
O611   O     0.56163   0.24753   0.75503   0.00000  Uiso   1.00
O612   O     0.43837   0.08580   0.74498   0.00000  Uiso   1.00
O613   O     0.42185   0.15930   0.80855   0.00000  Uiso   1.00
O614   O     0.57815   0.17403   0.69146   0.00000  Uiso   1.00
O615   O     0.52199   0.16874   0.81671   0.00000  Uiso   1.00
O616   O     0.47801   0.16460   0.68329   0.00000  Uiso   1.00
C617   C     0.84841   0.26675   0.75130   0.00000  Uiso   1.00
C618   C     0.87227   0.16961   0.66675   0.00000  Uiso   1.00
C619   C     0.77003   0.15745   0.88111   0.00000  Uiso   1.00
C620   C     0.89664   0.17588   0.61889   0.00000  Uiso   1.00
C621   C     0.70340   0.09902   0.93899   0.00000  Uiso   1.00
C622   C     0.96326   0.23432   0.56102   0.00000  Uiso   1.00
C623   C     0.71320   0.12001   0.89806   0.00000  Uiso   1.00
C624   C     0.95347   0.21333   0.60195   0.00000  Uiso   1.00
C625   C     0.80964   0.18147   0.90888   0.00000  Uiso   1.00
C626   C     0.85703   0.15187   0.59113   0.00000  Uiso   1.00
C627   C     0.79692   0.16229   0.95197   0.00000  Uiso   1.00
C628   C     0.81826   0.06658   0.74870   0.00000  Uiso   1.00
C629   C     0.86974   0.17104   0.54803   0.00000  Uiso   1.00
C630   C     0.74754   0.11660   0.96378   0.00000  Uiso   1.00
C631   C     0.91912   0.21673   0.53622   0.00000  Uiso   1.00
C632   C     0.83493   0.18246   0.98216   0.00000  Uiso   1.00
C633   C     0.83174   0.15088   0.51784   0.00000  Uiso   1.00
C634   C     0.79926   0.11318   0.60993   0.00000  Uiso   1.00
C635   C     0.86742   0.22014   0.89007   0.00000  Uiso   1.00
C636   C     0.79177   0.10006   0.52134   0.00000  Uiso   1.00
C637   C     0.87489   0.23327   0.97866   0.00000  Uiso   1.00
C638   C     0.74616   0.08562   0.99791   0.00000  Uiso   1.00
C639   C     0.92050   0.24772   0.50209   0.00000  Uiso   1.00
C640   C     0.85689   0.32274   0.75194   0.00000  Uiso   1.00
C641   C     0.80977   0.01060   0.74806   0.00000  Uiso   1.00
C642   C     0.79440   0.16372   0.83325   0.00000  Uiso   1.00
Cu643  Cu    0.77404   0.16108   0.74517   0.00000  Uiso   1.00
Cu644  Cu    0.89263   0.17225   0.75484   0.00000  Uiso   1.00
H645   H     0.71288   0.04775   0.50419   0.00000  Uiso   1.00
H646   H     0.99880   0.12865   0.71551   0.00000  Uiso   1.00
H647   H     0.69950   0.26562   0.61263   0.00000  Uiso   1.00
H648   H     0.68739   0.20449   0.63074   0.00000  Uiso   1.00
H649   H     0.97928   0.12887   0.86926   0.00000  Uiso   1.00
H650   H     0.96715   0.06773   0.88738   0.00000  Uiso   1.00
H651   H     0.95377   0.28559   0.99582   0.00000  Uiso   1.00
H652   H     0.99675   0.06623   0.95026   0.00000  Uiso   1.00
H653   H     0.66991   0.26711   0.54974   0.00000  Uiso   1.00
H654   H     0.79574   0.07003   0.54127   0.00000  Uiso   1.00
H655   H     0.87092   0.26330   0.95873   0.00000  Uiso   1.00
H656   H     0.90227   0.01328   0.75562   0.00000  Uiso   1.00
H657   H     0.76440   0.32005   0.74438   0.00000  Uiso   1.00
H658   H     0.66787   0.20469   0.78449   0.00000  Uiso   1.00
N659   N     0.98173   0.18068   0.76212   0.00000  Uiso   1.00
N660   N     0.68494   0.15265   0.73788   0.00000  Uiso   1.00
N661   N     0.75323   0.08256   0.62535   0.00000  Uiso   1.00
N662   N     0.91345   0.25076   0.87465   0.00000  Uiso   1.00
N663   N     0.99736   0.23422   0.62818   0.00000  Uiso   1.00
N664   N     0.66930   0.09913   0.87182   0.00000  Uiso   1.00
O665   O     0.79482   0.23809   0.74686   0.00000  Uiso   1.00
O666   O     0.87185   0.09524   0.75314   0.00000  Uiso   1.00
O667   O     0.89496   0.24753   0.75503   0.00000  Uiso   1.00
O668   O     0.77171   0.08580   0.74498   0.00000  Uiso   1.00
O669   O     0.75518   0.15930   0.80855   0.00000  Uiso   1.00
O670   O     0.91149   0.17403   0.69146   0.00000  Uiso   1.00
O671   O     0.85532   0.16874   0.81671   0.00000  Uiso   1.00
O672   O     0.81134   0.16460   0.68329   0.00000  Uiso   1.00
C673   C     0.18174   0.60009   0.75130   0.00000  Uiso   1.00
C674   C     0.20560   0.50295   0.66675   0.00000  Uiso   1.00
C675   C     0.10336   0.49079   0.88111   0.00000  Uiso   1.00
C676   C     0.22997   0.50921   0.61889   0.00000  Uiso   1.00
C677   C     0.03673   0.43235   0.93899   0.00000  Uiso   1.00
C678   C     0.29660   0.56766   0.56102   0.00000  Uiso   1.00
C679   C     0.04653   0.45334   0.89806   0.00000  Uiso   1.00
C680   C     0.28680   0.54666   0.60195   0.00000  Uiso   1.00
C681   C     0.14297   0.51480   0.90888   0.00000  Uiso   1.00
C682   C     0.19036   0.48520   0.59113   0.00000  Uiso   1.00
C683   C     0.13026   0.49562   0.95197   0.00000  Uiso   1.00
C684   C     0.15159   0.39991   0.74870   0.00000  Uiso   1.00
C685   C     0.20307   0.50438   0.54803   0.00000  Uiso   1.00
C686   C     0.08088   0.44994   0.96378   0.00000  Uiso   1.00
C687   C     0.25245   0.55007   0.53622   0.00000  Uiso   1.00
C688   C     0.16826   0.51579   0.98216   0.00000  Uiso   1.00
C689   C     0.16507   0.48421   0.51784   0.00000  Uiso   1.00
C690   C     0.13259   0.44651   0.60993   0.00000  Uiso   1.00
C691   C     0.20075   0.55348   0.89007   0.00000  Uiso   1.00
C692   C     0.12510   0.43340   0.52134   0.00000  Uiso   1.00
C693   C     0.20823   0.56660   0.97866   0.00000  Uiso   1.00
C694   C     0.07950   0.41895   0.99791   0.00000  Uiso   1.00
C695   C     0.25383   0.58105   0.50209   0.00000  Uiso   1.00
C696   C     0.19023   0.65607   0.75194   0.00000  Uiso   1.00
C697   C     0.14311   0.34393   0.74806   0.00000  Uiso   1.00
C698   C     0.12773   0.49705   0.83325   0.00000  Uiso   1.00
Cu699  Cu    0.10737   0.49441   0.74517   0.00000  Uiso   1.00
Cu700  Cu    0.22596   0.50559   0.75484   0.00000  Uiso   1.00
H701   H     0.04622   0.38108   0.50419   0.00000  Uiso   1.00
H702   H     0.33213   0.46198   0.71551   0.00000  Uiso   1.00
H703   H     0.03283   0.59896   0.61263   0.00000  Uiso   1.00
H704   H     0.02072   0.53783   0.63074   0.00000  Uiso   1.00
H705   H     0.31261   0.46220   0.86926   0.00000  Uiso   1.00
H706   H     0.30048   0.40107   0.88738   0.00000  Uiso   1.00
H707   H     0.28711   0.61892   0.99582   0.00000  Uiso   1.00
H708   H     0.33008   0.39957   0.95026   0.00000  Uiso   1.00
H709   H     0.00324   0.60044   0.54974   0.00000  Uiso   1.00
H710   H     0.12907   0.40337   0.54127   0.00000  Uiso   1.00
H711   H     0.20426   0.59663   0.95873   0.00000  Uiso   1.00
H712   H     0.23560   0.34662   0.75562   0.00000  Uiso   1.00
H713   H     0.09773   0.65338   0.74438   0.00000  Uiso   1.00
H714   H     0.00120   0.53802   0.78449   0.00000  Uiso   1.00
N715   N     0.31506   0.51401   0.76212   0.00000  Uiso   1.00
N716   N     0.01827   0.48599   0.73788   0.00000  Uiso   1.00
N717   N     0.08656   0.41590   0.62535   0.00000  Uiso   1.00
N718   N     0.24679   0.58409   0.87465   0.00000  Uiso   1.00
N719   N     0.33069   0.56755   0.62818   0.00000  Uiso   1.00
N720   N     0.00263   0.43247   0.87182   0.00000  Uiso   1.00
O721   O     0.12815   0.57142   0.74686   0.00000  Uiso   1.00
O722   O     0.20518   0.42858   0.75314   0.00000  Uiso   1.00
O723   O     0.22829   0.58086   0.75503   0.00000  Uiso   1.00
O724   O     0.10504   0.41914   0.74498   0.00000  Uiso   1.00
O725   O     0.08851   0.49263   0.80855   0.00000  Uiso   1.00
O726   O     0.24482   0.50737   0.69146   0.00000  Uiso   1.00
O727   O     0.18866   0.50207   0.81671   0.00000  Uiso   1.00
O728   O     0.14468   0.49793   0.68329   0.00000  Uiso   1.00
C729   C     0.51507   0.60009   0.75130   0.00000  Uiso   1.00
C730   C     0.53894   0.50295   0.66675   0.00000  Uiso   1.00
C731   C     0.43670   0.49079   0.88111   0.00000  Uiso   1.00
C732   C     0.56330   0.50921   0.61889   0.00000  Uiso   1.00
C733   C     0.37006   0.43235   0.93899   0.00000  Uiso   1.00
C734   C     0.62993   0.56766   0.56102   0.00000  Uiso   1.00
C735   C     0.37986   0.45334   0.89806   0.00000  Uiso   1.00
C736   C     0.62013   0.54666   0.60195   0.00000  Uiso   1.00
C737   C     0.47631   0.51480   0.90888   0.00000  Uiso   1.00
C738   C     0.52370   0.48520   0.59113   0.00000  Uiso   1.00
C739   C     0.46359   0.49562   0.95197   0.00000  Uiso   1.00
C740   C     0.48492   0.39991   0.74870   0.00000  Uiso   1.00
C741   C     0.53641   0.50438   0.54803   0.00000  Uiso   1.00
C742   C     0.41421   0.44994   0.96378   0.00000  Uiso   1.00
C743   C     0.58578   0.55007   0.53622   0.00000  Uiso   1.00
C744   C     0.50160   0.51579   0.98216   0.00000  Uiso   1.00
C745   C     0.49840   0.48421   0.51784   0.00000  Uiso   1.00
C746   C     0.46592   0.44651   0.60993   0.00000  Uiso   1.00
C747   C     0.53409   0.55348   0.89007   0.00000  Uiso   1.00
C748   C     0.45843   0.43340   0.52134   0.00000  Uiso   1.00
C749   C     0.54156   0.56660   0.97866   0.00000  Uiso   1.00
C750   C     0.41283   0.41895   0.99791   0.00000  Uiso   1.00
C751   C     0.58717   0.58105   0.50209   0.00000  Uiso   1.00
C752   C     0.52356   0.65607   0.75194   0.00000  Uiso   1.00
C753   C     0.47644   0.34393   0.74806   0.00000  Uiso   1.00
C754   C     0.46106   0.49705   0.83325   0.00000  Uiso   1.00
Cu755  Cu    0.44071   0.49441   0.74517   0.00000  Uiso   1.00
Cu756  Cu    0.55929   0.50559   0.75484   0.00000  Uiso   1.00
H757   H     0.37955   0.38108   0.50419   0.00000  Uiso   1.00
H758   H     0.66547   0.46198   0.71551   0.00000  Uiso   1.00
H759   H     0.36617   0.59896   0.61263   0.00000  Uiso   1.00
H760   H     0.35406   0.53783   0.63074   0.00000  Uiso   1.00
H761   H     0.64595   0.46220   0.86926   0.00000  Uiso   1.00
H762   H     0.63382   0.40107   0.88738   0.00000  Uiso   1.00
H763   H     0.62044   0.61892   0.99582   0.00000  Uiso   1.00
H764   H     0.66341   0.39957   0.95026   0.00000  Uiso   1.00
H765   H     0.33658   0.60044   0.54974   0.00000  Uiso   1.00
H766   H     0.46240   0.40337   0.54127   0.00000  Uiso   1.00
H767   H     0.53759   0.59663   0.95873   0.00000  Uiso   1.00
H768   H     0.56893   0.34662   0.75562   0.00000  Uiso   1.00
H769   H     0.43107   0.65338   0.74438   0.00000  Uiso   1.00
H770   H     0.33453   0.53802   0.78449   0.00000  Uiso   1.00
N771   N     0.64839   0.51401   0.76212   0.00000  Uiso   1.00
N772   N     0.35161   0.48599   0.73788   0.00000  Uiso   1.00
N773   N     0.41990   0.41590   0.62535   0.00000  Uiso   1.00
N774   N     0.58012   0.58409   0.87465   0.00000  Uiso   1.00
N775   N     0.66403   0.56755   0.62818   0.00000  Uiso   1.00
N776   N     0.33596   0.43247   0.87182   0.00000  Uiso   1.00
O777   O     0.46148   0.57142   0.74686   0.00000  Uiso   1.00
O778   O     0.53852   0.42858   0.75314   0.00000  Uiso   1.00
O779   O     0.56163   0.58086   0.75503   0.00000  Uiso   1.00
O780   O     0.43837   0.41914   0.74498   0.00000  Uiso   1.00
O781   O     0.42185   0.49263   0.80855   0.00000  Uiso   1.00
O782   O     0.57815   0.50737   0.69146   0.00000  Uiso   1.00
O783   O     0.52199   0.50207   0.81671   0.00000  Uiso   1.00
O784   O     0.47801   0.49793   0.68329   0.00000  Uiso   1.00
C785   C     0.84841   0.60009   0.75130   0.00000  Uiso   1.00
C786   C     0.87227   0.50295   0.66675   0.00000  Uiso   1.00
C787   C     0.77003   0.49079   0.88111   0.00000  Uiso   1.00
C788   C     0.89664   0.50921   0.61889   0.00000  Uiso   1.00
C789   C     0.70340   0.43235   0.93899   0.00000  Uiso   1.00
C790   C     0.96326   0.56766   0.56102   0.00000  Uiso   1.00
C791   C     0.71320   0.45334   0.89806   0.00000  Uiso   1.00
C792   C     0.95347   0.54666   0.60195   0.00000  Uiso   1.00
C793   C     0.80964   0.51480   0.90888   0.00000  Uiso   1.00
C794   C     0.85703   0.48520   0.59113   0.00000  Uiso   1.00
C795   C     0.79692   0.49562   0.95197   0.00000  Uiso   1.00
C796   C     0.81826   0.39991   0.74870   0.00000  Uiso   1.00
C797   C     0.86974   0.50438   0.54803   0.00000  Uiso   1.00
C798   C     0.74754   0.44994   0.96378   0.00000  Uiso   1.00
C799   C     0.91912   0.55007   0.53622   0.00000  Uiso   1.00
C800   C     0.83493   0.51579   0.98216   0.00000  Uiso   1.00
C801   C     0.83174   0.48421   0.51784   0.00000  Uiso   1.00
C802   C     0.79926   0.44651   0.60993   0.00000  Uiso   1.00
C803   C     0.86742   0.55348   0.89007   0.00000  Uiso   1.00
C804   C     0.79177   0.43340   0.52134   0.00000  Uiso   1.00
C805   C     0.87489   0.56660   0.97866   0.00000  Uiso   1.00
C806   C     0.74616   0.41895   0.99791   0.00000  Uiso   1.00
C807   C     0.92050   0.58105   0.50209   0.00000  Uiso   1.00
C808   C     0.85689   0.65607   0.75194   0.00000  Uiso   1.00
C809   C     0.80977   0.34393   0.74806   0.00000  Uiso   1.00
C810   C     0.79440   0.49705   0.83325   0.00000  Uiso   1.00
Cu811  Cu    0.77404   0.49441   0.74517   0.00000  Uiso   1.00
Cu812  Cu    0.89263   0.50559   0.75484   0.00000  Uiso   1.00
H813   H     0.71288   0.38108   0.50419   0.00000  Uiso   1.00
H814   H     0.99880   0.46198   0.71551   0.00000  Uiso   1.00
H815   H     0.69950   0.59896   0.61263   0.00000  Uiso   1.00
H816   H     0.68739   0.53783   0.63074   0.00000  Uiso   1.00
H817   H     0.97928   0.46220   0.86926   0.00000  Uiso   1.00
H818   H     0.96715   0.40107   0.88738   0.00000  Uiso   1.00
H819   H     0.95377   0.61892   0.99582   0.00000  Uiso   1.00
H820   H     0.99675   0.39957   0.95026   0.00000  Uiso   1.00
H821   H     0.66991   0.60044   0.54974   0.00000  Uiso   1.00
H822   H     0.79574   0.40337   0.54127   0.00000  Uiso   1.00
H823   H     0.87092   0.59663   0.95873   0.00000  Uiso   1.00
H824   H     0.90227   0.34662   0.75562   0.00000  Uiso   1.00
H825   H     0.76440   0.65338   0.74438   0.00000  Uiso   1.00
H826   H     0.66787   0.53802   0.78449   0.00000  Uiso   1.00
N827   N     0.98173   0.51401   0.76212   0.00000  Uiso   1.00
N828   N     0.68494   0.48599   0.73788   0.00000  Uiso   1.00
N829   N     0.75323   0.41590   0.62535   0.00000  Uiso   1.00
N830   N     0.91345   0.58409   0.87465   0.00000  Uiso   1.00
N831   N     0.99736   0.56755   0.62818   0.00000  Uiso   1.00
N832   N     0.66930   0.43247   0.87182   0.00000  Uiso   1.00
O833   O     0.79482   0.57142   0.74686   0.00000  Uiso   1.00
O834   O     0.87185   0.42858   0.75314   0.00000  Uiso   1.00
O835   O     0.89496   0.58086   0.75503   0.00000  Uiso   1.00
O836   O     0.77171   0.41914   0.74498   0.00000  Uiso   1.00
O837   O     0.75518   0.49263   0.80855   0.00000  Uiso   1.00
O838   O     0.91149   0.50737   0.69146   0.00000  Uiso   1.00
O839   O     0.85532   0.50207   0.81671   0.00000  Uiso   1.00
O840   O     0.81134   0.49793   0.68329   0.00000  Uiso   1.00
C841   C     0.18174   0.93342   0.75130   0.00000  Uiso   1.00
C842   C     0.20560   0.83628   0.66675   0.00000  Uiso   1.00
C843   C     0.10336   0.82412   0.88111   0.00000  Uiso   1.00
C844   C     0.22997   0.84255   0.61889   0.00000  Uiso   1.00
C845   C     0.03673   0.76568   0.93899   0.00000  Uiso   1.00
C846   C     0.29660   0.90099   0.56102   0.00000  Uiso   1.00
C847   C     0.04653   0.78668   0.89806   0.00000  Uiso   1.00
C848   C     0.28680   0.88000   0.60195   0.00000  Uiso   1.00
C849   C     0.14297   0.84813   0.90888   0.00000  Uiso   1.00
C850   C     0.19036   0.81853   0.59113   0.00000  Uiso   1.00
C851   C     0.13026   0.82896   0.95197   0.00000  Uiso   1.00
C852   C     0.15159   0.73325   0.74870   0.00000  Uiso   1.00
C853   C     0.20307   0.83771   0.54803   0.00000  Uiso   1.00
C854   C     0.08088   0.78327   0.96378   0.00000  Uiso   1.00
C855   C     0.25245   0.88340   0.53622   0.00000  Uiso   1.00
C856   C     0.16826   0.84912   0.98216   0.00000  Uiso   1.00
C857   C     0.16507   0.81754   0.51784   0.00000  Uiso   1.00
C858   C     0.13259   0.77985   0.60993   0.00000  Uiso   1.00
C859   C     0.20075   0.88681   0.89007   0.00000  Uiso   1.00
C860   C     0.12510   0.76673   0.52134   0.00000  Uiso   1.00
C861   C     0.20823   0.89994   0.97866   0.00000  Uiso   1.00
C862   C     0.07950   0.75228   0.99791   0.00000  Uiso   1.00
C863   C     0.25383   0.91439   0.50209   0.00000  Uiso   1.00
C864   C     0.19023   0.98940   0.75194   0.00000  Uiso   1.00
C865   C     0.14311   0.67726   0.74806   0.00000  Uiso   1.00
C866   C     0.12773   0.83039   0.83325   0.00000  Uiso   1.00
Cu867  Cu    0.10737   0.82775   0.74517   0.00000  Uiso   1.00
Cu868  Cu    0.22596   0.83892   0.75484   0.00000  Uiso   1.00
H869   H     0.04622   0.71442   0.50419   0.00000  Uiso   1.00
H870   H     0.33213   0.79531   0.71551   0.00000  Uiso   1.00
H871   H     0.03283   0.93229   0.61263   0.00000  Uiso   1.00
H872   H     0.02072   0.87116   0.63074   0.00000  Uiso   1.00
H873   H     0.31261   0.79553   0.86926   0.00000  Uiso   1.00
H874   H     0.30048   0.73440   0.88738   0.00000  Uiso   1.00
H875   H     0.28711   0.95225   0.99582   0.00000  Uiso   1.00
H876   H     0.33008   0.73290   0.95026   0.00000  Uiso   1.00
H877   H     0.00324   0.93378   0.54974   0.00000  Uiso   1.00
H878   H     0.12907   0.73670   0.54127   0.00000  Uiso   1.00
H879   H     0.20426   0.92997   0.95873   0.00000  Uiso   1.00
H880   H     0.23560   0.67995   0.75562   0.00000  Uiso   1.00
H881   H     0.09773   0.98672   0.74438   0.00000  Uiso   1.00
H882   H     0.00120   0.87135   0.78449   0.00000  Uiso   1.00
N883   N     0.31506   0.84735   0.76212   0.00000  Uiso   1.00
N884   N     0.01827   0.81932   0.73788   0.00000  Uiso   1.00
N885   N     0.08656   0.74923   0.62535   0.00000  Uiso   1.00
N886   N     0.24679   0.91742   0.87465   0.00000  Uiso   1.00
N887   N     0.33069   0.90089   0.62818   0.00000  Uiso   1.00
N888   N     0.00263   0.76580   0.87182   0.00000  Uiso   1.00
O889   O     0.12815   0.90476   0.74686   0.00000  Uiso   1.00
O890   O     0.20518   0.76191   0.75314   0.00000  Uiso   1.00
O891   O     0.22829   0.91420   0.75503   0.00000  Uiso   1.00
O892   O     0.10504   0.75247   0.74498   0.00000  Uiso   1.00
O893   O     0.08851   0.82597   0.80855   0.00000  Uiso   1.00
O894   O     0.24482   0.84070   0.69146   0.00000  Uiso   1.00
O895   O     0.18866   0.83540   0.81671   0.00000  Uiso   1.00
O896   O     0.14468   0.83126   0.68329   0.00000  Uiso   1.00
C897   C     0.51507   0.93342   0.75130   0.00000  Uiso   1.00
C898   C     0.53894   0.83628   0.66675   0.00000  Uiso   1.00
C899   C     0.43670   0.82412   0.88111   0.00000  Uiso   1.00
C900   C     0.56330   0.84255   0.61889   0.00000  Uiso   1.00
C901   C     0.37006   0.76568   0.93899   0.00000  Uiso   1.00
C902   C     0.62993   0.90099   0.56102   0.00000  Uiso   1.00
C903   C     0.37986   0.78668   0.89806   0.00000  Uiso   1.00
C904   C     0.62013   0.88000   0.60195   0.00000  Uiso   1.00
C905   C     0.47631   0.84813   0.90888   0.00000  Uiso   1.00
C906   C     0.52370   0.81853   0.59113   0.00000  Uiso   1.00
C907   C     0.46359   0.82896   0.95197   0.00000  Uiso   1.00
C908   C     0.48492   0.73325   0.74870   0.00000  Uiso   1.00
C909   C     0.53641   0.83771   0.54803   0.00000  Uiso   1.00
C910   C     0.41421   0.78327   0.96378   0.00000  Uiso   1.00
C911   C     0.58578   0.88340   0.53622   0.00000  Uiso   1.00
C912   C     0.50160   0.84912   0.98216   0.00000  Uiso   1.00
C913   C     0.49840   0.81754   0.51784   0.00000  Uiso   1.00
C914   C     0.46592   0.77985   0.60993   0.00000  Uiso   1.00
C915   C     0.53409   0.88681   0.89007   0.00000  Uiso   1.00
C916   C     0.45843   0.76673   0.52134   0.00000  Uiso   1.00
C917   C     0.54156   0.89994   0.97866   0.00000  Uiso   1.00
C918   C     0.41283   0.75228   0.99791   0.00000  Uiso   1.00
C919   C     0.58717   0.91439   0.50209   0.00000  Uiso   1.00
C920   C     0.52356   0.98940   0.75194   0.00000  Uiso   1.00
C921   C     0.47644   0.67726   0.74806   0.00000  Uiso   1.00
C922   C     0.46106   0.83039   0.83325   0.00000  Uiso   1.00
Cu923  Cu    0.44071   0.82775   0.74517   0.00000  Uiso   1.00
Cu924  Cu    0.55929   0.83892   0.75484   0.00000  Uiso   1.00
H925   H     0.37955   0.71442   0.50419   0.00000  Uiso   1.00
H926   H     0.66547   0.79531   0.71551   0.00000  Uiso   1.00
H927   H     0.36617   0.93229   0.61263   0.00000  Uiso   1.00
H928   H     0.35406   0.87116   0.63074   0.00000  Uiso   1.00
H929   H     0.64595   0.79553   0.86926   0.00000  Uiso   1.00
H930   H     0.63382   0.73440   0.88738   0.00000  Uiso   1.00
H931   H     0.62044   0.95225   0.99582   0.00000  Uiso   1.00
H932   H     0.66341   0.73290   0.95026   0.00000  Uiso   1.00
H933   H     0.33658   0.93378   0.54974   0.00000  Uiso   1.00
H934   H     0.46240   0.73670   0.54127   0.00000  Uiso   1.00
H935   H     0.53759   0.92997   0.95873   0.00000  Uiso   1.00
H936   H     0.56893   0.67995   0.75562   0.00000  Uiso   1.00
H937   H     0.43107   0.98672   0.74438   0.00000  Uiso   1.00
H938   H     0.33453   0.87135   0.78449   0.00000  Uiso   1.00
N939   N     0.64839   0.84735   0.76212   0.00000  Uiso   1.00
N940   N     0.35161   0.81932   0.73788   0.00000  Uiso   1.00
N941   N     0.41990   0.74923   0.62535   0.00000  Uiso   1.00
N942   N     0.58012   0.91742   0.87465   0.00000  Uiso   1.00
N943   N     0.66403   0.90089   0.62818   0.00000  Uiso   1.00
N944   N     0.33596   0.76580   0.87182   0.00000  Uiso   1.00
O945   O     0.46148   0.90476   0.74686   0.00000  Uiso   1.00
O946   O     0.53852   0.76191   0.75314   0.00000  Uiso   1.00
O947   O     0.56163   0.91420   0.75503   0.00000  Uiso   1.00
O948   O     0.43837   0.75247   0.74498   0.00000  Uiso   1.00
O949   O     0.42185   0.82597   0.80855   0.00000  Uiso   1.00
O950   O     0.57815   0.84070   0.69146   0.00000  Uiso   1.00
O951   O     0.52199   0.83540   0.81671   0.00000  Uiso   1.00
O952   O     0.47801   0.83126   0.68329   0.00000  Uiso   1.00
C953   C     0.84841   0.93342   0.75130   0.00000  Uiso   1.00
C954   C     0.87227   0.83628   0.66675   0.00000  Uiso   1.00
C955   C     0.77003   0.82412   0.88111   0.00000  Uiso   1.00
C956   C     0.89664   0.84255   0.61889   0.00000  Uiso   1.00
C957   C     0.70340   0.76568   0.93899   0.00000  Uiso   1.00
C958   C     0.96326   0.90099   0.56102   0.00000  Uiso   1.00
C959   C     0.71320   0.78668   0.89806   0.00000  Uiso   1.00
C960   C     0.95347   0.88000   0.60195   0.00000  Uiso   1.00
C961   C     0.80964   0.84813   0.90888   0.00000  Uiso   1.00
C962   C     0.85703   0.81853   0.59113   0.00000  Uiso   1.00
C963   C     0.79692   0.82896   0.95197   0.00000  Uiso   1.00
C964   C     0.81826   0.73325   0.74870   0.00000  Uiso   1.00
C965   C     0.86974   0.83771   0.54803   0.00000  Uiso   1.00
C966   C     0.74754   0.78327   0.96378   0.00000  Uiso   1.00
C967   C     0.91912   0.88340   0.53622   0.00000  Uiso   1.00
C968   C     0.83493   0.84912   0.98216   0.00000  Uiso   1.00
C969   C     0.83174   0.81754   0.51784   0.00000  Uiso   1.00
C970   C     0.79926   0.77985   0.60993   0.00000  Uiso   1.00
C971   C     0.86742   0.88681   0.89007   0.00000  Uiso   1.00
C972   C     0.79177   0.76673   0.52134   0.00000  Uiso   1.00
C973   C     0.87489   0.89994   0.97866   0.00000  Uiso   1.00
C974   C     0.74616   0.75228   0.99791   0.00000  Uiso   1.00
C975   C     0.92050   0.91439   0.50209   0.00000  Uiso   1.00
C976   C     0.85689   0.98940   0.75194   0.00000  Uiso   1.00
C977   C     0.80977   0.67726   0.74806   0.00000  Uiso   1.00
C978   C     0.79440   0.83039   0.83325   0.00000  Uiso   1.00
Cu979  Cu    0.77404   0.82775   0.74517   0.00000  Uiso   1.00
Cu980  Cu    0.89263   0.83892   0.75484   0.00000  Uiso   1.00
H981   H     0.71288   0.71442   0.50419   0.00000  Uiso   1.00
H982   H     0.99880   0.79531   0.71551   0.00000  Uiso   1.00
H983   H     0.69950   0.93229   0.61263   0.00000  Uiso   1.00
H984   H     0.68739   0.87116   0.63074   0.00000  Uiso   1.00
H985   H     0.97928   0.79553   0.86926   0.00000  Uiso   1.00
H986   H     0.96715   0.73440   0.88738   0.00000  Uiso   1.00
H987   H     0.95377   0.95225   0.99582   0.00000  Uiso   1.00
H988   H     0.99675   0.73290   0.95026   0.00000  Uiso   1.00
H989   H     0.66991   0.93378   0.54974   0.00000  Uiso   1.00
H990   H     0.79574   0.73670   0.54127   0.00000  Uiso   1.00
H991   H     0.87092   0.92997   0.95873   0.00000  Uiso   1.00
H992   H     0.90227   0.67995   0.75562   0.00000  Uiso   1.00
H993   H     0.76440   0.98672   0.74438   0.00000  Uiso   1.00
H994   H     0.66787   0.87135   0.78449   0.00000  Uiso   1.00
N995   N     0.98173   0.84735   0.76212   0.00000  Uiso   1.00
N996   N     0.68494   0.81932   0.73788   0.00000  Uiso   1.00
N997   N     0.75323   0.74923   0.62535   0.00000  Uiso   1.00
N998   N     0.91345   0.91742   0.87465   0.00000  Uiso   1.00
N999   N     0.99736   0.90089   0.62818   0.00000  Uiso   1.00
N1000  N     0.66930   0.76580   0.87182   0.00000  Uiso   1.00
O1001  O     0.79482   0.90476   0.74686   0.00000  Uiso   1.00
O1002  O     0.87185   0.76191   0.75314   0.00000  Uiso   1.00
O1003  O     0.89496   0.91420   0.75503   0.00000  Uiso   1.00
O1004  O     0.77171   0.75247   0.74498   0.00000  Uiso   1.00
O1005  O     0.75518   0.82597   0.80855   0.00000  Uiso   1.00
O1006  O     0.91149   0.84070   0.69146   0.00000  Uiso   1.00
O1007  O     0.85532   0.83540   0.81671   0.00000  Uiso   1.00
O1008  O     0.81134   0.83126   0.68329   0.00000  Uiso   1.00
loop_
_geom_bond_atom_site_label_1
_geom_bond_atom_site_label_2
_geom_bond_distance
_geom_bond_site_symmetry_2
_ccdc_geom_bond_type
C1     O51     1.285   .     A
C1     O49     1.290   .     A
C1     C24     1.427   .     S
C2     C4      1.483   .     S
C2     O54     1.303   .     A
C2     O56     1.297   .     A
C3     C9      1.424   .     A
C3     C7      1.411   .     A
C3     C26     1.483   .     S
C4     C8      1.411   .     A
C4     C10     1.424   .     A
C5     C14     1.396   .     A
C5     C7      1.395   .     A
C5     H148    1.085   1_455 S
C6     C8      1.395   .     A
C6     C15     1.396   .     A
C6     H93     1.085   .     S
C7     N48     1.438   .     S
C8     N47     1.438   .     S
C9     C11     1.430   .     A
C9     C19     1.453   .     S
C10    C18     1.453   .     S
C10    C13     1.430   .     A
C11    C16     1.438   .     A
C11    C14     1.418   .     A
C12    O52     1.285   .     A
C12    O50     1.290   .     A
C12    C25     1.427   .     S
C13    C17     1.438   .     A
C13    C15     1.418   .     A
C14    C22     1.391   .     A
C15    C23     1.391   .     A
C16    C21     1.409   .     A
C16    C521    1.429   .     S
C17    C20     1.409   .     A
C17    C520    1.429   1_554 S
C18    N45     1.158   .     T
C19    N46     1.158   .     T
C20    H38     1.076   .     S
C20    C526    1.383   1_554 S
C21    H39     1.076   .     S
C21    C527    1.383   .     S
C22    C524    1.383   .     S
C22    H533    1.085   .     S
C23    C525    1.383   1_554 S
C23    H539    1.085   1_554 S
C24    C193    1.328   .     S
C24    H208    1.088   .     S
C25    C360    1.328   1_545 S
C25    H377    1.088   1_545 S
C26    O55     1.297   .     A
C26    O53     1.303   .     A
Cu27   O53     1.951   .     S
Cu27   O52     1.950   .     S
Cu27   Cu28    2.684   .     S
Cu27   O56     1.924   .     S
Cu27   N44     2.017   .     S
Cu27   O49     1.953   .     S
Cu28   N43     2.017   .     S
Cu28   O51     1.950   .     S
Cu28   O55     1.924   .     S
Cu28   O54     1.951   .     S
Cu28   O50     1.953   .     S
H29    C526    1.085   1_554 S
H30    N100    1.029   .     S
H31    N159    1.046   1_455 S
H32    N159    1.046   1_455 S
H33    N104    1.046   .     S
H34    N104    1.046   .     S
H35    C527    1.085   .     S
H36    C61     1.085   .     S
H37    C118    1.085   1_455 S
H40    C360    1.088   1_545 S
H41    C193    1.088   .     S
H42    N155    1.029   1_455 S
N43    H98     1.029   .     S
N43    N100    1.283   .     S
N44    H142    1.029   1_455 S
N44    N155    1.283   1_455 S
N47    H88     1.046   .     S
N47    H87     1.046   .     S
N48    H146    1.046   1_455 S
N48    H145    1.046   1_455 S
C57    O107    1.285   .     A
C57    O105    1.290   .     A
C57    C80     1.427   .     S
C58    C60     1.483   .     S
C58    O110    1.303   .     A
C58    O112    1.297   .     A
C59    C65     1.424   .     A
C59    C63     1.411   .     A
C59    C82     1.483   .     S
C60    C64     1.411   .     A
C60    C66     1.424   .     A
C61    C70     1.396   .     A
C61    C63     1.395   .     A
C62    C64     1.395   .     A
C62    C71     1.396   .     A
C62    H149    1.085   .     S
C63    N104    1.438   .     S
C64    N103    1.438   .     S
C65    C67     1.430   .     A
C65    C75     1.453   .     S
C66    C74     1.453   .     S
C66    C69     1.430   .     A
C67    C72     1.438   .     A
C67    C70     1.418   .     A
C68    O108    1.285   .     A
C68    O106    1.290   .     A
C68    C81     1.427   .     S
C69    C73     1.438   .     A
C69    C71     1.418   .     A
C70    C78     1.391   .     A
C71    C79     1.391   .     A
C72    C77     1.409   .     A
C72    C577    1.429   .     S
C73    C76     1.409   .     A
C73    C576    1.429   1_554 S
C74    N101    1.158   .     T
C75    N102    1.158   .     T
C76    H94     1.076   .     S
C76    C582    1.383   1_554 S
C77    H95     1.076   .     S
C77    C583    1.383   .     S
C78    C580    1.383   .     S
C78    H589    1.085   .     S
C79    C581    1.383   1_554 S
C79    H595    1.085   1_554 S
C80    C249    1.328   .     S
C80    H264    1.088   .     S
C81    C416    1.328   1_545 S
C81    H433    1.088   1_545 S
C82    O111    1.297   .     A
C82    O109    1.303   .     A
Cu83   O109    1.951   .     S
Cu83   O108    1.950   .     S
Cu83   Cu84    2.684   .     S
Cu83   O112    1.924   .     S
Cu83   N100    2.017   .     S
Cu83   O105    1.953   .     S
Cu84   N99     2.017   .     S
Cu84   O107    1.950   .     S
Cu84   O111    1.924   .     S
Cu84   O110    1.951   .     S
Cu84   O106    1.953   .     S
H85    C582    1.085   1_554 S
H86    N156    1.029   .     S
H89    N160    1.046   .     S
H90    N160    1.046   .     S
H91    C583    1.085   .     S
H92    C117    1.085   .     S
H96    C416    1.088   1_545 S
H97    C249    1.088   .     S
N99    H154    1.029   .     S
N99    N156    1.283   .     S
N103   H144    1.046   .     S
N103   H143    1.046   .     S
C113   O163    1.285   .     A
C113   O161    1.290   .     A
C113   C136    1.427   .     S
C114   C116    1.483   .     S
C114   O166    1.303   .     A
C114   O168    1.297   .     A
C115   C121    1.424   .     A
C115   C119    1.411   .     A
C115   C138    1.483   .     S
C116   C120    1.411   .     A
C116   C122    1.424   .     A
C117   C126    1.396   .     A
C117   C119    1.395   .     A
C118   C120    1.395   .     A
C118   C127    1.396   .     A
C118   H37     1.085   1_655 S
C119   N160    1.438   .     S
C120   N159    1.438   .     S
C121   C123    1.430   .     A
C121   C131    1.453   .     S
C122   C130    1.453   .     S
C122   C125    1.430   .     A
C123   C128    1.438   .     A
C123   C126    1.418   .     A
C124   O164    1.285   .     A
C124   O162    1.290   .     A
C124   C137    1.427   .     S
C125   C129    1.438   .     A
C125   C127    1.418   .     A
C126   C134    1.391   .     A
C127   C135    1.391   .     A
C128   C133    1.409   .     A
C128   C633    1.429   .     S
C129   C132    1.409   .     A
C129   C632    1.429   1_554 S
C130   N157    1.158   .     T
C131   N158    1.158   .     T
C132   H150    1.076   .     S
C132   C638    1.383   1_554 S
C133   H151    1.076   .     S
C133   C639    1.383   .     S
C134   C636    1.383   .     S
C134   H645    1.085   .     S
C135   C637    1.383   1_554 S
C135   H651    1.085   1_554 S
C136   C305    1.328   .     S
C136   H320    1.088   .     S
C137   C472    1.328   1_545 S
C137   H489    1.088   1_545 S
C138   O167    1.297   .     A
C138   O165    1.303   .     A
Cu139  O165    1.951   .     S
Cu139  O164    1.950   .     S
Cu139  Cu140   2.684   .     S
Cu139  O168    1.924   .     S
Cu139  N156    2.017   .     S
Cu139  O161    1.953   .     S
Cu140  N155    2.017   .     S
Cu140  O163    1.950   .     S
Cu140  O167    1.924   .     S
Cu140  O166    1.951   .     S
Cu140  O162    1.953   .     S
H141   C638    1.085   1_554 S
H142   N44     1.029   1_655 S
H145   N48     1.046   1_655 S
H146   N48     1.046   1_655 S
H147   C639    1.085   .     S
H148   C5      1.085   1_655 S
H152   C472    1.088   1_545 S
H153   C305    1.088   .     S
N155   H42     1.029   1_655 S
N155   N44     1.283   1_655 S
N159   H32     1.046   1_655 S
N159   H31     1.046   1_655 S
C169   O219    1.285   .     A
C169   O217    1.290   .     A
C169   C192    1.427   .     S
C170   C172    1.483   .     S
C170   O222    1.303   .     A
C170   O224    1.297   .     A
C171   C177    1.424   .     A
C171   C175    1.411   .     A
C171   C194    1.483   .     S
C172   C176    1.411   .     A
C172   C178    1.424   .     A
C173   C182    1.396   .     A
C173   C175    1.395   .     A
C173   H316    1.085   1_455 S
C174   C176    1.395   .     A
C174   C183    1.396   .     A
C174   H261    1.085   .     S
C175   N216    1.438   .     S
C176   N215    1.438   .     S
C177   C179    1.430   .     A
C177   C187    1.453   .     S
C178   C186    1.453   .     S
C178   C181    1.430   .     A
C179   C184    1.438   .     A
C179   C182    1.418   .     A
C180   O220    1.285   .     A
C180   O218    1.290   .     A
C180   C193    1.427   .     S
C181   C185    1.438   .     A
C181   C183    1.418   .     A
C182   C190    1.391   .     A
C183   C191    1.391   .     A
C184   C189    1.409   .     A
C184   C689    1.429   .     S
C185   C188    1.409   .     A
C185   C688    1.429   1_554 S
C186   N213    1.158   .     T
C187   N214    1.158   .     T
C188   H206    1.076   .     S
C188   C694    1.383   1_554 S
C189   H207    1.076   .     S
C189   C695    1.383   .     S
C190   C692    1.383   .     S
C190   H701    1.085   .     S
C191   C693    1.383   1_554 S
C191   H707    1.085   1_554 S
C192   C361    1.328   .     S
C192   H376    1.088   .     S
C194   O223    1.297   .     A
C194   O221    1.303   .     A
Cu195  O221    1.951   .     S
Cu195  O220    1.950   .     S
Cu195  Cu196   2.684   .     S
Cu195  O224    1.924   .     S
Cu195  N212    2.017   .     S
Cu195  O217    1.953   .     S
Cu196  N211    2.017   .     S
Cu196  O219    1.950   .     S
Cu196  O223    1.924   .     S
Cu196  O222    1.951   .     S
Cu196  O218    1.953   .     S
H197   C694    1.085   1_554 S
H198   N268    1.029   .     S
H199   N327    1.046   1_455 S
H200   N327    1.046   1_455 S
H201   N272    1.046   .     S
H202   N272    1.046   .     S
H203   C695    1.085   .     S
H204   C229    1.085   .     S
H205   C286    1.085   1_455 S
H209   C361    1.088   .     S
H210   N323    1.029   1_455 S
N211   H266    1.029   .     S
N211   N268    1.283   .     S
N212   H310    1.029   1_455 S
N212   N323    1.283   1_455 S
N215   H256    1.046   .     S
N215   H255    1.046   .     S
N216   H314    1.046   1_455 S
N216   H313    1.046   1_455 S
C225   O275    1.285   .     A
C225   O273    1.290   .     A
C225   C248    1.427   .     S
C226   C228    1.483   .     S
C226   O278    1.303   .     A
C226   O280    1.297   .     A
C227   C233    1.424   .     A
C227   C231    1.411   .     A
C227   C250    1.483   .     S
C228   C232    1.411   .     A
C228   C234    1.424   .     A
C229   C238    1.396   .     A
C229   C231    1.395   .     A
C230   C232    1.395   .     A
C230   C239    1.396   .     A
C230   H317    1.085   .     S
C231   N272    1.438   .     S
C232   N271    1.438   .     S
C233   C235    1.430   .     A
C233   C243    1.453   .     S
C234   C242    1.453   .     S
C234   C237    1.430   .     A
C235   C240    1.438   .     A
C235   C238    1.418   .     A
C236   O276    1.285   .     A
C236   O274    1.290   .     A
C236   C249    1.427   .     S
C237   C241    1.438   .     A
C237   C239    1.418   .     A
C238   C246    1.391   .     A
C239   C247    1.391   .     A
C240   C245    1.409   .     A
C240   C745    1.429   .     S
C241   C244    1.409   .     A
C241   C744    1.429   1_554 S
C242   N269    1.158   .     T
C243   N270    1.158   .     T
C244   H262    1.076   .     S
C244   C750    1.383   1_554 S
C245   H263    1.076   .     S
C245   C751    1.383   .     S
C246   C748    1.383   .     S
C246   H757    1.085   .     S
C247   C749    1.383   1_554 S
C247   H763    1.085   1_554 S
C248   C417    1.328   .     S
C248   H432    1.088   .     S
C250   O279    1.297   .     A
C250   O277    1.303   .     A
Cu251  O277    1.951   .     S
Cu251  O276    1.950   .     S
Cu251  Cu252   2.684   .     S
Cu251  O280    1.924   .     S
Cu251  N268    2.017   .     S
Cu251  O273    1.953   .     S
Cu252  N267    2.017   .     S
Cu252  O275    1.950   .     S
Cu252  O279    1.924   .     S
Cu252  O278    1.951   .     S
Cu252  O274    1.953   .     S
H253   C750    1.085   1_554 S
H254   N324    1.029   .     S
H257   N328    1.046   .     S
H258   N328    1.046   .     S
H259   C751    1.085   .     S
H260   C285    1.085   .     S
H265   C417    1.088   .     S
N267   H322    1.029   .     S
N267   N324    1.283   .     S
N271   H312    1.046   .     S
N271   H311    1.046   .     S
C281   O331    1.285   .     A
C281   O329    1.290   .     A
C281   C304    1.427   .     S
C282   C284    1.483   .     S
C282   O334    1.303   .     A
C282   O336    1.297   .     A
C283   C289    1.424   .     A
C283   C287    1.411   .     A
C283   C306    1.483   .     S
C284   C288    1.411   .     A
C284   C290    1.424   .     A
C285   C294    1.396   .     A
C285   C287    1.395   .     A
C286   C288    1.395   .     A
C286   C295    1.396   .     A
C286   H205    1.085   1_655 S
C287   N328    1.438   .     S
C288   N327    1.438   .     S
C289   C291    1.430   .     A
C289   C299    1.453   .     S
C290   C298    1.453   .     S
C290   C293    1.430   .     A
C291   C296    1.438   .     A
C291   C294    1.418   .     A
C292   O332    1.285   .     A
C292   O330    1.290   .     A
C292   C305    1.427   .     S
C293   C297    1.438   .     A
C293   C295    1.418   .     A
C294   C302    1.391   .     A
C295   C303    1.391   .     A
C296   C301    1.409   .     A
C296   C801    1.429   .     S
C297   C300    1.409   .     A
C297   C800    1.429   1_554 S
C298   N325    1.158   .     T
C299   N326    1.158   .     T
C300   H318    1.076   .     S
C300   C806    1.383   1_554 S
C301   H319    1.076   .     S
C301   C807    1.383   .     S
C302   C804    1.383   .     S
C302   H813    1.085   .     S
C303   C805    1.383   1_554 S
C303   H819    1.085   1_554 S
C304   C473    1.328   .     S
C304   H488    1.088   .     S
C306   O335    1.297   .     A
C306   O333    1.303   .     A
Cu307  O333    1.951   .     S
Cu307  O332    1.950   .     S
Cu307  Cu308   2.684   .     S
Cu307  O336    1.924   .     S
Cu307  N324    2.017   .     S
Cu307  O329    1.953   .     S
Cu308  N323    2.017   .     S
Cu308  O331    1.950   .     S
Cu308  O335    1.924   .     S
Cu308  O334    1.951   .     S
Cu308  O330    1.953   .     S
H309   C806    1.085   1_554 S
H310   N212    1.029   1_655 S
H313   N216    1.046   1_655 S
H314   N216    1.046   1_655 S
H315   C807    1.085   .     S
H316   C173    1.085   1_655 S
H321   C473    1.088   .     S
N323   H210    1.029   1_655 S
N323   N212    1.283   1_655 S
N327   H200    1.046   1_655 S
N327   H199    1.046   1_655 S
C337   O387    1.285   .     A
C337   O385    1.290   .     A
C337   C360    1.427   .     S
C338   C340    1.483   .     S
C338   O390    1.303   .     A
C338   O392    1.297   .     A
C339   C345    1.424   .     A
C339   C343    1.411   .     A
C339   C362    1.483   .     S
C340   C344    1.411   .     A
C340   C346    1.424   .     A
C341   C350    1.396   .     A
C341   C343    1.395   .     A
C341   H484    1.085   1_455 S
C342   C344    1.395   .     A
C342   C351    1.396   .     A
C342   H429    1.085   .     S
C343   N384    1.438   .     S
C344   N383    1.438   .     S
C345   C347    1.430   .     A
C345   C355    1.453   .     S
C346   C354    1.453   .     S
C346   C349    1.430   .     A
C347   C352    1.438   .     A
C347   C350    1.418   .     A
C348   O388    1.285   .     A
C348   O386    1.290   .     A
C348   C361    1.427   .     S
C349   C353    1.438   .     A
C349   C351    1.418   .     A
C350   C358    1.391   .     A
C351   C359    1.391   .     A
C352   C357    1.409   .     A
C352   C857    1.429   .     S
C353   C356    1.409   .     A
C353   C856    1.429   1_554 S
C354   N381    1.158   .     T
C355   N382    1.158   .     T
C356   H374    1.076   .     S
C356   C862    1.383   1_554 S
C357   H375    1.076   .     S
C357   C863    1.383   .     S
C358   C860    1.383   .     S
C358   H869    1.085   .     S
C359   C861    1.383   1_554 S
C359   H875    1.085   1_554 S
C360   C25     1.328   1_565 S
C360   H40     1.088   1_565 S
C362   O391    1.297   .     A
C362   O389    1.303   .     A
Cu363  O389    1.951   .     S
Cu363  O388    1.950   .     S
Cu363  Cu364   2.684   .     S
Cu363  O392    1.924   .     S
Cu363  N380    2.017   .     S
Cu363  O385    1.953   .     S
Cu364  N379    2.017   .     S
Cu364  O387    1.950   .     S
Cu364  O391    1.924   .     S
Cu364  O390    1.951   .     S
Cu364  O386    1.953   .     S
H365   C862    1.085   1_554 S
H366   N436    1.029   .     S
H367   N495    1.046   1_455 S
H368   N495    1.046   1_455 S
H369   N440    1.046   .     S
H370   N440    1.046   .     S
H371   C863    1.085   .     S
H372   C397    1.085   .     S
H373   C454    1.085   1_455 S
H377   C25     1.088   1_565 S
H378   N491    1.029   1_455 S
N379   H434    1.029   .     S
N379   N436    1.283   .     S
N380   H478    1.029   1_455 S
N380   N491    1.283   1_455 S
N383   H424    1.046   .     S
N383   H423    1.046   .     S
N384   H482    1.046   1_455 S
N384   H481    1.046   1_455 S
C393   O443    1.285   .     A
C393   O441    1.290   .     A
C393   C416    1.427   .     S
C394   C396    1.483   .     S
C394   O446    1.303   .     A
C394   O448    1.297   .     A
C395   C401    1.424   .     A
C395   C399    1.411   .     A
C395   C418    1.483   .     S
C396   C400    1.411   .     A
C396   C402    1.424   .     A
C397   C406    1.396   .     A
C397   C399    1.395   .     A
C398   C400    1.395   .     A
C398   C407    1.396   .     A
C398   H485    1.085   .     S
C399   N440    1.438   .     S
C400   N439    1.438   .     S
C401   C403    1.430   .     A
C401   C411    1.453   .     S
C402   C410    1.453   .     S
C402   C405    1.430   .     A
C403   C408    1.438   .     A
C403   C406    1.418   .     A
C404   O444    1.285   .     A
C404   O442    1.290   .     A
C404   C417    1.427   .     S
C405   C409    1.438   .     A
C405   C407    1.418   .     A
C406   C414    1.391   .     A
C407   C415    1.391   .     A
C408   C413    1.409   .     A
C408   C913    1.429   .     S
C409   C412    1.409   .     A
C409   C912    1.429   1_554 S
C410   N437    1.158   .     T
C411   N438    1.158   .     T
C412   H430    1.076   .     S
C412   C918    1.383   1_554 S
C413   H431    1.076   .     S
C413   C919    1.383   .     S
C414   C916    1.383   .     S
C414   H925    1.085   .     S
C415   C917    1.383   1_554 S
C415   H931    1.085   1_554 S
C416   C81     1.328   1_565 S
C416   H96     1.088   1_565 S
C418   O447    1.297   .     A
C418   O445    1.303   .     A
Cu419  O445    1.951   .     S
Cu419  O444    1.950   .     S
Cu419  Cu420   2.684   .     S
Cu419  O448    1.924   .     S
Cu419  N436    2.017   .     S
Cu419  O441    1.953   .     S
Cu420  N435    2.017   .     S
Cu420  O443    1.950   .     S
Cu420  O447    1.924   .     S
Cu420  O446    1.951   .     S
Cu420  O442    1.953   .     S
H421   C918    1.085   1_554 S
H422   N492    1.029   .     S
H425   N496    1.046   .     S
H426   N496    1.046   .     S
H427   C919    1.085   .     S
H428   C453    1.085   .     S
H433   C81     1.088   1_565 S
N435   H490    1.029   .     S
N435   N492    1.283   .     S
N439   H480    1.046   .     S
N439   H479    1.046   .     S
C449   O499    1.285   .     A
C449   O497    1.290   .     A
C449   C472    1.427   .     S
C450   C452    1.483   .     S
C450   O502    1.303   .     A
C450   O504    1.297   .     A
C451   C457    1.424   .     A
C451   C455    1.411   .     A
C451   C474    1.483   .     S
C452   C456    1.411   .     A
C452   C458    1.424   .     A
C453   C462    1.396   .     A
C453   C455    1.395   .     A
C454   C456    1.395   .     A
C454   C463    1.396   .     A
C454   H373    1.085   1_655 S
C455   N496    1.438   .     S
C456   N495    1.438   .     S
C457   C459    1.430   .     A
C457   C467    1.453   .     S
C458   C466    1.453   .     S
C458   C461    1.430   .     A
C459   C464    1.438   .     A
C459   C462    1.418   .     A
C460   O500    1.285   .     A
C460   O498    1.290   .     A
C460   C473    1.427   .     S
C461   C465    1.438   .     A
C461   C463    1.418   .     A
C462   C470    1.391   .     A
C463   C471    1.391   .     A
C464   C469    1.409   .     A
C464   C969    1.429   .     S
C465   C468    1.409   .     A
C465   C968    1.429   1_554 S
C466   N493    1.158   .     T
C467   N494    1.158   .     T
C468   H486    1.076   .     S
C468   C974    1.383   1_554 S
C469   H487    1.076   .     S
C469   C975    1.383   .     S
C470   C972    1.383   .     S
C470   H981    1.085   .     S
C471   C973    1.383   1_554 S
C471   H987    1.085   1_554 S
C472   C137    1.328   1_565 S
C472   H152    1.088   1_565 S
C474   O503    1.297   .     A
C474   O501    1.303   .     A
Cu475  O501    1.951   .     S
Cu475  O500    1.950   .     S
Cu475  Cu476   2.684   .     S
Cu475  O504    1.924   .     S
Cu475  N492    2.017   .     S
Cu475  O497    1.953   .     S
Cu476  N491    2.017   .     S
Cu476  O499    1.950   .     S
Cu476  O503    1.924   .     S
Cu476  O502    1.951   .     S
Cu476  O498    1.953   .     S
H477   C974    1.085   1_554 S
H478   N380    1.029   1_655 S
H481   N384    1.046   1_655 S
H482   N384    1.046   1_655 S
H483   C975    1.085   .     S
H484   C341    1.085   1_655 S
H489   C137    1.088   1_565 S
N491   H378    1.029   1_655 S
N491   N380    1.283   1_655 S
N495   H368    1.046   1_655 S
N495   H367    1.046   1_655 S
C505   O555    1.285   .     A
C505   O553    1.290   .     A
C505   C528    1.427   .     S
C506   C508    1.483   .     S
C506   O558    1.303   .     A
C506   O560    1.297   .     A
C507   C513    1.424   .     A
C507   C511    1.411   .     A
C507   C530    1.483   .     S
C508   C512    1.411   .     A
C508   C514    1.424   .     A
C509   C518    1.396   .     A
C509   C511    1.395   .     A
C509   H652    1.085   1_455 S
C510   C512    1.395   .     A
C510   C519    1.396   .     A
C510   H597    1.085   .     S
C511   N552    1.438   .     S
C512   N551    1.438   .     S
C513   C515    1.430   .     A
C513   C523    1.453   .     S
C514   C522    1.453   .     S
C514   C517    1.430   .     A
C515   C520    1.438   .     A
C515   C518    1.418   .     A
C516   O556    1.285   .     A
C516   O554    1.290   .     A
C516   C529    1.427   .     S
C517   C521    1.438   .     A
C517   C519    1.418   .     A
C518   C526    1.391   .     A
C519   C527    1.391   .     A
C520   C525    1.409   .     A
C520   C17     1.429   1_556 S
C521   C524    1.409   .     A
C522   N549    1.158   .     T
C523   N550    1.158   .     T
C524   H542    1.076   .     S
C525   H543    1.076   .     S
C525   C23     1.383   1_556 S
C526   C20     1.383   1_556 S
C526   H29     1.085   1_556 S
C528   C697    1.328   .     S
C528   H712    1.088   .     S
C529   C864    1.328   1_545 S
C529   H881    1.088   1_545 S
C530   O559    1.297   .     A
C530   O557    1.303   .     A
Cu531  O557    1.951   .     S
Cu531  O556    1.950   .     S
Cu531  Cu532   2.684   .     S
Cu531  O560    1.924   .     S
Cu531  N548    2.017   .     S
Cu531  O553    1.953   .     S
Cu532  N547    2.017   .     S
Cu532  O555    1.950   .     S
Cu532  O559    1.924   .     S
Cu532  O558    1.951   .     S
Cu532  O554    1.953   .     S
H534   N604    1.029   .     S
H535   N663    1.046   1_455 S
H536   N663    1.046   1_455 S
H537   N608    1.046   .     S
H538   N608    1.046   .     S
H539   C23     1.085   1_556 S
H540   C565    1.085   .     S
H541   C622    1.085   1_455 S
H544   C864    1.088   1_545 S
H545   C697    1.088   .     S
H546   N659    1.029   1_455 S
N547   H602    1.029   .     S
N547   N604    1.283   .     S
N548   H646    1.029   1_455 S
N548   N659    1.283   1_455 S
N551   H592    1.046   .     S
N551   H591    1.046   .     S
N552   H650    1.046   1_455 S
N552   H649    1.046   1_455 S
C561   O611    1.285   .     A
C561   O609    1.290   .     A
C561   C584    1.427   .     S
C562   C564    1.483   .     S
C562   O614    1.303   .     A
C562   O616    1.297   .     A
C563   C569    1.424   .     A
C563   C567    1.411   .     A
C563   C586    1.483   .     S
C564   C568    1.411   .     A
C564   C570    1.424   .     A
C565   C574    1.396   .     A
C565   C567    1.395   .     A
C566   C568    1.395   .     A
C566   C575    1.396   .     A
C566   H653    1.085   .     S
C567   N608    1.438   .     S
C568   N607    1.438   .     S
C569   C571    1.430   .     A
C569   C579    1.453   .     S
C570   C578    1.453   .     S
C570   C573    1.430   .     A
C571   C576    1.438   .     A
C571   C574    1.418   .     A
C572   O612    1.285   .     A
C572   O610    1.290   .     A
C572   C585    1.427   .     S
C573   C577    1.438   .     A
C573   C575    1.418   .     A
C574   C582    1.391   .     A
C575   C583    1.391   .     A
C576   C581    1.409   .     A
C576   C73     1.429   1_556 S
C577   C580    1.409   .     A
C578   N605    1.158   .     T
C579   N606    1.158   .     T
C580   H598    1.076   .     S
C581   H599    1.076   .     S
C581   C79     1.383   1_556 S
C582   C76     1.383   1_556 S
C582   H85     1.085   1_556 S
C584   C753    1.328   .     S
C584   H768    1.088   .     S
C585   C920    1.328   1_545 S
C585   H937    1.088   1_545 S
C586   O615    1.297   .     A
C586   O613    1.303   .     A
Cu587  O613    1.951   .     S
Cu587  O612    1.950   .     S
Cu587  Cu588   2.684   .     S
Cu587  O616    1.924   .     S
Cu587  N604    2.017   .     S
Cu587  O609    1.953   .     S
Cu588  N603    2.017   .     S
Cu588  O611    1.950   .     S
Cu588  O615    1.924   .     S
Cu588  O614    1.951   .     S
Cu588  O610    1.953   .     S
H590   N660    1.029   .     S
H593   N664    1.046   .     S
H594   N664    1.046   .     S
H595   C79     1.085   1_556 S
H596   C621    1.085   .     S
H600   C920    1.088   1_545 S
H601   C753    1.088   .     S
N603   H658    1.029   .     S
N603   N660    1.283   .     S
N607   H648    1.046   .     S
N607   H647    1.046   .     S
C617   O667    1.285   .     A
C617   O665    1.290   .     A
C617   C640    1.427   .     S
C618   C620    1.483   .     S
C618   O670    1.303   .     A
C618   O672    1.297   .     A
C619   C625    1.424   .     A
C619   C623    1.411   .     A
C619   C642    1.483   .     S
C620   C624    1.411   .     A
C620   C626    1.424   .     A
C621   C630    1.396   .     A
C621   C623    1.395   .     A
C622   C624    1.395   .     A
C622   C631    1.396   .     A
C622   H541    1.085   1_655 S
C623   N664    1.438   .     S
C624   N663    1.438   .     S
C625   C627    1.430   .     A
C625   C635    1.453   .     S
C626   C634    1.453   .     S
C626   C629    1.430   .     A
C627   C632    1.438   .     A
C627   C630    1.418   .     A
C628   O668    1.285   .     A
C628   O666    1.290   .     A
C628   C641    1.427   .     S
C629   C633    1.438   .     A
C629   C631    1.418   .     A
C630   C638    1.391   .     A
C631   C639    1.391   .     A
C632   C637    1.409   .     A
C632   C129    1.429   1_556 S
C633   C636    1.409   .     A
C634   N661    1.158   .     T
C635   N662    1.158   .     T
C636   H654    1.076   .     S
C637   H655    1.076   .     S
C637   C135    1.383   1_556 S
C638   C132    1.383   1_556 S
C638   H141    1.085   1_556 S
C640   C809    1.328   .     S
C640   H824    1.088   .     S
C641   C976    1.328   1_545 S
C641   H993    1.088   1_545 S
C642   O671    1.297   .     A
C642   O669    1.303   .     A
Cu643  O669    1.951   .     S
Cu643  O668    1.950   .     S
Cu643  Cu644   2.684   .     S
Cu643  O672    1.924   .     S
Cu643  N660    2.017   .     S
Cu643  O665    1.953   .     S
Cu644  N659    2.017   .     S
Cu644  O667    1.950   .     S
Cu644  O671    1.924   .     S
Cu644  O670    1.951   .     S
Cu644  O666    1.953   .     S
H646   N548    1.029   1_655 S
H649   N552    1.046   1_655 S
H650   N552    1.046   1_655 S
H651   C135    1.085   1_556 S
H652   C509    1.085   1_655 S
H656   C976    1.088   1_545 S
H657   C809    1.088   .     S
N659   H546    1.029   1_655 S
N659   N548    1.283   1_655 S
N663   H536    1.046   1_655 S
N663   H535    1.046   1_655 S
C673   O723    1.285   .     A
C673   O721    1.290   .     A
C673   C696    1.427   .     S
C674   C676    1.483   .     S
C674   O726    1.303   .     A
C674   O728    1.297   .     A
C675   C681    1.424   .     A
C675   C679    1.411   .     A
C675   C698    1.483   .     S
C676   C680    1.411   .     A
C676   C682    1.424   .     A
C677   C686    1.396   .     A
C677   C679    1.395   .     A
C677   H820    1.085   1_455 S
C678   C680    1.395   .     A
C678   C687    1.396   .     A
C678   H765    1.085   .     S
C679   N720    1.438   .     S
C680   N719    1.438   .     S
C681   C683    1.430   .     A
C681   C691    1.453   .     S
C682   C690    1.453   .     S
C682   C685    1.430   .     A
C683   C688    1.438   .     A
C683   C686    1.418   .     A
C684   O724    1.285   .     A
C684   O722    1.290   .     A
C684   C697    1.427   .     S
C685   C689    1.438   .     A
C685   C687    1.418   .     A
C686   C694    1.391   .     A
C687   C695    1.391   .     A
C688   C693    1.409   .     A
C688   C185    1.429   1_556 S
C689   C692    1.409   .     A
C690   N717    1.158   .     T
C691   N718    1.158   .     T
C692   H710    1.076   .     S
C693   H711    1.076   .     S
C693   C191    1.383   1_556 S
C694   C188    1.383   1_556 S
C694   H197    1.085   1_556 S
C696   C865    1.328   .     S
C696   H880    1.088   .     S
C698   O727    1.297   .     A
C698   O725    1.303   .     A
Cu699  O725    1.951   .     S
Cu699  O724    1.950   .     S
Cu699  Cu700   2.684   .     S
Cu699  O728    1.924   .     S
Cu699  N716    2.017   .     S
Cu699  O721    1.953   .     S
Cu700  N715    2.017   .     S
Cu700  O723    1.950   .     S
Cu700  O727    1.924   .     S
Cu700  O726    1.951   .     S
Cu700  O722    1.953   .     S
H702   N772    1.029   .     S
H703   N831    1.046   1_455 S
H704   N831    1.046   1_455 S
H705   N776    1.046   .     S
H706   N776    1.046   .     S
H707   C191    1.085   1_556 S
H708   C733    1.085   .     S
H709   C790    1.085   1_455 S
H713   C865    1.088   .     S
H714   N827    1.029   1_455 S
N715   H770    1.029   .     S
N715   N772    1.283   .     S
N716   H814    1.029   1_455 S
N716   N827    1.283   1_455 S
N719   H760    1.046   .     S
N719   H759    1.046   .     S
N720   H818    1.046   1_455 S
N720   H817    1.046   1_455 S
C729   O779    1.285   .     A
C729   O777    1.290   .     A
C729   C752    1.427   .     S
C730   C732    1.483   .     S
C730   O782    1.303   .     A
C730   O784    1.297   .     A
C731   C737    1.424   .     A
C731   C735    1.411   .     A
C731   C754    1.483   .     S
C732   C736    1.411   .     A
C732   C738    1.424   .     A
C733   C742    1.396   .     A
C733   C735    1.395   .     A
C734   C736    1.395   .     A
C734   C743    1.396   .     A
C734   H821    1.085   .     S
C735   N776    1.438   .     S
C736   N775    1.438   .     S
C737   C739    1.430   .     A
C737   C747    1.453   .     S
C738   C746    1.453   .     S
C738   C741    1.430   .     A
C739   C744    1.438   .     A
C739   C742    1.418   .     A
C740   O780    1.285   .     A
C740   O778    1.290   .     A
C740   C753    1.427   .     S
C741   C745    1.438   .     A
C741   C743    1.418   .     A
C742   C750    1.391   .     A
C743   C751    1.391   .     A
C744   C749    1.409   .     A
C744   C241    1.429   1_556 S
C745   C748    1.409   .     A
C746   N773    1.158   .     T
C747   N774    1.158   .     T
C748   H766    1.076   .     S
C749   H767    1.076   .     S
C749   C247    1.383   1_556 S
C750   C244    1.383   1_556 S
C750   H253    1.085   1_556 S
C752   C921    1.328   .     S
C752   H936    1.088   .     S
C754   O783    1.297   .     A
C754   O781    1.303   .     A
Cu755  O781    1.951   .     S
Cu755  O780    1.950   .     S
Cu755  Cu756   2.684   .     S
Cu755  O784    1.924   .     S
Cu755  N772    2.017   .     S
Cu755  O777    1.953   .     S
Cu756  N771    2.017   .     S
Cu756  O779    1.950   .     S
Cu756  O783    1.924   .     S
Cu756  O782    1.951   .     S
Cu756  O778    1.953   .     S
H758   N828    1.029   .     S
H761   N832    1.046   .     S
H762   N832    1.046   .     S
H763   C247    1.085   1_556 S
H764   C789    1.085   .     S
H769   C921    1.088   .     S
N771   H826    1.029   .     S
N771   N828    1.283   .     S
N775   H816    1.046   .     S
N775   H815    1.046   .     S
C785   O835    1.285   .     A
C785   O833    1.290   .     A
C785   C808    1.427   .     S
C786   C788    1.483   .     S
C786   O838    1.303   .     A
C786   O840    1.297   .     A
C787   C793    1.424   .     A
C787   C791    1.411   .     A
C787   C810    1.483   .     S
C788   C792    1.411   .     A
C788   C794    1.424   .     A
C789   C798    1.396   .     A
C789   C791    1.395   .     A
C790   C792    1.395   .     A
C790   C799    1.396   .     A
C790   H709    1.085   1_655 S
C791   N832    1.438   .     S
C792   N831    1.438   .     S
C793   C795    1.430   .     A
C793   C803    1.453   .     S
C794   C802    1.453   .     S
C794   C797    1.430   .     A
C795   C800    1.438   .     A
C795   C798    1.418   .     A
C796   O836    1.285   .     A
C796   O834    1.290   .     A
C796   C809    1.427   .     S
C797   C801    1.438   .     A
C797   C799    1.418   .     A
C798   C806    1.391   .     A
C799   C807    1.391   .     A
C800   C805    1.409   .     A
C800   C297    1.429   1_556 S
C801   C804    1.409   .     A
C802   N829    1.158   .     T
C803   N830    1.158   .     T
C804   H822    1.076   .     S
C805   H823    1.076   .     S
C805   C303    1.383   1_556 S
C806   C300    1.383   1_556 S
C806   H309    1.085   1_556 S
C808   C977    1.328   .     S
C808   H992    1.088   .     S
C810   O839    1.297   .     A
C810   O837    1.303   .     A
Cu811  O837    1.951   .     S
Cu811  O836    1.950   .     S
Cu811  Cu812   2.684   .     S
Cu811  O840    1.924   .     S
Cu811  N828    2.017   .     S
Cu811  O833    1.953   .     S
Cu812  N827    2.017   .     S
Cu812  O835    1.950   .     S
Cu812  O839    1.924   .     S
Cu812  O838    1.951   .     S
Cu812  O834    1.953   .     S
H814   N716    1.029   1_655 S
H817   N720    1.046   1_655 S
H818   N720    1.046   1_655 S
H819   C303    1.085   1_556 S
H820   C677    1.085   1_655 S
H825   C977    1.088   .     S
N827   H714    1.029   1_655 S
N827   N716    1.283   1_655 S
N831   H704    1.046   1_655 S
N831   H703    1.046   1_655 S
C841   O891    1.285   .     A
C841   O889    1.290   .     A
C841   C864    1.427   .     S
C842   C844    1.483   .     S
C842   O894    1.303   .     A
C842   O896    1.297   .     A
C843   C849    1.424   .     A
C843   C847    1.411   .     A
C843   C866    1.483   .     S
C844   C848    1.411   .     A
C844   C850    1.424   .     A
C845   C854    1.396   .     A
C845   C847    1.395   .     A
C845   H988    1.085   1_455 S
C846   C848    1.395   .     A
C846   C855    1.396   .     A
C846   H933    1.085   .     S
C847   N888    1.438   .     S
C848   N887    1.438   .     S
C849   C851    1.430   .     A
C849   C859    1.453   .     S
C850   C858    1.453   .     S
C850   C853    1.430   .     A
C851   C856    1.438   .     A
C851   C854    1.418   .     A
C852   O892    1.285   .     A
C852   O890    1.290   .     A
C852   C865    1.427   .     S
C853   C857    1.438   .     A
C853   C855    1.418   .     A
C854   C862    1.391   .     A
C855   C863    1.391   .     A
C856   C861    1.409   .     A
C856   C353    1.429   1_556 S
C857   C860    1.409   .     A
C858   N885    1.158   .     T
C859   N886    1.158   .     T
C860   H878    1.076   .     S
C861   H879    1.076   .     S
C861   C359    1.383   1_556 S
C862   C356    1.383   1_556 S
C862   H365    1.085   1_556 S
C864   C529    1.328   1_565 S
C864   H544    1.088   1_565 S
C866   O895    1.297   .     A
C866   O893    1.303   .     A
Cu867  O893    1.951   .     S
Cu867  O892    1.950   .     S
Cu867  Cu868   2.684   .     S
Cu867  O896    1.924   .     S
Cu867  N884    2.017   .     S
Cu867  O889    1.953   .     S
Cu868  N883    2.017   .     S
Cu868  O891    1.950   .     S
Cu868  O895    1.924   .     S
Cu868  O894    1.951   .     S
Cu868  O890    1.953   .     S
H870   N940    1.029   .     S
H871   N999    1.046   1_455 S
H872   N999    1.046   1_455 S
H873   N944    1.046   .     S
H874   N944    1.046   .     S
H875   C359    1.085   1_556 S
H876   C901    1.085   .     S
H877   C958    1.085   1_455 S
H881   C529    1.088   1_565 S
H882   N995    1.029   1_455 S
N883   H938    1.029   .     S
N883   N940    1.283   .     S
N884   H982    1.029   1_455 S
N884   N995    1.283   1_455 S
N887   H928    1.046   .     S
N887   H927    1.046   .     S
N888   H986    1.046   1_455 S
N888   H985    1.046   1_455 S
C897   O947    1.285   .     A
C897   O945    1.290   .     A
C897   C920    1.427   .     S
C898   C900    1.483   .     S
C898   O950    1.303   .     A
C898   O952    1.297   .     A
C899   C905    1.424   .     A
C899   C903    1.411   .     A
C899   C922    1.483   .     S
C900   C904    1.411   .     A
C900   C906    1.424   .     A
C901   C910    1.396   .     A
C901   C903    1.395   .     A
C902   C904    1.395   .     A
C902   C911    1.396   .     A
C902   H989    1.085   .     S
C903   N944    1.438   .     S
C904   N943    1.438   .     S
C905   C907    1.430   .     A
C905   C915    1.453   .     S
C906   C914    1.453   .     S
C906   C909    1.430   .     A
C907   C912    1.438   .     A
C907   C910    1.418   .     A
C908   O948    1.285   .     A
C908   O946    1.290   .     A
C908   C921    1.427   .     S
C909   C913    1.438   .     A
C909   C911    1.418   .     A
C910   C918    1.391   .     A
C911   C919    1.391   .     A
C912   C917    1.409   .     A
C912   C409    1.429   1_556 S
C913   C916    1.409   .     A
C914   N941    1.158   .     T
C915   N942    1.158   .     T
C916   H934    1.076   .     S
C917   H935    1.076   .     S
C917   C415    1.383   1_556 S
C918   C412    1.383   1_556 S
C918   H421    1.085   1_556 S
C920   C585    1.328   1_565 S
C920   H600    1.088   1_565 S
C922   O951    1.297   .     A
C922   O949    1.303   .     A
Cu923  O949    1.951   .     S
Cu923  O948    1.950   .     S
Cu923  Cu924   2.684   .     S
Cu923  O952    1.924   .     S
Cu923  N940    2.017   .     S
Cu923  O945    1.953   .     S
Cu924  N939    2.017   .     S
Cu924  O947    1.950   .     S
Cu924  O951    1.924   .     S
Cu924  O950    1.951   .     S
Cu924  O946    1.953   .     S
H926   N996    1.029   .     S
H929   N1000   1.046   .     S
H930   N1000   1.046   .     S
H931   C415    1.085   1_556 S
H932   C957    1.085   .     S
H937   C585    1.088   1_565 S
N939   H994    1.029   .     S
N939   N996    1.283   .     S
N943   H984    1.046   .     S
N943   H983    1.046   .     S
C953   O1003   1.285   .     A
C953   O1001   1.290   .     A
C953   C976    1.427   .     S
C954   C956    1.483   .     S
C954   O1006   1.303   .     A
C954   O1008   1.297   .     A
C955   C961    1.424   .     A
C955   C959    1.411   .     A
C955   C978    1.483   .     S
C956   C960    1.411   .     A
C956   C962    1.424   .     A
C957   C966    1.396   .     A
C957   C959    1.395   .     A
C958   C960    1.395   .     A
C958   C967    1.396   .     A
C958   H877    1.085   1_655 S
C959   N1000   1.438   .     S
C960   N999    1.438   .     S
C961   C963    1.430   .     A
C961   C971    1.453   .     S
C962   C970    1.453   .     S
C962   C965    1.430   .     A
C963   C968    1.438   .     A
C963   C966    1.418   .     A
C964   O1004   1.285   .     A
C964   O1002   1.290   .     A
C964   C977    1.427   .     S
C965   C969    1.438   .     A
C965   C967    1.418   .     A
C966   C974    1.391   .     A
C967   C975    1.391   .     A
C968   C973    1.409   .     A
C968   C465    1.429   1_556 S
C969   C972    1.409   .     A
C970   N997    1.158   .     T
C971   N998    1.158   .     T
C972   H990    1.076   .     S
C973   H991    1.076   .     S
C973   C471    1.383   1_556 S
C974   C468    1.383   1_556 S
C974   H477    1.085   1_556 S
C976   C641    1.328   1_565 S
C976   H656    1.088   1_565 S
C978   O1007   1.297   .     A
C978   O1005   1.303   .     A
Cu979  O1005   1.951   .     S
Cu979  O1004   1.950   .     S
Cu979  Cu980   2.684   .     S
Cu979  O1008   1.924   .     S
Cu979  N996    2.017   .     S
Cu979  O1001   1.953   .     S
Cu980  N995    2.017   .     S
Cu980  O1003   1.950   .     S
Cu980  O1007   1.924   .     S
Cu980  O1006   1.951   .     S
Cu980  O1002   1.953   .     S
H982   N884    1.029   1_655 S
H985   N888    1.046   1_655 S
H986   N888    1.046   1_655 S
H987   C471    1.085   1_556 S
H988   C845    1.085   1_655 S
H993   C641    1.088   1_565 S
N995   H882    1.029   1_655 S
N995   N884    1.283   1_655 S
N999   H872    1.046   1_655 S
N999   H871    1.046   1_655 S
