data_str_m2_o1_o17_pcu_sym.108
_audit_creation_date              2020-01-03
_audit_creation_method            'Materials Studio'
_symmetry_space_group_name_H-M    'P1'
_symmetry_Int_Tables_number       1
_symmetry_cell_setting            triclinic
loop_
_symmetry_equiv_pos_as_xyz
  x,y,z
_cell_length_a                    32.5072
_cell_length_b                    28.9144
_cell_length_c                    30.1596
_cell_angle_alpha                 89.7975
_cell_angle_beta                  93.5851
_cell_angle_gamma                 88.7798
loop_
_atom_site_label
_atom_site_type_symbol
_atom_site_fract_x
_atom_site_fract_y
_atom_site_fract_z
_atom_site_U_iso_or_equiv
_atom_site_adp_type
_atom_site_occupancy
C1     C     0.08756   0.16726   0.25091   0.00000  Uiso   1.00
C2     C     0.24577   0.16607   0.24909   0.00000  Uiso   1.00
C3     C     0.09261   0.18000   0.01856   0.00000  Uiso   1.00
C4     C     0.24072   0.15333   0.48144   0.00000  Uiso   1.00
C5     C     0.02335   0.13413   0.27655   0.00000  Uiso   1.00
C6     C     0.30998   0.19920   0.22345   0.00000  Uiso   1.00
C7     C     0.31413   0.13100   0.27197   0.00000  Uiso   1.00
C8     C     0.01921   0.20233   0.22803   0.00000  Uiso   1.00
C9     C     0.29040   0.16463   0.24711   0.00000  Uiso   1.00
C10    C     0.04293   0.16871   0.25290   0.00000  Uiso   1.00
C11    C     0.14616   0.02504   0.21644   0.00000  Uiso   1.00
C12    C     0.18717   0.30829   0.28357   0.00000  Uiso   1.00
C13    C     0.18718   0.02385   0.28353   0.00000  Uiso   1.00
C14    C     0.14615   0.30948   0.21647   0.00000  Uiso   1.00
C15    C     0.16665   0.16672   0.16475   0.00000  Uiso   1.00
C16    C     0.16669   0.16661   0.33525   0.00000  Uiso   1.00
C17    C     0.20307   0.15533   0.40879   0.00000  Uiso   1.00
C18    C     0.13026   0.17801   0.09121   0.00000  Uiso   1.00
C19    C     0.16638   0.16659   0.38344   0.00000  Uiso   1.00
C20    C     0.16695   0.16675   0.11656   0.00000  Uiso   1.00
C21    C     0.12939   0.17708   0.40398   0.00000  Uiso   1.00
C22    C     0.20394   0.15626   0.09602   0.00000  Uiso   1.00
C23    C     0.12856   0.17287   0.45060   0.00000  Uiso   1.00
C24    C     0.20478   0.16046   0.04940   0.00000  Uiso   1.00
C25    C     0.16632   0.16587   0.47648   0.00000  Uiso   1.00
C26    C     0.16702   0.16746   0.02352   0.00000  Uiso   1.00
C27    C     0.20345   0.15734   0.45548   0.00000  Uiso   1.00
C28    C     0.12989   0.17599   0.04452   0.00000  Uiso   1.00
C29    C     0.09121   0.17705   0.47249   0.00000  Uiso   1.00
C30    C     0.24213   0.15628   0.02751   0.00000  Uiso   1.00
Cu31   Cu    0.16667   0.21355   0.25000   0.00000  Uiso   1.00
Cu32   Cu    0.16667   0.11978   0.25000   0.00000  Uiso   1.00
H33    H     0.06359   0.18300   0.03411   0.00000  Uiso   1.00
H34    H     0.26975   0.15033   0.46589   0.00000  Uiso   1.00
N35    N     0.16667   0.28402   0.25000   0.00000  Uiso   1.00
N36    N     0.16667   0.04931   0.25000   0.00000  Uiso   1.00
O37    O     0.10655   0.20625   0.25000   0.00000  Uiso   1.00
O38    O     0.22679   0.12709   0.25001   0.00000  Uiso   1.00
O39    O     0.22679   0.20625   0.25001   0.00000  Uiso   1.00
O40    O     0.10655   0.12709   0.25000   0.00000  Uiso   1.00
O41    O     0.16666   0.20627   0.18513   0.00000  Uiso   1.00
O42    O     0.16668   0.12707   0.31487   0.00000  Uiso   1.00
O43    O     0.16668   0.20627   0.31487   0.00000  Uiso   1.00
O44    O     0.16666   0.12707   0.18513   0.00000  Uiso   1.00
C45    C     0.24121   0.14248   0.38632   0.00000  Uiso   1.00
O46    O     0.25416   0.16816   0.35831   0.00000  Uiso   1.00
O47    O     0.26236   0.10112   0.39779   0.00000  Uiso   1.00
H48    H     0.28850   0.09679   0.38150   0.00000  Uiso   1.00
C49    C     0.09212   0.19085   0.11368   0.00000  Uiso   1.00
O50    O     0.07917   0.16517   0.14169   0.00000  Uiso   1.00
O51    O     0.07097   0.23222   0.10222   0.00000  Uiso   1.00
H52    H     0.04484   0.23654   0.11850   0.00000  Uiso   1.00
O53    O     0.09426   0.19349   0.37997   0.00000  Uiso   1.00
H54    H     0.09808   0.19476   0.34782   0.00000  Uiso   1.00
O55    O     0.23907   0.13985   0.12003   0.00000  Uiso   1.00
H56    H     0.23525   0.13859   0.15219   0.00000  Uiso   1.00
C57    C     0.04954   0.17457   0.44959   0.00000  Uiso   1.00
O58    O     0.04180   0.14387   0.42273   0.00000  Uiso   1.00
O59    O     0.01860   0.20612   0.46044   0.00000  Uiso   1.00
H60    H     0.32492   0.20105   0.44265   0.00000  Uiso   1.00
C61    C     0.28380   0.15876   0.05041   0.00000  Uiso   1.00
O62    O     0.29153   0.18946   0.07727   0.00000  Uiso   1.00
O63    O     0.31473   0.12721   0.03956   0.00000  Uiso   1.00
H64    H     0.00841   0.13228   0.05735   0.00000  Uiso   1.00
O65    O     0.04461   0.10282   0.30463   0.00000  Uiso   1.00
H66    H     0.07003   0.11736   0.31722   0.00000  Uiso   1.00
O67    O     0.28872   0.23052   0.19537   0.00000  Uiso   1.00
H68    H     0.26330   0.21597   0.18278   0.00000  Uiso   1.00
O69    O     0.29621   0.09599   0.29425   0.00000  Uiso   1.00
H70    H     0.28437   0.07521   0.27092   0.00000  Uiso   1.00
O71    O     0.03713   0.23735   0.20576   0.00000  Uiso   1.00
H72    H     0.04896   0.25812   0.22909   0.00000  Uiso   1.00
O73    O     0.12425   0.04687   0.18162   0.00000  Uiso   1.00
H74    H     0.11244   0.07578   0.19274   0.00000  Uiso   1.00
O75    O     0.20906   0.28646   0.31839   0.00000  Uiso   1.00
H76    H     0.22092   0.25757   0.30726   0.00000  Uiso   1.00
O77    O     0.20939   0.04445   0.31805   0.00000  Uiso   1.00
H78    H     0.21966   0.07371   0.30702   0.00000  Uiso   1.00
O79    O     0.12394   0.28888   0.18196   0.00000  Uiso   1.00
H80    H     0.11368   0.25962   0.19298   0.00000  Uiso   1.00
C81    C     0.42090   0.16726   0.25091   0.00000  Uiso   1.00
C82    C     0.57910   0.16607   0.24909   0.00000  Uiso   1.00
C83    C     0.42595   0.18000   0.01856   0.00000  Uiso   1.00
C84    C     0.57405   0.15333   0.48144   0.00000  Uiso   1.00
C85    C     0.35668   0.13413   0.27655   0.00000  Uiso   1.00
C86    C     0.64332   0.19920   0.22345   0.00000  Uiso   1.00
C87    C     0.64746   0.13100   0.27197   0.00000  Uiso   1.00
C88    C     0.35254   0.20233   0.22803   0.00000  Uiso   1.00
C89    C     0.62373   0.16463   0.24711   0.00000  Uiso   1.00
C90    C     0.37627   0.16871   0.25290   0.00000  Uiso   1.00
C91    C     0.47950   0.02504   0.21644   0.00000  Uiso   1.00
C92    C     0.52050   0.30829   0.28357   0.00000  Uiso   1.00
C93    C     0.52052   0.02385   0.28353   0.00000  Uiso   1.00
C94    C     0.47948   0.30948   0.21647   0.00000  Uiso   1.00
C95    C     0.49998   0.16672   0.16475   0.00000  Uiso   1.00
C96    C     0.50002   0.16661   0.33525   0.00000  Uiso   1.00
C97    C     0.53640   0.15533   0.40879   0.00000  Uiso   1.00
C98    C     0.46360   0.17801   0.09121   0.00000  Uiso   1.00
C99    C     0.49971   0.16659   0.38344   0.00000  Uiso   1.00
C100   C     0.50029   0.16675   0.11656   0.00000  Uiso   1.00
C101   C     0.46272   0.17708   0.40398   0.00000  Uiso   1.00
C102   C     0.53728   0.15626   0.09602   0.00000  Uiso   1.00
C103   C     0.46189   0.17287   0.45060   0.00000  Uiso   1.00
C104   C     0.53811   0.16046   0.04940   0.00000  Uiso   1.00
C105   C     0.49965   0.16587   0.47648   0.00000  Uiso   1.00
C106   C     0.50035   0.16746   0.02352   0.00000  Uiso   1.00
C107   C     0.53678   0.15734   0.45548   0.00000  Uiso   1.00
C108   C     0.46322   0.17599   0.04452   0.00000  Uiso   1.00
C109   C     0.42454   0.17705   0.47249   0.00000  Uiso   1.00
C110   C     0.57546   0.15628   0.02751   0.00000  Uiso   1.00
Cu111  Cu    0.50000   0.21355   0.25000   0.00000  Uiso   1.00
Cu112  Cu    0.50000   0.11978   0.25000   0.00000  Uiso   1.00
H113   H     0.39692   0.18300   0.03411   0.00000  Uiso   1.00
H114   H     0.60308   0.15033   0.46589   0.00000  Uiso   1.00
N115   N     0.50000   0.28402   0.25000   0.00000  Uiso   1.00
N116   N     0.50000   0.04931   0.25000   0.00000  Uiso   1.00
O117   O     0.43988   0.20625   0.25000   0.00000  Uiso   1.00
O118   O     0.56012   0.12709   0.25001   0.00000  Uiso   1.00
O119   O     0.56012   0.20625   0.25001   0.00000  Uiso   1.00
O120   O     0.43988   0.12709   0.25000   0.00000  Uiso   1.00
O121   O     0.49999   0.20627   0.18513   0.00000  Uiso   1.00
O122   O     0.50001   0.12707   0.31487   0.00000  Uiso   1.00
O123   O     0.50001   0.20627   0.31487   0.00000  Uiso   1.00
O124   O     0.49999   0.12707   0.18513   0.00000  Uiso   1.00
C125   C     0.57455   0.14248   0.38632   0.00000  Uiso   1.00
O126   O     0.58749   0.16816   0.35831   0.00000  Uiso   1.00
O127   O     0.59570   0.10112   0.39779   0.00000  Uiso   1.00
H128   H     0.62183   0.09679   0.38150   0.00000  Uiso   1.00
C129   C     0.42545   0.19085   0.11368   0.00000  Uiso   1.00
O130   O     0.41251   0.16517   0.14169   0.00000  Uiso   1.00
O131   O     0.40430   0.23222   0.10222   0.00000  Uiso   1.00
H132   H     0.37817   0.23654   0.11850   0.00000  Uiso   1.00
O133   O     0.42760   0.19349   0.37997   0.00000  Uiso   1.00
H134   H     0.43142   0.19476   0.34782   0.00000  Uiso   1.00
O135   O     0.57241   0.13985   0.12003   0.00000  Uiso   1.00
H136   H     0.56859   0.13859   0.15219   0.00000  Uiso   1.00
C137   C     0.38287   0.17457   0.44959   0.00000  Uiso   1.00
O138   O     0.37514   0.14387   0.42273   0.00000  Uiso   1.00
O139   O     0.35193   0.20612   0.46044   0.00000  Uiso   1.00
H140   H     0.65825   0.20105   0.44265   0.00000  Uiso   1.00
C141   C     0.61713   0.15876   0.05041   0.00000  Uiso   1.00
O142   O     0.62486   0.18946   0.07727   0.00000  Uiso   1.00
O143   O     0.64807   0.12721   0.03956   0.00000  Uiso   1.00
H144   H     0.34175   0.13228   0.05735   0.00000  Uiso   1.00
O145   O     0.37795   0.10282   0.30463   0.00000  Uiso   1.00
H146   H     0.40337   0.11736   0.31722   0.00000  Uiso   1.00
O147   O     0.62205   0.23052   0.19537   0.00000  Uiso   1.00
H148   H     0.59663   0.21597   0.18278   0.00000  Uiso   1.00
O149   O     0.62954   0.09599   0.29425   0.00000  Uiso   1.00
H150   H     0.61770   0.07521   0.27092   0.00000  Uiso   1.00
O151   O     0.37046   0.23735   0.20576   0.00000  Uiso   1.00
H152   H     0.38230   0.25812   0.22909   0.00000  Uiso   1.00
O153   O     0.45758   0.04687   0.18162   0.00000  Uiso   1.00
H154   H     0.44577   0.07578   0.19274   0.00000  Uiso   1.00
O155   O     0.54240   0.28646   0.31839   0.00000  Uiso   1.00
H156   H     0.55425   0.25757   0.30726   0.00000  Uiso   1.00
O157   O     0.54272   0.04445   0.31805   0.00000  Uiso   1.00
H158   H     0.55299   0.07371   0.30702   0.00000  Uiso   1.00
O159   O     0.45727   0.28888   0.18196   0.00000  Uiso   1.00
H160   H     0.44701   0.25962   0.19298   0.00000  Uiso   1.00
C161   C     0.75423   0.16726   0.25091   0.00000  Uiso   1.00
C162   C     0.91244   0.16607   0.24909   0.00000  Uiso   1.00
C163   C     0.75928   0.18000   0.01856   0.00000  Uiso   1.00
C164   C     0.90739   0.15333   0.48144   0.00000  Uiso   1.00
C165   C     0.69002   0.13413   0.27655   0.00000  Uiso   1.00
C166   C     0.97665   0.19920   0.22345   0.00000  Uiso   1.00
C167   C     0.98079   0.13100   0.27197   0.00000  Uiso   1.00
C168   C     0.68587   0.20233   0.22803   0.00000  Uiso   1.00
C169   C     0.95707   0.16463   0.24711   0.00000  Uiso   1.00
C170   C     0.70960   0.16871   0.25290   0.00000  Uiso   1.00
C171   C     0.81283   0.02504   0.21644   0.00000  Uiso   1.00
C172   C     0.85383   0.30829   0.28357   0.00000  Uiso   1.00
C173   C     0.85385   0.02385   0.28353   0.00000  Uiso   1.00
C174   C     0.81281   0.30948   0.21647   0.00000  Uiso   1.00
C175   C     0.83331   0.16672   0.16475   0.00000  Uiso   1.00
C176   C     0.83335   0.16661   0.33525   0.00000  Uiso   1.00
C177   C     0.86974   0.15533   0.40879   0.00000  Uiso   1.00
C178   C     0.79693   0.17801   0.09121   0.00000  Uiso   1.00
C179   C     0.83305   0.16659   0.38344   0.00000  Uiso   1.00
C180   C     0.83362   0.16675   0.11656   0.00000  Uiso   1.00
C181   C     0.79606   0.17708   0.40398   0.00000  Uiso   1.00
C182   C     0.87061   0.15626   0.09602   0.00000  Uiso   1.00
C183   C     0.79522   0.17287   0.45060   0.00000  Uiso   1.00
C184   C     0.87144   0.16046   0.04940   0.00000  Uiso   1.00
C185   C     0.83298   0.16587   0.47648   0.00000  Uiso   1.00
C186   C     0.83368   0.16746   0.02352   0.00000  Uiso   1.00
C187   C     0.87011   0.15734   0.45548   0.00000  Uiso   1.00
C188   C     0.79655   0.17599   0.04452   0.00000  Uiso   1.00
C189   C     0.75787   0.17705   0.47249   0.00000  Uiso   1.00
C190   C     0.90879   0.15628   0.02751   0.00000  Uiso   1.00
Cu191  Cu    0.83333   0.21355   0.25000   0.00000  Uiso   1.00
Cu192  Cu    0.83333   0.11978   0.25000   0.00000  Uiso   1.00
H193   H     0.73025   0.18300   0.03411   0.00000  Uiso   1.00
H194   H     0.93641   0.15033   0.46589   0.00000  Uiso   1.00
N195   N     0.83333   0.28402   0.25000   0.00000  Uiso   1.00
N196   N     0.83333   0.04931   0.25000   0.00000  Uiso   1.00
O197   O     0.77321   0.20625   0.25000   0.00000  Uiso   1.00
O198   O     0.89345   0.12709   0.25001   0.00000  Uiso   1.00
O199   O     0.89345   0.20625   0.25001   0.00000  Uiso   1.00
O200   O     0.77321   0.12709   0.25000   0.00000  Uiso   1.00
O201   O     0.83332   0.20627   0.18513   0.00000  Uiso   1.00
O202   O     0.83334   0.12707   0.31487   0.00000  Uiso   1.00
O203   O     0.83334   0.20627   0.31487   0.00000  Uiso   1.00
O204   O     0.83332   0.12707   0.18513   0.00000  Uiso   1.00
C205   C     0.90788   0.14248   0.38632   0.00000  Uiso   1.00
O206   O     0.92083   0.16816   0.35831   0.00000  Uiso   1.00
O207   O     0.92903   0.10112   0.39779   0.00000  Uiso   1.00
H208   H     0.95516   0.09679   0.38150   0.00000  Uiso   1.00
C209   C     0.75879   0.19085   0.11368   0.00000  Uiso   1.00
O210   O     0.74584   0.16517   0.14169   0.00000  Uiso   1.00
O211   O     0.73764   0.23222   0.10222   0.00000  Uiso   1.00
H212   H     0.71150   0.23654   0.11850   0.00000  Uiso   1.00
O213   O     0.76093   0.19349   0.37997   0.00000  Uiso   1.00
H214   H     0.76475   0.19476   0.34782   0.00000  Uiso   1.00
O215   O     0.90574   0.13985   0.12003   0.00000  Uiso   1.00
H216   H     0.90192   0.13859   0.15219   0.00000  Uiso   1.00
C217   C     0.71620   0.17457   0.44959   0.00000  Uiso   1.00
O218   O     0.70847   0.14387   0.42273   0.00000  Uiso   1.00
O219   O     0.68527   0.20612   0.46044   0.00000  Uiso   1.00
H220   H     0.99159   0.20105   0.44265   0.00000  Uiso   1.00
C221   C     0.95046   0.15876   0.05041   0.00000  Uiso   1.00
O222   O     0.95820   0.18946   0.07727   0.00000  Uiso   1.00
O223   O     0.98140   0.12721   0.03956   0.00000  Uiso   1.00
H224   H     0.67508   0.13228   0.05735   0.00000  Uiso   1.00
O225   O     0.71128   0.10282   0.30463   0.00000  Uiso   1.00
H226   H     0.73670   0.11736   0.31722   0.00000  Uiso   1.00
O227   O     0.95539   0.23052   0.19537   0.00000  Uiso   1.00
H228   H     0.92997   0.21597   0.18278   0.00000  Uiso   1.00
O229   O     0.96287   0.09599   0.29425   0.00000  Uiso   1.00
H230   H     0.95103   0.07521   0.27092   0.00000  Uiso   1.00
O231   O     0.70379   0.23735   0.20576   0.00000  Uiso   1.00
H232   H     0.71563   0.25812   0.22909   0.00000  Uiso   1.00
O233   O     0.79092   0.04687   0.18162   0.00000  Uiso   1.00
H234   H     0.77911   0.07578   0.19274   0.00000  Uiso   1.00
O235   O     0.87573   0.28646   0.31839   0.00000  Uiso   1.00
H236   H     0.88759   0.25757   0.30726   0.00000  Uiso   1.00
O237   O     0.87605   0.04445   0.31805   0.00000  Uiso   1.00
H238   H     0.88632   0.07371   0.30702   0.00000  Uiso   1.00
O239   O     0.79061   0.28888   0.18196   0.00000  Uiso   1.00
H240   H     0.78035   0.25962   0.19298   0.00000  Uiso   1.00
C241   C     0.08756   0.50060   0.25091   0.00000  Uiso   1.00
C242   C     0.24577   0.49940   0.24909   0.00000  Uiso   1.00
C243   C     0.09261   0.51333   0.01856   0.00000  Uiso   1.00
C244   C     0.24072   0.48667   0.48144   0.00000  Uiso   1.00
C245   C     0.02335   0.46747   0.27655   0.00000  Uiso   1.00
C246   C     0.30998   0.53253   0.22345   0.00000  Uiso   1.00
C247   C     0.31413   0.46434   0.27197   0.00000  Uiso   1.00
C248   C     0.01921   0.53566   0.22803   0.00000  Uiso   1.00
C249   C     0.29040   0.49796   0.24711   0.00000  Uiso   1.00
C250   C     0.04293   0.50204   0.25290   0.00000  Uiso   1.00
C251   C     0.14616   0.35838   0.21644   0.00000  Uiso   1.00
C252   C     0.18717   0.64162   0.28357   0.00000  Uiso   1.00
C253   C     0.18718   0.35718   0.28353   0.00000  Uiso   1.00
C254   C     0.14615   0.64282   0.21647   0.00000  Uiso   1.00
C255   C     0.16665   0.50006   0.16475   0.00000  Uiso   1.00
C256   C     0.16669   0.49994   0.33525   0.00000  Uiso   1.00
C257   C     0.20307   0.48866   0.40879   0.00000  Uiso   1.00
C258   C     0.13026   0.51134   0.09121   0.00000  Uiso   1.00
C259   C     0.16638   0.49992   0.38344   0.00000  Uiso   1.00
C260   C     0.16695   0.50008   0.11656   0.00000  Uiso   1.00
C261   C     0.12939   0.51041   0.40398   0.00000  Uiso   1.00
C262   C     0.20394   0.48959   0.09602   0.00000  Uiso   1.00
C263   C     0.12856   0.50621   0.45060   0.00000  Uiso   1.00
C264   C     0.20478   0.49379   0.04940   0.00000  Uiso   1.00
C265   C     0.16632   0.49920   0.47648   0.00000  Uiso   1.00
C266   C     0.16702   0.50080   0.02352   0.00000  Uiso   1.00
C267   C     0.20345   0.49068   0.45548   0.00000  Uiso   1.00
C268   C     0.12989   0.50932   0.04452   0.00000  Uiso   1.00
C269   C     0.09121   0.51039   0.47249   0.00000  Uiso   1.00
C270   C     0.24213   0.48961   0.02751   0.00000  Uiso   1.00
Cu271  Cu    0.16667   0.54689   0.25000   0.00000  Uiso   1.00
Cu272  Cu    0.16667   0.45311   0.25000   0.00000  Uiso   1.00
H273   H     0.06359   0.51633   0.03411   0.00000  Uiso   1.00
H274   H     0.26975   0.48367   0.46589   0.00000  Uiso   1.00
N275   N     0.16667   0.61736   0.25000   0.00000  Uiso   1.00
N276   N     0.16667   0.38264   0.25000   0.00000  Uiso   1.00
O277   O     0.10655   0.53958   0.25000   0.00000  Uiso   1.00
O278   O     0.22679   0.46042   0.25001   0.00000  Uiso   1.00
O279   O     0.22679   0.53958   0.25001   0.00000  Uiso   1.00
O280   O     0.10655   0.46042   0.25000   0.00000  Uiso   1.00
O281   O     0.16666   0.53960   0.18513   0.00000  Uiso   1.00
O282   O     0.16668   0.46040   0.31487   0.00000  Uiso   1.00
O283   O     0.16668   0.53960   0.31487   0.00000  Uiso   1.00
O284   O     0.16666   0.46040   0.18513   0.00000  Uiso   1.00
C285   C     0.24121   0.47582   0.38632   0.00000  Uiso   1.00
O286   O     0.25416   0.50150   0.35831   0.00000  Uiso   1.00
O287   O     0.26236   0.43445   0.39779   0.00000  Uiso   1.00
H288   H     0.28850   0.43012   0.38150   0.00000  Uiso   1.00
C289   C     0.09212   0.52418   0.11368   0.00000  Uiso   1.00
O290   O     0.07917   0.49850   0.14169   0.00000  Uiso   1.00
O291   O     0.07097   0.56555   0.10222   0.00000  Uiso   1.00
H292   H     0.04484   0.56988   0.11850   0.00000  Uiso   1.00
O293   O     0.09426   0.52682   0.37997   0.00000  Uiso   1.00
H294   H     0.09808   0.52810   0.34782   0.00000  Uiso   1.00
O295   O     0.23907   0.47318   0.12003   0.00000  Uiso   1.00
H296   H     0.23525   0.47192   0.15219   0.00000  Uiso   1.00
C297   C     0.04954   0.50791   0.44959   0.00000  Uiso   1.00
O298   O     0.04180   0.47720   0.42273   0.00000  Uiso   1.00
O299   O     0.01860   0.53946   0.46044   0.00000  Uiso   1.00
H300   H     0.32492   0.53439   0.44265   0.00000  Uiso   1.00
C301   C     0.28380   0.49210   0.05041   0.00000  Uiso   1.00
O302   O     0.29153   0.52280   0.07727   0.00000  Uiso   1.00
O303   O     0.31473   0.46055   0.03956   0.00000  Uiso   1.00
H304   H     0.00841   0.46562   0.05735   0.00000  Uiso   1.00
O305   O     0.04461   0.43615   0.30463   0.00000  Uiso   1.00
H306   H     0.07003   0.45069   0.31722   0.00000  Uiso   1.00
O307   O     0.28872   0.56385   0.19537   0.00000  Uiso   1.00
H308   H     0.26330   0.54931   0.18278   0.00000  Uiso   1.00
O309   O     0.29621   0.42932   0.29425   0.00000  Uiso   1.00
H310   H     0.28437   0.40855   0.27092   0.00000  Uiso   1.00
O311   O     0.03713   0.57068   0.20576   0.00000  Uiso   1.00
H312   H     0.04896   0.59145   0.22909   0.00000  Uiso   1.00
O313   O     0.12425   0.38020   0.18162   0.00000  Uiso   1.00
H314   H     0.11244   0.40912   0.19274   0.00000  Uiso   1.00
O315   O     0.20906   0.61979   0.31839   0.00000  Uiso   1.00
H316   H     0.22092   0.59091   0.30726   0.00000  Uiso   1.00
O317   O     0.20939   0.37779   0.31805   0.00000  Uiso   1.00
H318   H     0.21966   0.40704   0.30702   0.00000  Uiso   1.00
O319   O     0.12394   0.62221   0.18196   0.00000  Uiso   1.00
H320   H     0.11368   0.59295   0.19298   0.00000  Uiso   1.00
C321   C     0.42090   0.50060   0.25091   0.00000  Uiso   1.00
C322   C     0.57910   0.49940   0.24909   0.00000  Uiso   1.00
C323   C     0.42595   0.51333   0.01856   0.00000  Uiso   1.00
C324   C     0.57405   0.48667   0.48144   0.00000  Uiso   1.00
C325   C     0.35668   0.46747   0.27655   0.00000  Uiso   1.00
C326   C     0.64332   0.53253   0.22345   0.00000  Uiso   1.00
C327   C     0.64746   0.46434   0.27197   0.00000  Uiso   1.00
C328   C     0.35254   0.53566   0.22803   0.00000  Uiso   1.00
C329   C     0.62373   0.49796   0.24711   0.00000  Uiso   1.00
C330   C     0.37627   0.50204   0.25290   0.00000  Uiso   1.00
C331   C     0.47950   0.35838   0.21644   0.00000  Uiso   1.00
C332   C     0.52050   0.64162   0.28357   0.00000  Uiso   1.00
C333   C     0.52052   0.35718   0.28353   0.00000  Uiso   1.00
C334   C     0.47948   0.64282   0.21647   0.00000  Uiso   1.00
C335   C     0.49998   0.50006   0.16475   0.00000  Uiso   1.00
C336   C     0.50002   0.49994   0.33525   0.00000  Uiso   1.00
C337   C     0.53640   0.48866   0.40879   0.00000  Uiso   1.00
C338   C     0.46360   0.51134   0.09121   0.00000  Uiso   1.00
C339   C     0.49971   0.49992   0.38344   0.00000  Uiso   1.00
C340   C     0.50029   0.50008   0.11656   0.00000  Uiso   1.00
C341   C     0.46272   0.51041   0.40398   0.00000  Uiso   1.00
C342   C     0.53728   0.48959   0.09602   0.00000  Uiso   1.00
C343   C     0.46189   0.50621   0.45060   0.00000  Uiso   1.00
C344   C     0.53811   0.49379   0.04940   0.00000  Uiso   1.00
C345   C     0.49965   0.49920   0.47648   0.00000  Uiso   1.00
C346   C     0.50035   0.50080   0.02352   0.00000  Uiso   1.00
C347   C     0.53678   0.49068   0.45548   0.00000  Uiso   1.00
C348   C     0.46322   0.50932   0.04452   0.00000  Uiso   1.00
C349   C     0.42454   0.51039   0.47249   0.00000  Uiso   1.00
C350   C     0.57546   0.48961   0.02751   0.00000  Uiso   1.00
Cu351  Cu    0.50000   0.54689   0.25000   0.00000  Uiso   1.00
Cu352  Cu    0.50000   0.45311   0.25000   0.00000  Uiso   1.00
H353   H     0.39692   0.51633   0.03411   0.00000  Uiso   1.00
H354   H     0.60308   0.48367   0.46589   0.00000  Uiso   1.00
N355   N     0.50000   0.61736   0.25000   0.00000  Uiso   1.00
N356   N     0.50000   0.38264   0.25000   0.00000  Uiso   1.00
O357   O     0.43988   0.53958   0.25000   0.00000  Uiso   1.00
O358   O     0.56012   0.46042   0.25001   0.00000  Uiso   1.00
O359   O     0.56012   0.53958   0.25001   0.00000  Uiso   1.00
O360   O     0.43988   0.46042   0.25000   0.00000  Uiso   1.00
O361   O     0.49999   0.53960   0.18513   0.00000  Uiso   1.00
O362   O     0.50001   0.46040   0.31487   0.00000  Uiso   1.00
O363   O     0.50001   0.53960   0.31487   0.00000  Uiso   1.00
O364   O     0.49999   0.46040   0.18513   0.00000  Uiso   1.00
C365   C     0.57455   0.47582   0.38632   0.00000  Uiso   1.00
O366   O     0.58749   0.50150   0.35831   0.00000  Uiso   1.00
O367   O     0.59570   0.43445   0.39779   0.00000  Uiso   1.00
H368   H     0.62183   0.43012   0.38150   0.00000  Uiso   1.00
C369   C     0.42545   0.52418   0.11368   0.00000  Uiso   1.00
O370   O     0.41251   0.49850   0.14169   0.00000  Uiso   1.00
O371   O     0.40430   0.56555   0.10222   0.00000  Uiso   1.00
H372   H     0.37817   0.56988   0.11850   0.00000  Uiso   1.00
O373   O     0.42760   0.52682   0.37997   0.00000  Uiso   1.00
H374   H     0.43142   0.52810   0.34782   0.00000  Uiso   1.00
O375   O     0.57241   0.47318   0.12003   0.00000  Uiso   1.00
H376   H     0.56859   0.47192   0.15219   0.00000  Uiso   1.00
C377   C     0.38287   0.50791   0.44959   0.00000  Uiso   1.00
O378   O     0.37514   0.47720   0.42273   0.00000  Uiso   1.00
O379   O     0.35193   0.53946   0.46044   0.00000  Uiso   1.00
H380   H     0.65825   0.53439   0.44265   0.00000  Uiso   1.00
C381   C     0.61713   0.49210   0.05041   0.00000  Uiso   1.00
O382   O     0.62486   0.52280   0.07727   0.00000  Uiso   1.00
O383   O     0.64807   0.46055   0.03956   0.00000  Uiso   1.00
H384   H     0.34175   0.46562   0.05735   0.00000  Uiso   1.00
O385   O     0.37795   0.43615   0.30463   0.00000  Uiso   1.00
H386   H     0.40337   0.45069   0.31722   0.00000  Uiso   1.00
O387   O     0.62205   0.56385   0.19537   0.00000  Uiso   1.00
H388   H     0.59663   0.54931   0.18278   0.00000  Uiso   1.00
O389   O     0.62954   0.42932   0.29425   0.00000  Uiso   1.00
H390   H     0.61770   0.40855   0.27092   0.00000  Uiso   1.00
O391   O     0.37046   0.57068   0.20576   0.00000  Uiso   1.00
H392   H     0.38230   0.59145   0.22909   0.00000  Uiso   1.00
O393   O     0.45758   0.38020   0.18162   0.00000  Uiso   1.00
H394   H     0.44577   0.40912   0.19274   0.00000  Uiso   1.00
O395   O     0.54240   0.61979   0.31839   0.00000  Uiso   1.00
H396   H     0.55425   0.59091   0.30726   0.00000  Uiso   1.00
O397   O     0.54272   0.37779   0.31805   0.00000  Uiso   1.00
H398   H     0.55299   0.40704   0.30702   0.00000  Uiso   1.00
O399   O     0.45727   0.62221   0.18196   0.00000  Uiso   1.00
H400   H     0.44701   0.59295   0.19298   0.00000  Uiso   1.00
C401   C     0.75423   0.50060   0.25091   0.00000  Uiso   1.00
C402   C     0.91244   0.49940   0.24909   0.00000  Uiso   1.00
C403   C     0.75928   0.51333   0.01856   0.00000  Uiso   1.00
C404   C     0.90739   0.48667   0.48144   0.00000  Uiso   1.00
C405   C     0.69002   0.46747   0.27655   0.00000  Uiso   1.00
C406   C     0.97665   0.53253   0.22345   0.00000  Uiso   1.00
C407   C     0.98079   0.46434   0.27197   0.00000  Uiso   1.00
C408   C     0.68587   0.53566   0.22803   0.00000  Uiso   1.00
C409   C     0.95707   0.49796   0.24711   0.00000  Uiso   1.00
C410   C     0.70960   0.50204   0.25290   0.00000  Uiso   1.00
C411   C     0.81283   0.35838   0.21644   0.00000  Uiso   1.00
C412   C     0.85383   0.64162   0.28357   0.00000  Uiso   1.00
C413   C     0.85385   0.35718   0.28353   0.00000  Uiso   1.00
C414   C     0.81281   0.64282   0.21647   0.00000  Uiso   1.00
C415   C     0.83331   0.50006   0.16475   0.00000  Uiso   1.00
C416   C     0.83335   0.49994   0.33525   0.00000  Uiso   1.00
C417   C     0.86974   0.48866   0.40879   0.00000  Uiso   1.00
C418   C     0.79693   0.51134   0.09121   0.00000  Uiso   1.00
C419   C     0.83305   0.49992   0.38344   0.00000  Uiso   1.00
C420   C     0.83362   0.50008   0.11656   0.00000  Uiso   1.00
C421   C     0.79606   0.51041   0.40398   0.00000  Uiso   1.00
C422   C     0.87061   0.48959   0.09602   0.00000  Uiso   1.00
C423   C     0.79522   0.50621   0.45060   0.00000  Uiso   1.00
C424   C     0.87144   0.49379   0.04940   0.00000  Uiso   1.00
C425   C     0.83298   0.49920   0.47648   0.00000  Uiso   1.00
C426   C     0.83368   0.50080   0.02352   0.00000  Uiso   1.00
C427   C     0.87011   0.49068   0.45548   0.00000  Uiso   1.00
C428   C     0.79655   0.50932   0.04452   0.00000  Uiso   1.00
C429   C     0.75787   0.51039   0.47249   0.00000  Uiso   1.00
C430   C     0.90879   0.48961   0.02751   0.00000  Uiso   1.00
Cu431  Cu    0.83333   0.54689   0.25000   0.00000  Uiso   1.00
Cu432  Cu    0.83333   0.45311   0.25000   0.00000  Uiso   1.00
H433   H     0.73025   0.51633   0.03411   0.00000  Uiso   1.00
H434   H     0.93641   0.48367   0.46589   0.00000  Uiso   1.00
N435   N     0.83333   0.61736   0.25000   0.00000  Uiso   1.00
N436   N     0.83333   0.38264   0.25000   0.00000  Uiso   1.00
O437   O     0.77321   0.53958   0.25000   0.00000  Uiso   1.00
O438   O     0.89345   0.46042   0.25001   0.00000  Uiso   1.00
O439   O     0.89345   0.53958   0.25001   0.00000  Uiso   1.00
O440   O     0.77321   0.46042   0.25000   0.00000  Uiso   1.00
O441   O     0.83332   0.53960   0.18513   0.00000  Uiso   1.00
O442   O     0.83334   0.46040   0.31487   0.00000  Uiso   1.00
O443   O     0.83334   0.53960   0.31487   0.00000  Uiso   1.00
O444   O     0.83332   0.46040   0.18513   0.00000  Uiso   1.00
C445   C     0.90788   0.47582   0.38632   0.00000  Uiso   1.00
O446   O     0.92083   0.50150   0.35831   0.00000  Uiso   1.00
O447   O     0.92903   0.43445   0.39779   0.00000  Uiso   1.00
H448   H     0.95516   0.43012   0.38150   0.00000  Uiso   1.00
C449   C     0.75879   0.52418   0.11368   0.00000  Uiso   1.00
O450   O     0.74584   0.49850   0.14169   0.00000  Uiso   1.00
O451   O     0.73764   0.56555   0.10222   0.00000  Uiso   1.00
H452   H     0.71150   0.56988   0.11850   0.00000  Uiso   1.00
O453   O     0.76093   0.52682   0.37997   0.00000  Uiso   1.00
H454   H     0.76475   0.52810   0.34782   0.00000  Uiso   1.00
O455   O     0.90574   0.47318   0.12003   0.00000  Uiso   1.00
H456   H     0.90192   0.47192   0.15219   0.00000  Uiso   1.00
C457   C     0.71620   0.50791   0.44959   0.00000  Uiso   1.00
O458   O     0.70847   0.47720   0.42273   0.00000  Uiso   1.00
O459   O     0.68527   0.53946   0.46044   0.00000  Uiso   1.00
H460   H     0.99159   0.53439   0.44265   0.00000  Uiso   1.00
C461   C     0.95046   0.49210   0.05041   0.00000  Uiso   1.00
O462   O     0.95820   0.52280   0.07727   0.00000  Uiso   1.00
O463   O     0.98140   0.46055   0.03956   0.00000  Uiso   1.00
H464   H     0.67508   0.46562   0.05735   0.00000  Uiso   1.00
O465   O     0.71128   0.43615   0.30463   0.00000  Uiso   1.00
H466   H     0.73670   0.45069   0.31722   0.00000  Uiso   1.00
O467   O     0.95539   0.56385   0.19537   0.00000  Uiso   1.00
H468   H     0.92997   0.54931   0.18278   0.00000  Uiso   1.00
O469   O     0.96287   0.42932   0.29425   0.00000  Uiso   1.00
H470   H     0.95103   0.40855   0.27092   0.00000  Uiso   1.00
O471   O     0.70379   0.57068   0.20576   0.00000  Uiso   1.00
H472   H     0.71563   0.59145   0.22909   0.00000  Uiso   1.00
O473   O     0.79092   0.38020   0.18162   0.00000  Uiso   1.00
H474   H     0.77911   0.40912   0.19274   0.00000  Uiso   1.00
O475   O     0.87573   0.61979   0.31839   0.00000  Uiso   1.00
H476   H     0.88759   0.59091   0.30726   0.00000  Uiso   1.00
O477   O     0.87605   0.37779   0.31805   0.00000  Uiso   1.00
H478   H     0.88632   0.40704   0.30702   0.00000  Uiso   1.00
O479   O     0.79061   0.62221   0.18196   0.00000  Uiso   1.00
H480   H     0.78035   0.59295   0.19298   0.00000  Uiso   1.00
C481   C     0.08756   0.83393   0.25091   0.00000  Uiso   1.00
C482   C     0.24577   0.83274   0.24909   0.00000  Uiso   1.00
C483   C     0.09261   0.84667   0.01856   0.00000  Uiso   1.00
C484   C     0.24072   0.82000   0.48144   0.00000  Uiso   1.00
C485   C     0.02335   0.80080   0.27655   0.00000  Uiso   1.00
C486   C     0.30998   0.86587   0.22345   0.00000  Uiso   1.00
C487   C     0.31413   0.79767   0.27197   0.00000  Uiso   1.00
C488   C     0.01921   0.86900   0.22803   0.00000  Uiso   1.00
C489   C     0.29040   0.83129   0.24711   0.00000  Uiso   1.00
C490   C     0.04293   0.83538   0.25290   0.00000  Uiso   1.00
C491   C     0.14616   0.69171   0.21644   0.00000  Uiso   1.00
C492   C     0.18717   0.97496   0.28357   0.00000  Uiso   1.00
C493   C     0.18718   0.69052   0.28353   0.00000  Uiso   1.00
C494   C     0.14615   0.97615   0.21647   0.00000  Uiso   1.00
C495   C     0.16665   0.83339   0.16475   0.00000  Uiso   1.00
C496   C     0.16669   0.83328   0.33525   0.00000  Uiso   1.00
C497   C     0.20307   0.82199   0.40879   0.00000  Uiso   1.00
C498   C     0.13026   0.84467   0.09121   0.00000  Uiso   1.00
C499   C     0.16638   0.83325   0.38344   0.00000  Uiso   1.00
C500   C     0.16695   0.83341   0.11656   0.00000  Uiso   1.00
C501   C     0.12939   0.84375   0.40398   0.00000  Uiso   1.00
C502   C     0.20394   0.82292   0.09602   0.00000  Uiso   1.00
C503   C     0.12856   0.83954   0.45060   0.00000  Uiso   1.00
C504   C     0.20478   0.82713   0.04940   0.00000  Uiso   1.00
C505   C     0.16632   0.83254   0.47648   0.00000  Uiso   1.00
C506   C     0.16702   0.83413   0.02352   0.00000  Uiso   1.00
C507   C     0.20345   0.82401   0.45548   0.00000  Uiso   1.00
C508   C     0.12989   0.84266   0.04452   0.00000  Uiso   1.00
C509   C     0.09121   0.84372   0.47249   0.00000  Uiso   1.00
C510   C     0.24213   0.82295   0.02751   0.00000  Uiso   1.00
Cu511  Cu    0.16667   0.88022   0.25000   0.00000  Uiso   1.00
Cu512  Cu    0.16667   0.78645   0.25000   0.00000  Uiso   1.00
H513   H     0.06359   0.84966   0.03411   0.00000  Uiso   1.00
H514   H     0.26975   0.81700   0.46589   0.00000  Uiso   1.00
N515   N     0.16667   0.95069   0.25000   0.00000  Uiso   1.00
N516   N     0.16667   0.71598   0.25000   0.00000  Uiso   1.00
O517   O     0.10655   0.87291   0.25000   0.00000  Uiso   1.00
O518   O     0.22679   0.79375   0.25001   0.00000  Uiso   1.00
O519   O     0.22679   0.87291   0.25001   0.00000  Uiso   1.00
O520   O     0.10655   0.79375   0.25000   0.00000  Uiso   1.00
O521   O     0.16666   0.87293   0.18513   0.00000  Uiso   1.00
O522   O     0.16668   0.79373   0.31487   0.00000  Uiso   1.00
O523   O     0.16668   0.87293   0.31487   0.00000  Uiso   1.00
O524   O     0.16666   0.79373   0.18513   0.00000  Uiso   1.00
C525   C     0.24121   0.80915   0.38632   0.00000  Uiso   1.00
O526   O     0.25416   0.83483   0.35831   0.00000  Uiso   1.00
O527   O     0.26236   0.76778   0.39779   0.00000  Uiso   1.00
H528   H     0.28850   0.76346   0.38150   0.00000  Uiso   1.00
C529   C     0.09212   0.85751   0.11368   0.00000  Uiso   1.00
O530   O     0.07917   0.83183   0.14169   0.00000  Uiso   1.00
O531   O     0.07097   0.89888   0.10222   0.00000  Uiso   1.00
H532   H     0.04484   0.90321   0.11850   0.00000  Uiso   1.00
O533   O     0.09426   0.86016   0.37997   0.00000  Uiso   1.00
H534   H     0.09808   0.86143   0.34782   0.00000  Uiso   1.00
O535   O     0.23907   0.80652   0.12003   0.00000  Uiso   1.00
H536   H     0.23525   0.80525   0.15219   0.00000  Uiso   1.00
C537   C     0.04954   0.84124   0.44959   0.00000  Uiso   1.00
O538   O     0.04180   0.81054   0.42273   0.00000  Uiso   1.00
O539   O     0.01860   0.87279   0.46044   0.00000  Uiso   1.00
H540   H     0.32492   0.86772   0.44265   0.00000  Uiso   1.00
C541   C     0.28380   0.82543   0.05041   0.00000  Uiso   1.00
O542   O     0.29153   0.85613   0.07727   0.00000  Uiso   1.00
O543   O     0.31473   0.79388   0.03956   0.00000  Uiso   1.00
H544   H     0.00841   0.79895   0.05735   0.00000  Uiso   1.00
O545   O     0.04461   0.76948   0.30463   0.00000  Uiso   1.00
H546   H     0.07003   0.78403   0.31722   0.00000  Uiso   1.00
O547   O     0.28872   0.89718   0.19537   0.00000  Uiso   1.00
H548   H     0.26330   0.88264   0.18278   0.00000  Uiso   1.00
O549   O     0.29621   0.76265   0.29425   0.00000  Uiso   1.00
H550   H     0.28437   0.74188   0.27092   0.00000  Uiso   1.00
O551   O     0.03713   0.90402   0.20576   0.00000  Uiso   1.00
H552   H     0.04896   0.92479   0.22909   0.00000  Uiso   1.00
O553   O     0.12425   0.71353   0.18162   0.00000  Uiso   1.00
H554   H     0.11244   0.74245   0.19274   0.00000  Uiso   1.00
O555   O     0.20906   0.95313   0.31839   0.00000  Uiso   1.00
H556   H     0.22092   0.92424   0.30726   0.00000  Uiso   1.00
O557   O     0.20939   0.71112   0.31805   0.00000  Uiso   1.00
H558   H     0.21966   0.74038   0.30702   0.00000  Uiso   1.00
O559   O     0.12394   0.95555   0.18196   0.00000  Uiso   1.00
H560   H     0.11368   0.92628   0.19298   0.00000  Uiso   1.00
C561   C     0.42090   0.83393   0.25091   0.00000  Uiso   1.00
C562   C     0.57910   0.83274   0.24909   0.00000  Uiso   1.00
C563   C     0.42595   0.84667   0.01856   0.00000  Uiso   1.00
C564   C     0.57405   0.82000   0.48144   0.00000  Uiso   1.00
C565   C     0.35668   0.80080   0.27655   0.00000  Uiso   1.00
C566   C     0.64332   0.86587   0.22345   0.00000  Uiso   1.00
C567   C     0.64746   0.79767   0.27197   0.00000  Uiso   1.00
C568   C     0.35254   0.86900   0.22803   0.00000  Uiso   1.00
C569   C     0.62373   0.83129   0.24711   0.00000  Uiso   1.00
C570   C     0.37627   0.83538   0.25290   0.00000  Uiso   1.00
C571   C     0.47950   0.69171   0.21644   0.00000  Uiso   1.00
C572   C     0.52050   0.97496   0.28357   0.00000  Uiso   1.00
C573   C     0.52052   0.69052   0.28353   0.00000  Uiso   1.00
C574   C     0.47948   0.97615   0.21647   0.00000  Uiso   1.00
C575   C     0.49998   0.83339   0.16475   0.00000  Uiso   1.00
C576   C     0.50002   0.83328   0.33525   0.00000  Uiso   1.00
C577   C     0.53640   0.82199   0.40879   0.00000  Uiso   1.00
C578   C     0.46360   0.84467   0.09121   0.00000  Uiso   1.00
C579   C     0.49971   0.83325   0.38344   0.00000  Uiso   1.00
C580   C     0.50029   0.83341   0.11656   0.00000  Uiso   1.00
C581   C     0.46272   0.84375   0.40398   0.00000  Uiso   1.00
C582   C     0.53728   0.82292   0.09602   0.00000  Uiso   1.00
C583   C     0.46189   0.83954   0.45060   0.00000  Uiso   1.00
C584   C     0.53811   0.82713   0.04940   0.00000  Uiso   1.00
C585   C     0.49965   0.83254   0.47648   0.00000  Uiso   1.00
C586   C     0.50035   0.83413   0.02352   0.00000  Uiso   1.00
C587   C     0.53678   0.82401   0.45548   0.00000  Uiso   1.00
C588   C     0.46322   0.84266   0.04452   0.00000  Uiso   1.00
C589   C     0.42454   0.84372   0.47249   0.00000  Uiso   1.00
C590   C     0.57546   0.82295   0.02751   0.00000  Uiso   1.00
Cu591  Cu    0.50000   0.88022   0.25000   0.00000  Uiso   1.00
Cu592  Cu    0.50000   0.78645   0.25000   0.00000  Uiso   1.00
H593   H     0.39692   0.84966   0.03411   0.00000  Uiso   1.00
H594   H     0.60308   0.81700   0.46589   0.00000  Uiso   1.00
N595   N     0.50000   0.95069   0.25000   0.00000  Uiso   1.00
N596   N     0.50000   0.71598   0.25000   0.00000  Uiso   1.00
O597   O     0.43988   0.87291   0.25000   0.00000  Uiso   1.00
O598   O     0.56012   0.79375   0.25001   0.00000  Uiso   1.00
O599   O     0.56012   0.87291   0.25001   0.00000  Uiso   1.00
O600   O     0.43988   0.79375   0.25000   0.00000  Uiso   1.00
O601   O     0.49999   0.87293   0.18513   0.00000  Uiso   1.00
O602   O     0.50001   0.79373   0.31487   0.00000  Uiso   1.00
O603   O     0.50001   0.87293   0.31487   0.00000  Uiso   1.00
O604   O     0.49999   0.79373   0.18513   0.00000  Uiso   1.00
C605   C     0.57455   0.80915   0.38632   0.00000  Uiso   1.00
O606   O     0.58749   0.83483   0.35831   0.00000  Uiso   1.00
O607   O     0.59570   0.76778   0.39779   0.00000  Uiso   1.00
H608   H     0.62183   0.76346   0.38150   0.00000  Uiso   1.00
C609   C     0.42545   0.85751   0.11368   0.00000  Uiso   1.00
O610   O     0.41251   0.83183   0.14169   0.00000  Uiso   1.00
O611   O     0.40430   0.89888   0.10222   0.00000  Uiso   1.00
H612   H     0.37817   0.90321   0.11850   0.00000  Uiso   1.00
O613   O     0.42760   0.86016   0.37997   0.00000  Uiso   1.00
H614   H     0.43142   0.86143   0.34782   0.00000  Uiso   1.00
O615   O     0.57241   0.80652   0.12003   0.00000  Uiso   1.00
H616   H     0.56859   0.80525   0.15219   0.00000  Uiso   1.00
C617   C     0.38287   0.84124   0.44959   0.00000  Uiso   1.00
O618   O     0.37514   0.81054   0.42273   0.00000  Uiso   1.00
O619   O     0.35193   0.87279   0.46044   0.00000  Uiso   1.00
H620   H     0.65825   0.86772   0.44265   0.00000  Uiso   1.00
C621   C     0.61713   0.82543   0.05041   0.00000  Uiso   1.00
O622   O     0.62486   0.85613   0.07727   0.00000  Uiso   1.00
O623   O     0.64807   0.79388   0.03956   0.00000  Uiso   1.00
H624   H     0.34175   0.79895   0.05735   0.00000  Uiso   1.00
O625   O     0.37795   0.76948   0.30463   0.00000  Uiso   1.00
H626   H     0.40337   0.78403   0.31722   0.00000  Uiso   1.00
O627   O     0.62205   0.89718   0.19537   0.00000  Uiso   1.00
H628   H     0.59663   0.88264   0.18278   0.00000  Uiso   1.00
O629   O     0.62954   0.76265   0.29425   0.00000  Uiso   1.00
H630   H     0.61770   0.74188   0.27092   0.00000  Uiso   1.00
O631   O     0.37046   0.90402   0.20576   0.00000  Uiso   1.00
H632   H     0.38230   0.92479   0.22909   0.00000  Uiso   1.00
O633   O     0.45758   0.71353   0.18162   0.00000  Uiso   1.00
H634   H     0.44577   0.74245   0.19274   0.00000  Uiso   1.00
O635   O     0.54240   0.95313   0.31839   0.00000  Uiso   1.00
H636   H     0.55425   0.92424   0.30726   0.00000  Uiso   1.00
O637   O     0.54272   0.71112   0.31805   0.00000  Uiso   1.00
H638   H     0.55299   0.74038   0.30702   0.00000  Uiso   1.00
O639   O     0.45727   0.95555   0.18196   0.00000  Uiso   1.00
H640   H     0.44701   0.92628   0.19298   0.00000  Uiso   1.00
C641   C     0.75423   0.83393   0.25091   0.00000  Uiso   1.00
C642   C     0.91244   0.83274   0.24909   0.00000  Uiso   1.00
C643   C     0.75928   0.84667   0.01856   0.00000  Uiso   1.00
C644   C     0.90739   0.82000   0.48144   0.00000  Uiso   1.00
C645   C     0.69002   0.80080   0.27655   0.00000  Uiso   1.00
C646   C     0.97665   0.86587   0.22345   0.00000  Uiso   1.00
C647   C     0.98079   0.79767   0.27197   0.00000  Uiso   1.00
C648   C     0.68587   0.86900   0.22803   0.00000  Uiso   1.00
C649   C     0.95707   0.83129   0.24711   0.00000  Uiso   1.00
C650   C     0.70960   0.83538   0.25290   0.00000  Uiso   1.00
C651   C     0.81283   0.69171   0.21644   0.00000  Uiso   1.00
C652   C     0.85383   0.97496   0.28357   0.00000  Uiso   1.00
C653   C     0.85385   0.69052   0.28353   0.00000  Uiso   1.00
C654   C     0.81281   0.97615   0.21647   0.00000  Uiso   1.00
C655   C     0.83331   0.83339   0.16475   0.00000  Uiso   1.00
C656   C     0.83335   0.83328   0.33525   0.00000  Uiso   1.00
C657   C     0.86974   0.82199   0.40879   0.00000  Uiso   1.00
C658   C     0.79693   0.84467   0.09121   0.00000  Uiso   1.00
C659   C     0.83305   0.83325   0.38344   0.00000  Uiso   1.00
C660   C     0.83362   0.83341   0.11656   0.00000  Uiso   1.00
C661   C     0.79606   0.84375   0.40398   0.00000  Uiso   1.00
C662   C     0.87061   0.82292   0.09602   0.00000  Uiso   1.00
C663   C     0.79522   0.83954   0.45060   0.00000  Uiso   1.00
C664   C     0.87144   0.82713   0.04940   0.00000  Uiso   1.00
C665   C     0.83298   0.83254   0.47648   0.00000  Uiso   1.00
C666   C     0.83368   0.83413   0.02352   0.00000  Uiso   1.00
C667   C     0.87011   0.82401   0.45548   0.00000  Uiso   1.00
C668   C     0.79655   0.84266   0.04452   0.00000  Uiso   1.00
C669   C     0.75787   0.84372   0.47249   0.00000  Uiso   1.00
C670   C     0.90879   0.82295   0.02751   0.00000  Uiso   1.00
Cu671  Cu    0.83333   0.88022   0.25000   0.00000  Uiso   1.00
Cu672  Cu    0.83333   0.78645   0.25000   0.00000  Uiso   1.00
H673   H     0.73025   0.84966   0.03411   0.00000  Uiso   1.00
H674   H     0.93641   0.81700   0.46589   0.00000  Uiso   1.00
N675   N     0.83333   0.95069   0.25000   0.00000  Uiso   1.00
N676   N     0.83333   0.71598   0.25000   0.00000  Uiso   1.00
O677   O     0.77321   0.87291   0.25000   0.00000  Uiso   1.00
O678   O     0.89345   0.79375   0.25001   0.00000  Uiso   1.00
O679   O     0.89345   0.87291   0.25001   0.00000  Uiso   1.00
O680   O     0.77321   0.79375   0.25000   0.00000  Uiso   1.00
O681   O     0.83332   0.87293   0.18513   0.00000  Uiso   1.00
O682   O     0.83334   0.79373   0.31487   0.00000  Uiso   1.00
O683   O     0.83334   0.87293   0.31487   0.00000  Uiso   1.00
O684   O     0.83332   0.79373   0.18513   0.00000  Uiso   1.00
C685   C     0.90788   0.80915   0.38632   0.00000  Uiso   1.00
O686   O     0.92083   0.83483   0.35831   0.00000  Uiso   1.00
O687   O     0.92903   0.76778   0.39779   0.00000  Uiso   1.00
H688   H     0.95516   0.76346   0.38150   0.00000  Uiso   1.00
C689   C     0.75879   0.85751   0.11368   0.00000  Uiso   1.00
O690   O     0.74584   0.83183   0.14169   0.00000  Uiso   1.00
O691   O     0.73764   0.89888   0.10222   0.00000  Uiso   1.00
H692   H     0.71150   0.90321   0.11850   0.00000  Uiso   1.00
O693   O     0.76093   0.86016   0.37997   0.00000  Uiso   1.00
H694   H     0.76475   0.86143   0.34782   0.00000  Uiso   1.00
O695   O     0.90574   0.80652   0.12003   0.00000  Uiso   1.00
H696   H     0.90192   0.80525   0.15219   0.00000  Uiso   1.00
C697   C     0.71620   0.84124   0.44959   0.00000  Uiso   1.00
O698   O     0.70847   0.81054   0.42273   0.00000  Uiso   1.00
O699   O     0.68527   0.87279   0.46044   0.00000  Uiso   1.00
H700   H     0.99159   0.86772   0.44265   0.00000  Uiso   1.00
C701   C     0.95046   0.82543   0.05041   0.00000  Uiso   1.00
O702   O     0.95820   0.85613   0.07727   0.00000  Uiso   1.00
O703   O     0.98140   0.79388   0.03956   0.00000  Uiso   1.00
H704   H     0.67508   0.79895   0.05735   0.00000  Uiso   1.00
O705   O     0.71128   0.76948   0.30463   0.00000  Uiso   1.00
H706   H     0.73670   0.78403   0.31722   0.00000  Uiso   1.00
O707   O     0.95539   0.89718   0.19537   0.00000  Uiso   1.00
H708   H     0.92997   0.88264   0.18278   0.00000  Uiso   1.00
O709   O     0.96287   0.76265   0.29425   0.00000  Uiso   1.00
H710   H     0.95103   0.74188   0.27092   0.00000  Uiso   1.00
O711   O     0.70379   0.90402   0.20576   0.00000  Uiso   1.00
H712   H     0.71563   0.92479   0.22909   0.00000  Uiso   1.00
O713   O     0.79092   0.71353   0.18162   0.00000  Uiso   1.00
H714   H     0.77911   0.74245   0.19274   0.00000  Uiso   1.00
O715   O     0.87573   0.95313   0.31839   0.00000  Uiso   1.00
H716   H     0.88759   0.92424   0.30726   0.00000  Uiso   1.00
O717   O     0.87605   0.71112   0.31805   0.00000  Uiso   1.00
H718   H     0.88632   0.74038   0.30702   0.00000  Uiso   1.00
O719   O     0.79061   0.95555   0.18196   0.00000  Uiso   1.00
H720   H     0.78035   0.92628   0.19298   0.00000  Uiso   1.00
C721   C     0.08756   0.16726   0.75091   0.00000  Uiso   1.00
C722   C     0.24577   0.16607   0.74909   0.00000  Uiso   1.00
C723   C     0.09261   0.18000   0.51856   0.00000  Uiso   1.00
C724   C     0.24072   0.15333   0.98144   0.00000  Uiso   1.00
C725   C     0.02335   0.13413   0.77655   0.00000  Uiso   1.00
C726   C     0.30998   0.19920   0.72345   0.00000  Uiso   1.00
C727   C     0.31413   0.13100   0.77197   0.00000  Uiso   1.00
C728   C     0.01921   0.20233   0.72803   0.00000  Uiso   1.00
C729   C     0.29040   0.16463   0.74711   0.00000  Uiso   1.00
C730   C     0.04293   0.16871   0.75290   0.00000  Uiso   1.00
C731   C     0.14616   0.02504   0.71644   0.00000  Uiso   1.00
C732   C     0.18717   0.30829   0.78357   0.00000  Uiso   1.00
C733   C     0.18718   0.02385   0.78353   0.00000  Uiso   1.00
C734   C     0.14615   0.30948   0.71647   0.00000  Uiso   1.00
C735   C     0.16665   0.16672   0.66475   0.00000  Uiso   1.00
C736   C     0.16669   0.16661   0.83525   0.00000  Uiso   1.00
C737   C     0.20307   0.15533   0.90879   0.00000  Uiso   1.00
C738   C     0.13026   0.17801   0.59121   0.00000  Uiso   1.00
C739   C     0.16638   0.16659   0.88344   0.00000  Uiso   1.00
C740   C     0.16695   0.16675   0.61656   0.00000  Uiso   1.00
C741   C     0.12939   0.17708   0.90398   0.00000  Uiso   1.00
C742   C     0.20394   0.15626   0.59602   0.00000  Uiso   1.00
C743   C     0.12856   0.17287   0.95060   0.00000  Uiso   1.00
C744   C     0.20478   0.16046   0.54940   0.00000  Uiso   1.00
C745   C     0.16632   0.16587   0.97648   0.00000  Uiso   1.00
C746   C     0.16702   0.16746   0.52352   0.00000  Uiso   1.00
C747   C     0.20345   0.15734   0.95548   0.00000  Uiso   1.00
C748   C     0.12989   0.17599   0.54452   0.00000  Uiso   1.00
C749   C     0.09121   0.17705   0.97249   0.00000  Uiso   1.00
C750   C     0.24213   0.15628   0.52751   0.00000  Uiso   1.00
Cu751  Cu    0.16667   0.21355   0.75000   0.00000  Uiso   1.00
Cu752  Cu    0.16667   0.11978   0.75000   0.00000  Uiso   1.00
H753   H     0.06359   0.18300   0.53411   0.00000  Uiso   1.00
H754   H     0.26975   0.15033   0.96589   0.00000  Uiso   1.00
N755   N     0.16667   0.28402   0.75000   0.00000  Uiso   1.00
N756   N     0.16667   0.04931   0.75000   0.00000  Uiso   1.00
O757   O     0.10655   0.20625   0.75000   0.00000  Uiso   1.00
O758   O     0.22679   0.12709   0.75001   0.00000  Uiso   1.00
O759   O     0.22679   0.20625   0.75001   0.00000  Uiso   1.00
O760   O     0.10655   0.12709   0.75000   0.00000  Uiso   1.00
O761   O     0.16666   0.20627   0.68513   0.00000  Uiso   1.00
O762   O     0.16668   0.12707   0.81487   0.00000  Uiso   1.00
O763   O     0.16668   0.20627   0.81487   0.00000  Uiso   1.00
O764   O     0.16666   0.12707   0.68513   0.00000  Uiso   1.00
C765   C     0.24121   0.14248   0.88632   0.00000  Uiso   1.00
O766   O     0.25416   0.16816   0.85831   0.00000  Uiso   1.00
O767   O     0.26236   0.10112   0.89779   0.00000  Uiso   1.00
H768   H     0.28850   0.09679   0.88150   0.00000  Uiso   1.00
C769   C     0.09212   0.19085   0.61368   0.00000  Uiso   1.00
O770   O     0.07917   0.16517   0.64169   0.00000  Uiso   1.00
O771   O     0.07097   0.23222   0.60222   0.00000  Uiso   1.00
H772   H     0.04484   0.23654   0.61850   0.00000  Uiso   1.00
O773   O     0.09426   0.19349   0.87997   0.00000  Uiso   1.00
H774   H     0.09808   0.19476   0.84782   0.00000  Uiso   1.00
O775   O     0.23907   0.13985   0.62003   0.00000  Uiso   1.00
H776   H     0.23525   0.13859   0.65219   0.00000  Uiso   1.00
C777   C     0.04954   0.17457   0.94959   0.00000  Uiso   1.00
O778   O     0.04180   0.14387   0.92273   0.00000  Uiso   1.00
O779   O     0.01860   0.20612   0.96044   0.00000  Uiso   1.00
H780   H     0.32492   0.20105   0.94265   0.00000  Uiso   1.00
C781   C     0.28380   0.15876   0.55041   0.00000  Uiso   1.00
O782   O     0.29153   0.18946   0.57727   0.00000  Uiso   1.00
O783   O     0.31473   0.12721   0.53956   0.00000  Uiso   1.00
H784   H     0.00841   0.13228   0.55735   0.00000  Uiso   1.00
O785   O     0.04461   0.10282   0.80463   0.00000  Uiso   1.00
H786   H     0.07003   0.11736   0.81722   0.00000  Uiso   1.00
O787   O     0.28872   0.23052   0.69537   0.00000  Uiso   1.00
H788   H     0.26330   0.21597   0.68278   0.00000  Uiso   1.00
O789   O     0.29621   0.09599   0.79425   0.00000  Uiso   1.00
H790   H     0.28437   0.07521   0.77092   0.00000  Uiso   1.00
O791   O     0.03713   0.23735   0.70576   0.00000  Uiso   1.00
H792   H     0.04896   0.25812   0.72909   0.00000  Uiso   1.00
O793   O     0.12425   0.04687   0.68162   0.00000  Uiso   1.00
H794   H     0.11244   0.07578   0.69274   0.00000  Uiso   1.00
O795   O     0.20906   0.28646   0.81839   0.00000  Uiso   1.00
H796   H     0.22092   0.25757   0.80726   0.00000  Uiso   1.00
O797   O     0.20939   0.04445   0.81805   0.00000  Uiso   1.00
H798   H     0.21966   0.07371   0.80702   0.00000  Uiso   1.00
O799   O     0.12394   0.28888   0.68196   0.00000  Uiso   1.00
H800   H     0.11368   0.25962   0.69298   0.00000  Uiso   1.00
C801   C     0.42090   0.16726   0.75091   0.00000  Uiso   1.00
C802   C     0.57910   0.16607   0.74909   0.00000  Uiso   1.00
C803   C     0.42595   0.18000   0.51856   0.00000  Uiso   1.00
C804   C     0.57405   0.15333   0.98144   0.00000  Uiso   1.00
C805   C     0.35668   0.13413   0.77655   0.00000  Uiso   1.00
C806   C     0.64332   0.19920   0.72345   0.00000  Uiso   1.00
C807   C     0.64746   0.13100   0.77197   0.00000  Uiso   1.00
C808   C     0.35254   0.20233   0.72803   0.00000  Uiso   1.00
C809   C     0.62373   0.16463   0.74711   0.00000  Uiso   1.00
C810   C     0.37627   0.16871   0.75290   0.00000  Uiso   1.00
C811   C     0.47950   0.02504   0.71644   0.00000  Uiso   1.00
C812   C     0.52050   0.30829   0.78357   0.00000  Uiso   1.00
C813   C     0.52052   0.02385   0.78353   0.00000  Uiso   1.00
C814   C     0.47948   0.30948   0.71647   0.00000  Uiso   1.00
C815   C     0.49998   0.16672   0.66475   0.00000  Uiso   1.00
C816   C     0.50002   0.16661   0.83525   0.00000  Uiso   1.00
C817   C     0.53640   0.15533   0.90879   0.00000  Uiso   1.00
C818   C     0.46360   0.17801   0.59121   0.00000  Uiso   1.00
C819   C     0.49971   0.16659   0.88344   0.00000  Uiso   1.00
C820   C     0.50029   0.16675   0.61656   0.00000  Uiso   1.00
C821   C     0.46272   0.17708   0.90398   0.00000  Uiso   1.00
C822   C     0.53728   0.15626   0.59602   0.00000  Uiso   1.00
C823   C     0.46189   0.17287   0.95060   0.00000  Uiso   1.00
C824   C     0.53811   0.16046   0.54940   0.00000  Uiso   1.00
C825   C     0.49965   0.16587   0.97648   0.00000  Uiso   1.00
C826   C     0.50035   0.16746   0.52352   0.00000  Uiso   1.00
C827   C     0.53678   0.15734   0.95548   0.00000  Uiso   1.00
C828   C     0.46322   0.17599   0.54452   0.00000  Uiso   1.00
C829   C     0.42454   0.17705   0.97249   0.00000  Uiso   1.00
C830   C     0.57546   0.15628   0.52751   0.00000  Uiso   1.00
Cu831  Cu    0.50000   0.21355   0.75000   0.00000  Uiso   1.00
Cu832  Cu    0.50000   0.11978   0.75000   0.00000  Uiso   1.00
H833   H     0.39692   0.18300   0.53411   0.00000  Uiso   1.00
H834   H     0.60308   0.15033   0.96589   0.00000  Uiso   1.00
N835   N     0.50000   0.28402   0.75000   0.00000  Uiso   1.00
N836   N     0.50000   0.04931   0.75000   0.00000  Uiso   1.00
O837   O     0.43988   0.20625   0.75000   0.00000  Uiso   1.00
O838   O     0.56012   0.12709   0.75001   0.00000  Uiso   1.00
O839   O     0.56012   0.20625   0.75001   0.00000  Uiso   1.00
O840   O     0.43988   0.12709   0.75000   0.00000  Uiso   1.00
O841   O     0.49999   0.20627   0.68513   0.00000  Uiso   1.00
O842   O     0.50001   0.12707   0.81487   0.00000  Uiso   1.00
O843   O     0.50001   0.20627   0.81487   0.00000  Uiso   1.00
O844   O     0.49999   0.12707   0.68513   0.00000  Uiso   1.00
C845   C     0.57455   0.14248   0.88632   0.00000  Uiso   1.00
O846   O     0.58749   0.16816   0.85831   0.00000  Uiso   1.00
O847   O     0.59570   0.10112   0.89779   0.00000  Uiso   1.00
H848   H     0.62183   0.09679   0.88150   0.00000  Uiso   1.00
C849   C     0.42545   0.19085   0.61368   0.00000  Uiso   1.00
O850   O     0.41251   0.16517   0.64169   0.00000  Uiso   1.00
O851   O     0.40430   0.23222   0.60222   0.00000  Uiso   1.00
H852   H     0.37817   0.23654   0.61850   0.00000  Uiso   1.00
O853   O     0.42760   0.19349   0.87997   0.00000  Uiso   1.00
H854   H     0.43142   0.19476   0.84782   0.00000  Uiso   1.00
O855   O     0.57241   0.13985   0.62003   0.00000  Uiso   1.00
H856   H     0.56859   0.13859   0.65219   0.00000  Uiso   1.00
C857   C     0.38287   0.17457   0.94959   0.00000  Uiso   1.00
O858   O     0.37514   0.14387   0.92273   0.00000  Uiso   1.00
O859   O     0.35193   0.20612   0.96044   0.00000  Uiso   1.00
H860   H     0.65825   0.20105   0.94265   0.00000  Uiso   1.00
C861   C     0.61713   0.15876   0.55041   0.00000  Uiso   1.00
O862   O     0.62486   0.18946   0.57727   0.00000  Uiso   1.00
O863   O     0.64807   0.12721   0.53956   0.00000  Uiso   1.00
H864   H     0.34175   0.13228   0.55735   0.00000  Uiso   1.00
O865   O     0.37795   0.10282   0.80463   0.00000  Uiso   1.00
H866   H     0.40337   0.11736   0.81722   0.00000  Uiso   1.00
O867   O     0.62205   0.23052   0.69537   0.00000  Uiso   1.00
H868   H     0.59663   0.21597   0.68278   0.00000  Uiso   1.00
O869   O     0.62954   0.09599   0.79425   0.00000  Uiso   1.00
H870   H     0.61770   0.07521   0.77092   0.00000  Uiso   1.00
O871   O     0.37046   0.23735   0.70576   0.00000  Uiso   1.00
H872   H     0.38230   0.25812   0.72909   0.00000  Uiso   1.00
O873   O     0.45758   0.04687   0.68162   0.00000  Uiso   1.00
H874   H     0.44577   0.07578   0.69274   0.00000  Uiso   1.00
O875   O     0.54240   0.28646   0.81839   0.00000  Uiso   1.00
H876   H     0.55425   0.25757   0.80726   0.00000  Uiso   1.00
O877   O     0.54272   0.04445   0.81805   0.00000  Uiso   1.00
H878   H     0.55299   0.07371   0.80702   0.00000  Uiso   1.00
O879   O     0.45727   0.28888   0.68196   0.00000  Uiso   1.00
H880   H     0.44701   0.25962   0.69298   0.00000  Uiso   1.00
C881   C     0.75423   0.16726   0.75091   0.00000  Uiso   1.00
C882   C     0.91244   0.16607   0.74909   0.00000  Uiso   1.00
C883   C     0.75928   0.18000   0.51856   0.00000  Uiso   1.00
C884   C     0.90739   0.15333   0.98144   0.00000  Uiso   1.00
C885   C     0.69002   0.13413   0.77655   0.00000  Uiso   1.00
C886   C     0.97665   0.19920   0.72345   0.00000  Uiso   1.00
C887   C     0.98079   0.13100   0.77197   0.00000  Uiso   1.00
C888   C     0.68587   0.20233   0.72803   0.00000  Uiso   1.00
C889   C     0.95707   0.16463   0.74711   0.00000  Uiso   1.00
C890   C     0.70960   0.16871   0.75290   0.00000  Uiso   1.00
C891   C     0.81283   0.02504   0.71644   0.00000  Uiso   1.00
C892   C     0.85383   0.30829   0.78357   0.00000  Uiso   1.00
C893   C     0.85385   0.02385   0.78353   0.00000  Uiso   1.00
C894   C     0.81281   0.30948   0.71647   0.00000  Uiso   1.00
C895   C     0.83331   0.16672   0.66475   0.00000  Uiso   1.00
C896   C     0.83335   0.16661   0.83525   0.00000  Uiso   1.00
C897   C     0.86974   0.15533   0.90879   0.00000  Uiso   1.00
C898   C     0.79693   0.17801   0.59121   0.00000  Uiso   1.00
C899   C     0.83305   0.16659   0.88344   0.00000  Uiso   1.00
C900   C     0.83362   0.16675   0.61656   0.00000  Uiso   1.00
C901   C     0.79606   0.17708   0.90398   0.00000  Uiso   1.00
C902   C     0.87061   0.15626   0.59602   0.00000  Uiso   1.00
C903   C     0.79522   0.17287   0.95060   0.00000  Uiso   1.00
C904   C     0.87144   0.16046   0.54940   0.00000  Uiso   1.00
C905   C     0.83298   0.16587   0.97648   0.00000  Uiso   1.00
C906   C     0.83368   0.16746   0.52352   0.00000  Uiso   1.00
C907   C     0.87011   0.15734   0.95548   0.00000  Uiso   1.00
C908   C     0.79655   0.17599   0.54452   0.00000  Uiso   1.00
C909   C     0.75787   0.17705   0.97249   0.00000  Uiso   1.00
C910   C     0.90879   0.15628   0.52751   0.00000  Uiso   1.00
Cu911  Cu    0.83333   0.21355   0.75000   0.00000  Uiso   1.00
Cu912  Cu    0.83333   0.11978   0.75000   0.00000  Uiso   1.00
H913   H     0.73025   0.18300   0.53411   0.00000  Uiso   1.00
H914   H     0.93641   0.15033   0.96589   0.00000  Uiso   1.00
N915   N     0.83333   0.28402   0.75000   0.00000  Uiso   1.00
N916   N     0.83333   0.04931   0.75000   0.00000  Uiso   1.00
O917   O     0.77321   0.20625   0.75000   0.00000  Uiso   1.00
O918   O     0.89345   0.12709   0.75001   0.00000  Uiso   1.00
O919   O     0.89345   0.20625   0.75001   0.00000  Uiso   1.00
O920   O     0.77321   0.12709   0.75000   0.00000  Uiso   1.00
O921   O     0.83332   0.20627   0.68513   0.00000  Uiso   1.00
O922   O     0.83334   0.12707   0.81487   0.00000  Uiso   1.00
O923   O     0.83334   0.20627   0.81487   0.00000  Uiso   1.00
O924   O     0.83332   0.12707   0.68513   0.00000  Uiso   1.00
C925   C     0.90788   0.14248   0.88632   0.00000  Uiso   1.00
O926   O     0.92083   0.16816   0.85831   0.00000  Uiso   1.00
O927   O     0.92903   0.10112   0.89779   0.00000  Uiso   1.00
H928   H     0.95516   0.09679   0.88150   0.00000  Uiso   1.00
C929   C     0.75879   0.19085   0.61368   0.00000  Uiso   1.00
O930   O     0.74584   0.16517   0.64169   0.00000  Uiso   1.00
O931   O     0.73764   0.23222   0.60222   0.00000  Uiso   1.00
H932   H     0.71150   0.23654   0.61850   0.00000  Uiso   1.00
O933   O     0.76093   0.19349   0.87997   0.00000  Uiso   1.00
H934   H     0.76475   0.19476   0.84782   0.00000  Uiso   1.00
O935   O     0.90574   0.13985   0.62003   0.00000  Uiso   1.00
H936   H     0.90192   0.13859   0.65219   0.00000  Uiso   1.00
C937   C     0.71620   0.17457   0.94959   0.00000  Uiso   1.00
O938   O     0.70847   0.14387   0.92273   0.00000  Uiso   1.00
O939   O     0.68527   0.20612   0.96044   0.00000  Uiso   1.00
H940   H     0.99159   0.20105   0.94265   0.00000  Uiso   1.00
C941   C     0.95046   0.15876   0.55041   0.00000  Uiso   1.00
O942   O     0.95820   0.18946   0.57727   0.00000  Uiso   1.00
O943   O     0.98140   0.12721   0.53956   0.00000  Uiso   1.00
H944   H     0.67508   0.13228   0.55735   0.00000  Uiso   1.00
O945   O     0.71128   0.10282   0.80463   0.00000  Uiso   1.00
H946   H     0.73670   0.11736   0.81722   0.00000  Uiso   1.00
O947   O     0.95539   0.23052   0.69537   0.00000  Uiso   1.00
H948   H     0.92997   0.21597   0.68278   0.00000  Uiso   1.00
O949   O     0.96287   0.09599   0.79425   0.00000  Uiso   1.00
H950   H     0.95103   0.07521   0.77092   0.00000  Uiso   1.00
O951   O     0.70379   0.23735   0.70576   0.00000  Uiso   1.00
H952   H     0.71563   0.25812   0.72909   0.00000  Uiso   1.00
O953   O     0.79092   0.04687   0.68162   0.00000  Uiso   1.00
H954   H     0.77911   0.07578   0.69274   0.00000  Uiso   1.00
O955   O     0.87573   0.28646   0.81839   0.00000  Uiso   1.00
H956   H     0.88759   0.25757   0.80726   0.00000  Uiso   1.00
O957   O     0.87605   0.04445   0.81805   0.00000  Uiso   1.00
H958   H     0.88632   0.07371   0.80702   0.00000  Uiso   1.00
O959   O     0.79061   0.28888   0.68196   0.00000  Uiso   1.00
H960   H     0.78035   0.25962   0.69298   0.00000  Uiso   1.00
C961   C     0.08756   0.50060   0.75091   0.00000  Uiso   1.00
C962   C     0.24577   0.49940   0.74909   0.00000  Uiso   1.00
C963   C     0.09261   0.51333   0.51856   0.00000  Uiso   1.00
C964   C     0.24072   0.48667   0.98144   0.00000  Uiso   1.00
C965   C     0.02335   0.46747   0.77655   0.00000  Uiso   1.00
C966   C     0.30998   0.53253   0.72345   0.00000  Uiso   1.00
C967   C     0.31413   0.46434   0.77197   0.00000  Uiso   1.00
C968   C     0.01921   0.53566   0.72803   0.00000  Uiso   1.00
C969   C     0.29040   0.49796   0.74711   0.00000  Uiso   1.00
C970   C     0.04293   0.50204   0.75290   0.00000  Uiso   1.00
C971   C     0.14616   0.35838   0.71644   0.00000  Uiso   1.00
C972   C     0.18717   0.64162   0.78357   0.00000  Uiso   1.00
C973   C     0.18718   0.35718   0.78353   0.00000  Uiso   1.00
C974   C     0.14615   0.64282   0.71647   0.00000  Uiso   1.00
C975   C     0.16665   0.50006   0.66475   0.00000  Uiso   1.00
C976   C     0.16669   0.49994   0.83525   0.00000  Uiso   1.00
C977   C     0.20307   0.48866   0.90879   0.00000  Uiso   1.00
C978   C     0.13026   0.51134   0.59121   0.00000  Uiso   1.00
C979   C     0.16638   0.49992   0.88344   0.00000  Uiso   1.00
C980   C     0.16695   0.50008   0.61656   0.00000  Uiso   1.00
C981   C     0.12939   0.51041   0.90398   0.00000  Uiso   1.00
C982   C     0.20394   0.48959   0.59602   0.00000  Uiso   1.00
C983   C     0.12856   0.50621   0.95060   0.00000  Uiso   1.00
C984   C     0.20478   0.49379   0.54940   0.00000  Uiso   1.00
C985   C     0.16632   0.49920   0.97648   0.00000  Uiso   1.00
C986   C     0.16702   0.50080   0.52352   0.00000  Uiso   1.00
C987   C     0.20345   0.49068   0.95548   0.00000  Uiso   1.00
C988   C     0.12989   0.50932   0.54452   0.00000  Uiso   1.00
C989   C     0.09121   0.51039   0.97249   0.00000  Uiso   1.00
C990   C     0.24213   0.48961   0.52751   0.00000  Uiso   1.00
Cu991  Cu    0.16667   0.54689   0.75000   0.00000  Uiso   1.00
Cu992  Cu    0.16667   0.45311   0.75000   0.00000  Uiso   1.00
H993   H     0.06359   0.51633   0.53411   0.00000  Uiso   1.00
H994   H     0.26975   0.48367   0.96589   0.00000  Uiso   1.00
N995   N     0.16667   0.61736   0.75000   0.00000  Uiso   1.00
N996   N     0.16667   0.38264   0.75000   0.00000  Uiso   1.00
O997   O     0.10655   0.53958   0.75000   0.00000  Uiso   1.00
O998   O     0.22679   0.46042   0.75001   0.00000  Uiso   1.00
O999   O     0.22679   0.53958   0.75001   0.00000  Uiso   1.00
O1000  O     0.10655   0.46042   0.75000   0.00000  Uiso   1.00
O1001  O     0.16666   0.53960   0.68513   0.00000  Uiso   1.00
O1002  O     0.16668   0.46040   0.81487   0.00000  Uiso   1.00
O1003  O     0.16668   0.53960   0.81487   0.00000  Uiso   1.00
O1004  O     0.16666   0.46040   0.68513   0.00000  Uiso   1.00
C1005  C     0.24121   0.47582   0.88632   0.00000  Uiso   1.00
O1006  O     0.25416   0.50150   0.85831   0.00000  Uiso   1.00
O1007  O     0.26236   0.43445   0.89779   0.00000  Uiso   1.00
H1008  H     0.28850   0.43012   0.88150   0.00000  Uiso   1.00
C1009  C     0.09212   0.52418   0.61368   0.00000  Uiso   1.00
O1010  O     0.07917   0.49850   0.64169   0.00000  Uiso   1.00
O1011  O     0.07097   0.56555   0.60222   0.00000  Uiso   1.00
H1012  H     0.04484   0.56988   0.61850   0.00000  Uiso   1.00
O1013  O     0.09426   0.52682   0.87997   0.00000  Uiso   1.00
H1014  H     0.09808   0.52810   0.84782   0.00000  Uiso   1.00
O1015  O     0.23907   0.47318   0.62003   0.00000  Uiso   1.00
H1016  H     0.23525   0.47192   0.65219   0.00000  Uiso   1.00
C1017  C     0.04954   0.50791   0.94959   0.00000  Uiso   1.00
O1018  O     0.04180   0.47720   0.92273   0.00000  Uiso   1.00
O1019  O     0.01860   0.53946   0.96044   0.00000  Uiso   1.00
H1020  H     0.32492   0.53439   0.94265   0.00000  Uiso   1.00
C1021  C     0.28380   0.49210   0.55041   0.00000  Uiso   1.00
O1022  O     0.29153   0.52280   0.57727   0.00000  Uiso   1.00
O1023  O     0.31473   0.46055   0.53956   0.00000  Uiso   1.00
H1024  H     0.00841   0.46562   0.55735   0.00000  Uiso   1.00
O1025  O     0.04461   0.43615   0.80463   0.00000  Uiso   1.00
H1026  H     0.07003   0.45069   0.81722   0.00000  Uiso   1.00
O1027  O     0.28872   0.56385   0.69537   0.00000  Uiso   1.00
H1028  H     0.26330   0.54931   0.68278   0.00000  Uiso   1.00
O1029  O     0.29621   0.42932   0.79425   0.00000  Uiso   1.00
H1030  H     0.28437   0.40855   0.77092   0.00000  Uiso   1.00
O1031  O     0.03713   0.57068   0.70576   0.00000  Uiso   1.00
H1032  H     0.04896   0.59145   0.72909   0.00000  Uiso   1.00
O1033  O     0.12425   0.38020   0.68162   0.00000  Uiso   1.00
H1034  H     0.11244   0.40912   0.69274   0.00000  Uiso   1.00
O1035  O     0.20906   0.61979   0.81839   0.00000  Uiso   1.00
H1036  H     0.22092   0.59091   0.80726   0.00000  Uiso   1.00
O1037  O     0.20939   0.37779   0.81805   0.00000  Uiso   1.00
H1038  H     0.21966   0.40704   0.80702   0.00000  Uiso   1.00
O1039  O     0.12394   0.62221   0.68196   0.00000  Uiso   1.00
H1040  H     0.11368   0.59295   0.69298   0.00000  Uiso   1.00
C1041  C     0.42090   0.50060   0.75091   0.00000  Uiso   1.00
C1042  C     0.57910   0.49940   0.74909   0.00000  Uiso   1.00
C1043  C     0.42595   0.51333   0.51856   0.00000  Uiso   1.00
C1044  C     0.57405   0.48667   0.98144   0.00000  Uiso   1.00
C1045  C     0.35668   0.46747   0.77655   0.00000  Uiso   1.00
C1046  C     0.64332   0.53253   0.72345   0.00000  Uiso   1.00
C1047  C     0.64746   0.46434   0.77197   0.00000  Uiso   1.00
C1048  C     0.35254   0.53566   0.72803   0.00000  Uiso   1.00
C1049  C     0.62373   0.49796   0.74711   0.00000  Uiso   1.00
C1050  C     0.37627   0.50204   0.75290   0.00000  Uiso   1.00
C1051  C     0.47950   0.35838   0.71644   0.00000  Uiso   1.00
C1052  C     0.52050   0.64162   0.78357   0.00000  Uiso   1.00
C1053  C     0.52052   0.35718   0.78353   0.00000  Uiso   1.00
C1054  C     0.47948   0.64282   0.71647   0.00000  Uiso   1.00
C1055  C     0.49998   0.50006   0.66475   0.00000  Uiso   1.00
C1056  C     0.50002   0.49994   0.83525   0.00000  Uiso   1.00
C1057  C     0.53640   0.48866   0.90879   0.00000  Uiso   1.00
C1058  C     0.46360   0.51134   0.59121   0.00000  Uiso   1.00
C1059  C     0.49971   0.49992   0.88344   0.00000  Uiso   1.00
C1060  C     0.50029   0.50008   0.61656   0.00000  Uiso   1.00
C1061  C     0.46272   0.51041   0.90398   0.00000  Uiso   1.00
C1062  C     0.53728   0.48959   0.59602   0.00000  Uiso   1.00
C1063  C     0.46189   0.50621   0.95060   0.00000  Uiso   1.00
C1064  C     0.53811   0.49379   0.54940   0.00000  Uiso   1.00
C1065  C     0.49965   0.49920   0.97648   0.00000  Uiso   1.00
C1066  C     0.50035   0.50080   0.52352   0.00000  Uiso   1.00
C1067  C     0.53678   0.49068   0.95548   0.00000  Uiso   1.00
C1068  C     0.46322   0.50932   0.54452   0.00000  Uiso   1.00
C1069  C     0.42454   0.51039   0.97249   0.00000  Uiso   1.00
C1070  C     0.57546   0.48961   0.52751   0.00000  Uiso   1.00
Cu1071 Cu    0.50000   0.54689   0.75000   0.00000  Uiso   1.00
Cu1072 Cu    0.50000   0.45311   0.75000   0.00000  Uiso   1.00
H1073  H     0.39692   0.51633   0.53411   0.00000  Uiso   1.00
H1074  H     0.60308   0.48367   0.96589   0.00000  Uiso   1.00
N1075  N     0.50000   0.61736   0.75000   0.00000  Uiso   1.00
N1076  N     0.50000   0.38264   0.75000   0.00000  Uiso   1.00
O1077  O     0.43988   0.53958   0.75000   0.00000  Uiso   1.00
O1078  O     0.56012   0.46042   0.75001   0.00000  Uiso   1.00
O1079  O     0.56012   0.53958   0.75001   0.00000  Uiso   1.00
O1080  O     0.43988   0.46042   0.75000   0.00000  Uiso   1.00
O1081  O     0.49999   0.53960   0.68513   0.00000  Uiso   1.00
O1082  O     0.50001   0.46040   0.81487   0.00000  Uiso   1.00
O1083  O     0.50001   0.53960   0.81487   0.00000  Uiso   1.00
O1084  O     0.49999   0.46040   0.68513   0.00000  Uiso   1.00
C1085  C     0.57455   0.47582   0.88632   0.00000  Uiso   1.00
O1086  O     0.58749   0.50150   0.85831   0.00000  Uiso   1.00
O1087  O     0.59570   0.43445   0.89779   0.00000  Uiso   1.00
H1088  H     0.62183   0.43012   0.88150   0.00000  Uiso   1.00
C1089  C     0.42545   0.52418   0.61368   0.00000  Uiso   1.00
O1090  O     0.41251   0.49850   0.64169   0.00000  Uiso   1.00
O1091  O     0.40430   0.56555   0.60222   0.00000  Uiso   1.00
H1092  H     0.37817   0.56988   0.61850   0.00000  Uiso   1.00
O1093  O     0.42760   0.52682   0.87997   0.00000  Uiso   1.00
H1094  H     0.43142   0.52810   0.84782   0.00000  Uiso   1.00
O1095  O     0.57241   0.47318   0.62003   0.00000  Uiso   1.00
H1096  H     0.56859   0.47192   0.65219   0.00000  Uiso   1.00
C1097  C     0.38287   0.50791   0.94959   0.00000  Uiso   1.00
O1098  O     0.37514   0.47720   0.92273   0.00000  Uiso   1.00
O1099  O     0.35193   0.53946   0.96044   0.00000  Uiso   1.00
H1100  H     0.65825   0.53439   0.94265   0.00000  Uiso   1.00
C1101  C     0.61713   0.49210   0.55041   0.00000  Uiso   1.00
O1102  O     0.62486   0.52280   0.57727   0.00000  Uiso   1.00
O1103  O     0.64807   0.46055   0.53956   0.00000  Uiso   1.00
H1104  H     0.34175   0.46562   0.55735   0.00000  Uiso   1.00
O1105  O     0.37795   0.43615   0.80463   0.00000  Uiso   1.00
H1106  H     0.40337   0.45069   0.81722   0.00000  Uiso   1.00
O1107  O     0.62205   0.56385   0.69537   0.00000  Uiso   1.00
H1108  H     0.59663   0.54931   0.68278   0.00000  Uiso   1.00
O1109  O     0.62954   0.42932   0.79425   0.00000  Uiso   1.00
H1110  H     0.61770   0.40855   0.77092   0.00000  Uiso   1.00
O1111  O     0.37046   0.57068   0.70576   0.00000  Uiso   1.00
H1112  H     0.38230   0.59145   0.72909   0.00000  Uiso   1.00
O1113  O     0.45758   0.38020   0.68162   0.00000  Uiso   1.00
H1114  H     0.44577   0.40912   0.69274   0.00000  Uiso   1.00
O1115  O     0.54240   0.61979   0.81839   0.00000  Uiso   1.00
H1116  H     0.55425   0.59091   0.80726   0.00000  Uiso   1.00
O1117  O     0.54272   0.37779   0.81805   0.00000  Uiso   1.00
H1118  H     0.55299   0.40704   0.80702   0.00000  Uiso   1.00
O1119  O     0.45727   0.62221   0.68196   0.00000  Uiso   1.00
H1120  H     0.44701   0.59295   0.69298   0.00000  Uiso   1.00
C1121  C     0.75423   0.50060   0.75091   0.00000  Uiso   1.00
C1122  C     0.91244   0.49940   0.74909   0.00000  Uiso   1.00
C1123  C     0.75928   0.51333   0.51856   0.00000  Uiso   1.00
C1124  C     0.90739   0.48667   0.98144   0.00000  Uiso   1.00
C1125  C     0.69002   0.46747   0.77655   0.00000  Uiso   1.00
C1126  C     0.97665   0.53253   0.72345   0.00000  Uiso   1.00
C1127  C     0.98079   0.46434   0.77197   0.00000  Uiso   1.00
C1128  C     0.68587   0.53566   0.72803   0.00000  Uiso   1.00
C1129  C     0.95707   0.49796   0.74711   0.00000  Uiso   1.00
C1130  C     0.70960   0.50204   0.75290   0.00000  Uiso   1.00
C1131  C     0.81283   0.35838   0.71644   0.00000  Uiso   1.00
C1132  C     0.85383   0.64162   0.78357   0.00000  Uiso   1.00
C1133  C     0.85385   0.35718   0.78353   0.00000  Uiso   1.00
C1134  C     0.81281   0.64282   0.71647   0.00000  Uiso   1.00
C1135  C     0.83331   0.50006   0.66475   0.00000  Uiso   1.00
C1136  C     0.83335   0.49994   0.83525   0.00000  Uiso   1.00
C1137  C     0.86974   0.48866   0.90879   0.00000  Uiso   1.00
C1138  C     0.79693   0.51134   0.59121   0.00000  Uiso   1.00
C1139  C     0.83305   0.49992   0.88344   0.00000  Uiso   1.00
C1140  C     0.83362   0.50008   0.61656   0.00000  Uiso   1.00
C1141  C     0.79606   0.51041   0.90398   0.00000  Uiso   1.00
C1142  C     0.87061   0.48959   0.59602   0.00000  Uiso   1.00
C1143  C     0.79522   0.50621   0.95060   0.00000  Uiso   1.00
C1144  C     0.87144   0.49379   0.54940   0.00000  Uiso   1.00
C1145  C     0.83298   0.49920   0.97648   0.00000  Uiso   1.00
C1146  C     0.83368   0.50080   0.52352   0.00000  Uiso   1.00
C1147  C     0.87011   0.49068   0.95548   0.00000  Uiso   1.00
C1148  C     0.79655   0.50932   0.54452   0.00000  Uiso   1.00
C1149  C     0.75787   0.51039   0.97249   0.00000  Uiso   1.00
C1150  C     0.90879   0.48961   0.52751   0.00000  Uiso   1.00
Cu1151 Cu    0.83333   0.54689   0.75000   0.00000  Uiso   1.00
Cu1152 Cu    0.83333   0.45311   0.75000   0.00000  Uiso   1.00
H1153  H     0.73025   0.51633   0.53411   0.00000  Uiso   1.00
H1154  H     0.93641   0.48367   0.96589   0.00000  Uiso   1.00
N1155  N     0.83333   0.61736   0.75000   0.00000  Uiso   1.00
N1156  N     0.83333   0.38264   0.75000   0.00000  Uiso   1.00
O1157  O     0.77321   0.53958   0.75000   0.00000  Uiso   1.00
O1158  O     0.89345   0.46042   0.75001   0.00000  Uiso   1.00
O1159  O     0.89345   0.53958   0.75001   0.00000  Uiso   1.00
O1160  O     0.77321   0.46042   0.75000   0.00000  Uiso   1.00
O1161  O     0.83332   0.53960   0.68513   0.00000  Uiso   1.00
O1162  O     0.83334   0.46040   0.81487   0.00000  Uiso   1.00
O1163  O     0.83334   0.53960   0.81487   0.00000  Uiso   1.00
O1164  O     0.83332   0.46040   0.68513   0.00000  Uiso   1.00
C1165  C     0.90788   0.47582   0.88632   0.00000  Uiso   1.00
O1166  O     0.92083   0.50150   0.85831   0.00000  Uiso   1.00
O1167  O     0.92903   0.43445   0.89779   0.00000  Uiso   1.00
H1168  H     0.95516   0.43012   0.88150   0.00000  Uiso   1.00
C1169  C     0.75879   0.52418   0.61368   0.00000  Uiso   1.00
O1170  O     0.74584   0.49850   0.64169   0.00000  Uiso   1.00
O1171  O     0.73764   0.56555   0.60222   0.00000  Uiso   1.00
H1172  H     0.71150   0.56988   0.61850   0.00000  Uiso   1.00
O1173  O     0.76093   0.52682   0.87997   0.00000  Uiso   1.00
H1174  H     0.76475   0.52810   0.84782   0.00000  Uiso   1.00
O1175  O     0.90574   0.47318   0.62003   0.00000  Uiso   1.00
H1176  H     0.90192   0.47192   0.65219   0.00000  Uiso   1.00
C1177  C     0.71620   0.50791   0.94959   0.00000  Uiso   1.00
O1178  O     0.70847   0.47720   0.92273   0.00000  Uiso   1.00
O1179  O     0.68527   0.53946   0.96044   0.00000  Uiso   1.00
H1180  H     0.99159   0.53439   0.94265   0.00000  Uiso   1.00
C1181  C     0.95046   0.49210   0.55041   0.00000  Uiso   1.00
O1182  O     0.95820   0.52280   0.57727   0.00000  Uiso   1.00
O1183  O     0.98140   0.46055   0.53956   0.00000  Uiso   1.00
H1184  H     0.67508   0.46562   0.55735   0.00000  Uiso   1.00
O1185  O     0.71128   0.43615   0.80463   0.00000  Uiso   1.00
H1186  H     0.73670   0.45069   0.81722   0.00000  Uiso   1.00
O1187  O     0.95539   0.56385   0.69537   0.00000  Uiso   1.00
H1188  H     0.92997   0.54931   0.68278   0.00000  Uiso   1.00
O1189  O     0.96287   0.42932   0.79425   0.00000  Uiso   1.00
H1190  H     0.95103   0.40855   0.77092   0.00000  Uiso   1.00
O1191  O     0.70379   0.57068   0.70576   0.00000  Uiso   1.00
H1192  H     0.71563   0.59145   0.72909   0.00000  Uiso   1.00
O1193  O     0.79092   0.38020   0.68162   0.00000  Uiso   1.00
H1194  H     0.77911   0.40912   0.69274   0.00000  Uiso   1.00
O1195  O     0.87573   0.61979   0.81839   0.00000  Uiso   1.00
H1196  H     0.88759   0.59091   0.80726   0.00000  Uiso   1.00
O1197  O     0.87605   0.37779   0.81805   0.00000  Uiso   1.00
H1198  H     0.88632   0.40704   0.80702   0.00000  Uiso   1.00
O1199  O     0.79061   0.62221   0.68196   0.00000  Uiso   1.00
H1200  H     0.78035   0.59295   0.69298   0.00000  Uiso   1.00
C1201  C     0.08756   0.83393   0.75091   0.00000  Uiso   1.00
C1202  C     0.24577   0.83274   0.74909   0.00000  Uiso   1.00
C1203  C     0.09261   0.84667   0.51856   0.00000  Uiso   1.00
C1204  C     0.24072   0.82000   0.98144   0.00000  Uiso   1.00
C1205  C     0.02335   0.80080   0.77655   0.00000  Uiso   1.00
C1206  C     0.30998   0.86587   0.72345   0.00000  Uiso   1.00
C1207  C     0.31413   0.79767   0.77197   0.00000  Uiso   1.00
C1208  C     0.01921   0.86900   0.72803   0.00000  Uiso   1.00
C1209  C     0.29040   0.83129   0.74711   0.00000  Uiso   1.00
C1210  C     0.04293   0.83538   0.75290   0.00000  Uiso   1.00
C1211  C     0.14616   0.69171   0.71644   0.00000  Uiso   1.00
C1212  C     0.18717   0.97496   0.78357   0.00000  Uiso   1.00
C1213  C     0.18718   0.69052   0.78353   0.00000  Uiso   1.00
C1214  C     0.14615   0.97615   0.71647   0.00000  Uiso   1.00
C1215  C     0.16665   0.83339   0.66475   0.00000  Uiso   1.00
C1216  C     0.16669   0.83328   0.83525   0.00000  Uiso   1.00
C1217  C     0.20307   0.82199   0.90879   0.00000  Uiso   1.00
C1218  C     0.13026   0.84467   0.59121   0.00000  Uiso   1.00
C1219  C     0.16638   0.83325   0.88344   0.00000  Uiso   1.00
C1220  C     0.16695   0.83341   0.61656   0.00000  Uiso   1.00
C1221  C     0.12939   0.84375   0.90398   0.00000  Uiso   1.00
C1222  C     0.20394   0.82292   0.59602   0.00000  Uiso   1.00
C1223  C     0.12856   0.83954   0.95060   0.00000  Uiso   1.00
C1224  C     0.20478   0.82713   0.54940   0.00000  Uiso   1.00
C1225  C     0.16632   0.83254   0.97648   0.00000  Uiso   1.00
C1226  C     0.16702   0.83413   0.52352   0.00000  Uiso   1.00
C1227  C     0.20345   0.82401   0.95548   0.00000  Uiso   1.00
C1228  C     0.12989   0.84266   0.54452   0.00000  Uiso   1.00
C1229  C     0.09121   0.84372   0.97249   0.00000  Uiso   1.00
C1230  C     0.24213   0.82295   0.52751   0.00000  Uiso   1.00
Cu1231 Cu    0.16667   0.88022   0.75000   0.00000  Uiso   1.00
Cu1232 Cu    0.16667   0.78645   0.75000   0.00000  Uiso   1.00
H1233  H     0.06359   0.84966   0.53411   0.00000  Uiso   1.00
H1234  H     0.26975   0.81700   0.96589   0.00000  Uiso   1.00
N1235  N     0.16667   0.95069   0.75000   0.00000  Uiso   1.00
N1236  N     0.16667   0.71598   0.75000   0.00000  Uiso   1.00
O1237  O     0.10655   0.87291   0.75000   0.00000  Uiso   1.00
O1238  O     0.22679   0.79375   0.75001   0.00000  Uiso   1.00
O1239  O     0.22679   0.87291   0.75001   0.00000  Uiso   1.00
O1240  O     0.10655   0.79375   0.75000   0.00000  Uiso   1.00
O1241  O     0.16666   0.87293   0.68513   0.00000  Uiso   1.00
O1242  O     0.16668   0.79373   0.81487   0.00000  Uiso   1.00
O1243  O     0.16668   0.87293   0.81487   0.00000  Uiso   1.00
O1244  O     0.16666   0.79373   0.68513   0.00000  Uiso   1.00
C1245  C     0.24121   0.80915   0.88632   0.00000  Uiso   1.00
O1246  O     0.25416   0.83483   0.85831   0.00000  Uiso   1.00
O1247  O     0.26236   0.76778   0.89779   0.00000  Uiso   1.00
H1248  H     0.28850   0.76346   0.88150   0.00000  Uiso   1.00
C1249  C     0.09212   0.85751   0.61368   0.00000  Uiso   1.00
O1250  O     0.07917   0.83183   0.64169   0.00000  Uiso   1.00
O1251  O     0.07097   0.89888   0.60222   0.00000  Uiso   1.00
H1252  H     0.04484   0.90321   0.61850   0.00000  Uiso   1.00
O1253  O     0.09426   0.86016   0.87997   0.00000  Uiso   1.00
H1254  H     0.09808   0.86143   0.84782   0.00000  Uiso   1.00
O1255  O     0.23907   0.80652   0.62003   0.00000  Uiso   1.00
H1256  H     0.23525   0.80525   0.65219   0.00000  Uiso   1.00
C1257  C     0.04954   0.84124   0.94959   0.00000  Uiso   1.00
O1258  O     0.04180   0.81054   0.92273   0.00000  Uiso   1.00
O1259  O     0.01860   0.87279   0.96044   0.00000  Uiso   1.00
H1260  H     0.32492   0.86772   0.94265   0.00000  Uiso   1.00
C1261  C     0.28380   0.82543   0.55041   0.00000  Uiso   1.00
O1262  O     0.29153   0.85613   0.57727   0.00000  Uiso   1.00
O1263  O     0.31473   0.79388   0.53956   0.00000  Uiso   1.00
H1264  H     0.00841   0.79895   0.55735   0.00000  Uiso   1.00
O1265  O     0.04461   0.76948   0.80463   0.00000  Uiso   1.00
H1266  H     0.07003   0.78403   0.81722   0.00000  Uiso   1.00
O1267  O     0.28872   0.89718   0.69537   0.00000  Uiso   1.00
H1268  H     0.26330   0.88264   0.68278   0.00000  Uiso   1.00
O1269  O     0.29621   0.76265   0.79425   0.00000  Uiso   1.00
H1270  H     0.28437   0.74188   0.77092   0.00000  Uiso   1.00
O1271  O     0.03713   0.90402   0.70576   0.00000  Uiso   1.00
H1272  H     0.04896   0.92479   0.72909   0.00000  Uiso   1.00
O1273  O     0.12425   0.71353   0.68162   0.00000  Uiso   1.00
H1274  H     0.11244   0.74245   0.69274   0.00000  Uiso   1.00
O1275  O     0.20906   0.95313   0.81839   0.00000  Uiso   1.00
H1276  H     0.22092   0.92424   0.80726   0.00000  Uiso   1.00
O1277  O     0.20939   0.71112   0.81805   0.00000  Uiso   1.00
H1278  H     0.21966   0.74038   0.80702   0.00000  Uiso   1.00
O1279  O     0.12394   0.95555   0.68196   0.00000  Uiso   1.00
H1280  H     0.11368   0.92628   0.69298   0.00000  Uiso   1.00
C1281  C     0.42090   0.83393   0.75091   0.00000  Uiso   1.00
C1282  C     0.57910   0.83274   0.74909   0.00000  Uiso   1.00
C1283  C     0.42595   0.84667   0.51856   0.00000  Uiso   1.00
C1284  C     0.57405   0.82000   0.98144   0.00000  Uiso   1.00
C1285  C     0.35668   0.80080   0.77655   0.00000  Uiso   1.00
C1286  C     0.64332   0.86587   0.72345   0.00000  Uiso   1.00
C1287  C     0.64746   0.79767   0.77197   0.00000  Uiso   1.00
C1288  C     0.35254   0.86900   0.72803   0.00000  Uiso   1.00
C1289  C     0.62373   0.83129   0.74711   0.00000  Uiso   1.00
C1290  C     0.37627   0.83538   0.75290   0.00000  Uiso   1.00
C1291  C     0.47950   0.69171   0.71644   0.00000  Uiso   1.00
C1292  C     0.52050   0.97496   0.78357   0.00000  Uiso   1.00
C1293  C     0.52052   0.69052   0.78353   0.00000  Uiso   1.00
C1294  C     0.47948   0.97615   0.71647   0.00000  Uiso   1.00
C1295  C     0.49998   0.83339   0.66475   0.00000  Uiso   1.00
C1296  C     0.50002   0.83328   0.83525   0.00000  Uiso   1.00
C1297  C     0.53640   0.82199   0.90879   0.00000  Uiso   1.00
C1298  C     0.46360   0.84467   0.59121   0.00000  Uiso   1.00
C1299  C     0.49971   0.83325   0.88344   0.00000  Uiso   1.00
C1300  C     0.50029   0.83341   0.61656   0.00000  Uiso   1.00
C1301  C     0.46272   0.84375   0.90398   0.00000  Uiso   1.00
C1302  C     0.53728   0.82292   0.59602   0.00000  Uiso   1.00
C1303  C     0.46189   0.83954   0.95060   0.00000  Uiso   1.00
C1304  C     0.53811   0.82713   0.54940   0.00000  Uiso   1.00
C1305  C     0.49965   0.83254   0.97648   0.00000  Uiso   1.00
C1306  C     0.50035   0.83413   0.52352   0.00000  Uiso   1.00
C1307  C     0.53678   0.82401   0.95548   0.00000  Uiso   1.00
C1308  C     0.46322   0.84266   0.54452   0.00000  Uiso   1.00
C1309  C     0.42454   0.84372   0.97249   0.00000  Uiso   1.00
C1310  C     0.57546   0.82295   0.52751   0.00000  Uiso   1.00
Cu1311 Cu    0.50000   0.88022   0.75000   0.00000  Uiso   1.00
Cu1312 Cu    0.50000   0.78645   0.75000   0.00000  Uiso   1.00
H1313  H     0.39692   0.84966   0.53411   0.00000  Uiso   1.00
H1314  H     0.60308   0.81700   0.96589   0.00000  Uiso   1.00
N1315  N     0.50000   0.95069   0.75000   0.00000  Uiso   1.00
N1316  N     0.50000   0.71598   0.75000   0.00000  Uiso   1.00
O1317  O     0.43988   0.87291   0.75000   0.00000  Uiso   1.00
O1318  O     0.56012   0.79375   0.75001   0.00000  Uiso   1.00
O1319  O     0.56012   0.87291   0.75001   0.00000  Uiso   1.00
O1320  O     0.43988   0.79375   0.75000   0.00000  Uiso   1.00
O1321  O     0.49999   0.87293   0.68513   0.00000  Uiso   1.00
O1322  O     0.50001   0.79373   0.81487   0.00000  Uiso   1.00
O1323  O     0.50001   0.87293   0.81487   0.00000  Uiso   1.00
O1324  O     0.49999   0.79373   0.68513   0.00000  Uiso   1.00
C1325  C     0.57455   0.80915   0.88632   0.00000  Uiso   1.00
O1326  O     0.58749   0.83483   0.85831   0.00000  Uiso   1.00
O1327  O     0.59570   0.76778   0.89779   0.00000  Uiso   1.00
H1328  H     0.62183   0.76346   0.88150   0.00000  Uiso   1.00
C1329  C     0.42545   0.85751   0.61368   0.00000  Uiso   1.00
O1330  O     0.41251   0.83183   0.64169   0.00000  Uiso   1.00
O1331  O     0.40430   0.89888   0.60222   0.00000  Uiso   1.00
H1332  H     0.37817   0.90321   0.61850   0.00000  Uiso   1.00
O1333  O     0.42760   0.86016   0.87997   0.00000  Uiso   1.00
H1334  H     0.43142   0.86143   0.84782   0.00000  Uiso   1.00
O1335  O     0.57241   0.80652   0.62003   0.00000  Uiso   1.00
H1336  H     0.56859   0.80525   0.65219   0.00000  Uiso   1.00
C1337  C     0.38287   0.84124   0.94959   0.00000  Uiso   1.00
O1338  O     0.37514   0.81054   0.92273   0.00000  Uiso   1.00
O1339  O     0.35193   0.87279   0.96044   0.00000  Uiso   1.00
H1340  H     0.65825   0.86772   0.94265   0.00000  Uiso   1.00
C1341  C     0.61713   0.82543   0.55041   0.00000  Uiso   1.00
O1342  O     0.62486   0.85613   0.57727   0.00000  Uiso   1.00
O1343  O     0.64807   0.79388   0.53956   0.00000  Uiso   1.00
H1344  H     0.34175   0.79895   0.55735   0.00000  Uiso   1.00
O1345  O     0.37795   0.76948   0.80463   0.00000  Uiso   1.00
H1346  H     0.40337   0.78403   0.81722   0.00000  Uiso   1.00
O1347  O     0.62205   0.89718   0.69537   0.00000  Uiso   1.00
H1348  H     0.59663   0.88264   0.68278   0.00000  Uiso   1.00
O1349  O     0.62954   0.76265   0.79425   0.00000  Uiso   1.00
H1350  H     0.61770   0.74188   0.77092   0.00000  Uiso   1.00
O1351  O     0.37046   0.90402   0.70576   0.00000  Uiso   1.00
H1352  H     0.38230   0.92479   0.72909   0.00000  Uiso   1.00
O1353  O     0.45758   0.71353   0.68162   0.00000  Uiso   1.00
H1354  H     0.44577   0.74245   0.69274   0.00000  Uiso   1.00
O1355  O     0.54240   0.95313   0.81839   0.00000  Uiso   1.00
H1356  H     0.55425   0.92424   0.80726   0.00000  Uiso   1.00
O1357  O     0.54272   0.71112   0.81805   0.00000  Uiso   1.00
H1358  H     0.55299   0.74038   0.80702   0.00000  Uiso   1.00
O1359  O     0.45727   0.95555   0.68196   0.00000  Uiso   1.00
H1360  H     0.44701   0.92628   0.69298   0.00000  Uiso   1.00
C1361  C     0.75423   0.83393   0.75091   0.00000  Uiso   1.00
C1362  C     0.91244   0.83274   0.74909   0.00000  Uiso   1.00
C1363  C     0.75928   0.84667   0.51856   0.00000  Uiso   1.00
C1364  C     0.90739   0.82000   0.98144   0.00000  Uiso   1.00
C1365  C     0.69002   0.80080   0.77655   0.00000  Uiso   1.00
C1366  C     0.97665   0.86587   0.72345   0.00000  Uiso   1.00
C1367  C     0.98079   0.79767   0.77197   0.00000  Uiso   1.00
C1368  C     0.68587   0.86900   0.72803   0.00000  Uiso   1.00
C1369  C     0.95707   0.83129   0.74711   0.00000  Uiso   1.00
C1370  C     0.70960   0.83538   0.75290   0.00000  Uiso   1.00
C1371  C     0.81283   0.69171   0.71644   0.00000  Uiso   1.00
C1372  C     0.85383   0.97496   0.78357   0.00000  Uiso   1.00
C1373  C     0.85385   0.69052   0.78353   0.00000  Uiso   1.00
C1374  C     0.81281   0.97615   0.71647   0.00000  Uiso   1.00
C1375  C     0.83331   0.83339   0.66475   0.00000  Uiso   1.00
C1376  C     0.83335   0.83328   0.83525   0.00000  Uiso   1.00
C1377  C     0.86974   0.82199   0.90879   0.00000  Uiso   1.00
C1378  C     0.79693   0.84467   0.59121   0.00000  Uiso   1.00
C1379  C     0.83305   0.83325   0.88344   0.00000  Uiso   1.00
C1380  C     0.83362   0.83341   0.61656   0.00000  Uiso   1.00
C1381  C     0.79606   0.84375   0.90398   0.00000  Uiso   1.00
C1382  C     0.87061   0.82292   0.59602   0.00000  Uiso   1.00
C1383  C     0.79522   0.83954   0.95060   0.00000  Uiso   1.00
C1384  C     0.87144   0.82713   0.54940   0.00000  Uiso   1.00
C1385  C     0.83298   0.83254   0.97648   0.00000  Uiso   1.00
C1386  C     0.83368   0.83413   0.52352   0.00000  Uiso   1.00
C1387  C     0.87011   0.82401   0.95548   0.00000  Uiso   1.00
C1388  C     0.79655   0.84266   0.54452   0.00000  Uiso   1.00
C1389  C     0.75787   0.84372   0.97249   0.00000  Uiso   1.00
C1390  C     0.90879   0.82295   0.52751   0.00000  Uiso   1.00
Cu1391 Cu    0.83333   0.88022   0.75000   0.00000  Uiso   1.00
Cu1392 Cu    0.83333   0.78645   0.75000   0.00000  Uiso   1.00
H1393  H     0.73025   0.84966   0.53411   0.00000  Uiso   1.00
H1394  H     0.93641   0.81700   0.96589   0.00000  Uiso   1.00
N1395  N     0.83333   0.95069   0.75000   0.00000  Uiso   1.00
N1396  N     0.83333   0.71598   0.75000   0.00000  Uiso   1.00
O1397  O     0.77321   0.87291   0.75000   0.00000  Uiso   1.00
O1398  O     0.89345   0.79375   0.75001   0.00000  Uiso   1.00
O1399  O     0.89345   0.87291   0.75001   0.00000  Uiso   1.00
O1400  O     0.77321   0.79375   0.75000   0.00000  Uiso   1.00
O1401  O     0.83332   0.87293   0.68513   0.00000  Uiso   1.00
O1402  O     0.83334   0.79373   0.81487   0.00000  Uiso   1.00
O1403  O     0.83334   0.87293   0.81487   0.00000  Uiso   1.00
O1404  O     0.83332   0.79373   0.68513   0.00000  Uiso   1.00
C1405  C     0.90788   0.80915   0.88632   0.00000  Uiso   1.00
O1406  O     0.92083   0.83483   0.85831   0.00000  Uiso   1.00
O1407  O     0.92903   0.76778   0.89779   0.00000  Uiso   1.00
H1408  H     0.95516   0.76346   0.88150   0.00000  Uiso   1.00
C1409  C     0.75879   0.85751   0.61368   0.00000  Uiso   1.00
O1410  O     0.74584   0.83183   0.64169   0.00000  Uiso   1.00
O1411  O     0.73764   0.89888   0.60222   0.00000  Uiso   1.00
H1412  H     0.71150   0.90321   0.61850   0.00000  Uiso   1.00
O1413  O     0.76093   0.86016   0.87997   0.00000  Uiso   1.00
H1414  H     0.76475   0.86143   0.84782   0.00000  Uiso   1.00
O1415  O     0.90574   0.80652   0.62003   0.00000  Uiso   1.00
H1416  H     0.90192   0.80525   0.65219   0.00000  Uiso   1.00
C1417  C     0.71620   0.84124   0.94959   0.00000  Uiso   1.00
O1418  O     0.70847   0.81054   0.92273   0.00000  Uiso   1.00
O1419  O     0.68527   0.87279   0.96044   0.00000  Uiso   1.00
H1420  H     0.99159   0.86772   0.94265   0.00000  Uiso   1.00
C1421  C     0.95046   0.82543   0.55041   0.00000  Uiso   1.00
O1422  O     0.95820   0.85613   0.57727   0.00000  Uiso   1.00
O1423  O     0.98140   0.79388   0.53956   0.00000  Uiso   1.00
H1424  H     0.67508   0.79895   0.55735   0.00000  Uiso   1.00
O1425  O     0.71128   0.76948   0.80463   0.00000  Uiso   1.00
H1426  H     0.73670   0.78403   0.81722   0.00000  Uiso   1.00
O1427  O     0.95539   0.89718   0.69537   0.00000  Uiso   1.00
H1428  H     0.92997   0.88264   0.68278   0.00000  Uiso   1.00
O1429  O     0.96287   0.76265   0.79425   0.00000  Uiso   1.00
H1430  H     0.95103   0.74188   0.77092   0.00000  Uiso   1.00
O1431  O     0.70379   0.90402   0.70576   0.00000  Uiso   1.00
H1432  H     0.71563   0.92479   0.72909   0.00000  Uiso   1.00
O1433  O     0.79092   0.71353   0.68162   0.00000  Uiso   1.00
H1434  H     0.77911   0.74245   0.69274   0.00000  Uiso   1.00
O1435  O     0.87573   0.95313   0.81839   0.00000  Uiso   1.00
H1436  H     0.88759   0.92424   0.80726   0.00000  Uiso   1.00
O1437  O     0.87605   0.71112   0.81805   0.00000  Uiso   1.00
H1438  H     0.88632   0.74038   0.80702   0.00000  Uiso   1.00
O1439  O     0.79061   0.95555   0.68196   0.00000  Uiso   1.00
H1440  H     0.78035   0.92628   0.69298   0.00000  Uiso   1.00
loop_
_geom_bond_atom_site_label_1
_geom_bond_atom_site_label_2
_geom_bond_distance
_geom_bond_site_symmetry_2
_ccdc_geom_bond_type
C1     O40     1.305   .     A
C1     O37     1.298   .     A
C1     C10     1.456   .     S
C2     O39     1.305   .     A
C2     O38     1.298   .     A
C2     C9      1.456   .     S
C3     C28     1.403   .     A
C3     H33     1.082   .     S
C3     C749    1.390   1_554 S
C4     H34     1.082   .     S
C4     C27     1.403   .     A
C4     C750    1.390   .     S
C5     O65     1.382   .     S
C5     C10     1.412   .     A
C5     C167    1.387   1_455 S
C6     C9      1.412   .     A
C6     O67     1.382   .     S
C6     C88     1.387   .     S
C7     C9      1.412   .     A
C7     O69     1.373   .     S
C7     C85     1.387   .     S
C8     O71     1.373   .     S
C8     C10     1.412   .     A
C8     C166    1.387   1_455 S
C11    O73     1.375   .     S
C11    N36     1.379   .     A
C11    C494    1.414   1_545 S
C12    N35     1.379   .     A
C12    O75     1.375   .     S
C12    C253    1.414   .     S
C13    O77     1.374   .     S
C13    N36     1.378   .     A
C13    C492    1.414   1_545 S
C14    N35     1.378   .     A
C14    O79     1.374   .     S
C14    C251    1.414   .     S
C15    O44     1.299   .     A
C15    C20     1.454   .     S
C15    O41     1.300   .     A
C16    O42     1.300   .     A
C16    O43     1.299   .     A
C16    C19     1.454   .     S
C17    C45     1.491   .     S
C17    C27     1.409   .     A
C17    C19     1.407   .     A
C18    C28     1.409   .     A
C18    C20     1.407   .     A
C18    C49     1.491   .     S
C19    C21     1.414   .     A
C20    C22     1.414   .     A
C21    C23     1.413   .     A
C21    O53     1.387   .     S
C22    C24     1.413   .     A
C22    O55     1.387   .     S
C23    C29     1.421   .     A
C23    C25     1.423   .     A
C24    C26     1.423   .     A
C24    C30     1.421   .     A
C25    C27     1.415   .     A
C25    C746    1.418   .     S
C26    C28     1.415   .     A
C26    C745    1.418   1_554 S
C29    C57     1.485   .     S
C29    C723    1.390   .     S
C30    C61     1.485   .     S
C30    C724    1.390   1_554 S
Cu31   O43     1.967   .     S
Cu31   Cu32    2.711   .     S
Cu31   O37     1.970   .     S
Cu31   O41     1.968   .     S
Cu31   N35     2.038   .     S
Cu31   O39     1.961   .     S
Cu32   O38     1.970   .     S
Cu32   O44     1.967   .     S
Cu32   N36     2.038   .     S
Cu32   O40     1.961   .     S
Cu32   O42     1.968   .     S
C45    O47     1.398   .     S
C45    O46     1.223   .     D
O47    H48     1.013   .     S
C49    O51     1.398   .     S
C49    O50     1.223   .     D
O51    H52     1.013   .     S
O53    H54     0.986   .     S
O55    H56     0.986   .     S
C57    O59     1.398   .     S
C57    O58     1.223   .     D
O59    H220    1.014   1_455 S
H60    O139    1.014   .     S
C61    O63     1.398   .     S
C61    O62     1.223   .     D
O63    H144    1.014   .     S
H64    O223    1.014   1_455 S
O65    H66     0.990   .     S
O67    H68     0.990   .     S
O69    H70     0.991   .     S
O71    H72     0.991   .     S
O73    H74     0.981   .     S
O75    H76     0.981   .     S
O77    H78     0.981   .     S
O79    H80     0.981   .     S
C81    O120    1.305   .     A
C81    O117    1.298   .     A
C81    C90     1.456   .     S
C82    O119    1.305   .     A
C82    O118    1.298   .     A
C82    C89     1.456   .     S
C83    C108    1.403   .     A
C83    H113    1.082   .     S
C83    C829    1.390   1_554 S
C84    H114    1.082   .     S
C84    C107    1.403   .     A
C84    C830    1.390   .     S
C85    O145    1.382   .     S
C85    C90     1.412   .     A
C86    C89     1.412   .     A
C86    O147    1.382   .     S
C86    C168    1.387   .     S
C87    C89     1.412   .     A
C87    O149    1.373   .     S
C87    C165    1.387   .     S
C88    O151    1.373   .     S
C88    C90     1.412   .     A
C91    O153    1.375   .     S
C91    N116    1.379   .     A
C91    C574    1.414   1_545 S
C92    N115    1.379   .     A
C92    O155    1.375   .     S
C92    C333    1.414   .     S
C93    O157    1.374   .     S
C93    N116    1.378   .     A
C93    C572    1.414   1_545 S
C94    N115    1.378   .     A
C94    O159    1.374   .     S
C94    C331    1.414   .     S
C95    O124    1.299   .     A
C95    C100    1.454   .     S
C95    O121    1.300   .     A
C96    O122    1.300   .     A
C96    O123    1.299   .     A
C96    C99     1.454   .     S
C97    C125    1.491   .     S
C97    C107    1.409   .     A
C97    C99     1.407   .     A
C98    C108    1.409   .     A
C98    C100    1.407   .     A
C98    C129    1.491   .     S
C99    C101    1.414   .     A
C100   C102    1.414   .     A
C101   C103    1.413   .     A
C101   O133    1.387   .     S
C102   C104    1.413   .     A
C102   O135    1.387   .     S
C103   C109    1.421   .     A
C103   C105    1.423   .     A
C104   C106    1.423   .     A
C104   C110    1.421   .     A
C105   C107    1.415   .     A
C105   C826    1.418   .     S
C106   C108    1.415   .     A
C106   C825    1.418   1_554 S
C109   C137    1.485   .     S
C109   C803    1.390   .     S
C110   C141    1.485   .     S
C110   C804    1.390   1_554 S
Cu111  O123    1.967   .     S
Cu111  Cu112   2.711   .     S
Cu111  O117    1.970   .     S
Cu111  O121    1.968   .     S
Cu111  N115    2.038   .     S
Cu111  O119    1.961   .     S
Cu112  O118    1.970   .     S
Cu112  O124    1.967   .     S
Cu112  N116    2.038   .     S
Cu112  O120    1.961   .     S
Cu112  O122    1.968   .     S
C125   O127    1.398   .     S
C125   O126    1.223   .     D
O127   H128    1.013   .     S
C129   O131    1.398   .     S
C129   O130    1.223   .     D
O131   H132    1.013   .     S
O133   H134    0.986   .     S
O135   H136    0.986   .     S
C137   O139    1.398   .     S
C137   O138    1.223   .     D
H140   O219    1.014   .     S
C141   O143    1.398   .     S
C141   O142    1.223   .     D
O143   H224    1.014   .     S
O145   H146    0.990   .     S
O147   H148    0.990   .     S
O149   H150    0.991   .     S
O151   H152    0.991   .     S
O153   H154    0.981   .     S
O155   H156    0.981   .     S
O157   H158    0.981   .     S
O159   H160    0.981   .     S
C161   O200    1.305   .     A
C161   O197    1.298   .     A
C161   C170    1.456   .     S
C162   O199    1.305   .     A
C162   O198    1.298   .     A
C162   C169    1.456   .     S
C163   C188    1.403   .     A
C163   H193    1.082   .     S
C163   C909    1.390   1_554 S
C164   H194    1.082   .     S
C164   C187    1.403   .     A
C164   C910    1.390   .     S
C165   O225    1.382   .     S
C165   C170    1.412   .     A
C166   C169    1.412   .     A
C166   O227    1.382   .     S
C166   C8      1.387   1_655 S
C167   C169    1.412   .     A
C167   O229    1.373   .     S
C167   C5      1.387   1_655 S
C168   O231    1.373   .     S
C168   C170    1.412   .     A
C171   O233    1.375   .     S
C171   N196    1.379   .     A
C171   C654    1.414   1_545 S
C172   N195    1.379   .     A
C172   O235    1.375   .     S
C172   C413    1.414   .     S
C173   O237    1.374   .     S
C173   N196    1.378   .     A
C173   C652    1.414   1_545 S
C174   N195    1.378   .     A
C174   O239    1.374   .     S
C174   C411    1.414   .     S
C175   O204    1.299   .     A
C175   C180    1.454   .     S
C175   O201    1.300   .     A
C176   O202    1.300   .     A
C176   O203    1.299   .     A
C176   C179    1.454   .     S
C177   C205    1.491   .     S
C177   C187    1.409   .     A
C177   C179    1.407   .     A
C178   C188    1.409   .     A
C178   C180    1.407   .     A
C178   C209    1.491   .     S
C179   C181    1.414   .     A
C180   C182    1.414   .     A
C181   C183    1.413   .     A
C181   O213    1.387   .     S
C182   C184    1.413   .     A
C182   O215    1.387   .     S
C183   C189    1.421   .     A
C183   C185    1.423   .     A
C184   C186    1.423   .     A
C184   C190    1.421   .     A
C185   C187    1.415   .     A
C185   C906    1.418   .     S
C186   C188    1.415   .     A
C186   C905    1.418   1_554 S
C189   C217    1.485   .     S
C189   C883    1.390   .     S
C190   C221    1.485   .     S
C190   C884    1.390   1_554 S
Cu191  O203    1.967   .     S
Cu191  Cu192   2.711   .     S
Cu191  O197    1.970   .     S
Cu191  O201    1.968   .     S
Cu191  N195    2.038   .     S
Cu191  O199    1.961   .     S
Cu192  O198    1.970   .     S
Cu192  O204    1.967   .     S
Cu192  N196    2.038   .     S
Cu192  O200    1.961   .     S
Cu192  O202    1.968   .     S
C205   O207    1.398   .     S
C205   O206    1.223   .     D
O207   H208    1.013   .     S
C209   O211    1.398   .     S
C209   O210    1.223   .     D
O211   H212    1.013   .     S
O213   H214    0.986   .     S
O215   H216    0.986   .     S
C217   O219    1.398   .     S
C217   O218    1.223   .     D
H220   O59     1.014   1_655 S
C221   O223    1.398   .     S
C221   O222    1.223   .     D
O223   H64     1.014   1_655 S
O225   H226    0.990   .     S
O227   H228    0.990   .     S
O229   H230    0.991   .     S
O231   H232    0.991   .     S
O233   H234    0.981   .     S
O235   H236    0.981   .     S
O237   H238    0.981   .     S
O239   H240    0.981   .     S
C241   O280    1.305   .     A
C241   O277    1.298   .     A
C241   C250    1.456   .     S
C242   O279    1.305   .     A
C242   O278    1.298   .     A
C242   C249    1.456   .     S
C243   C268    1.403   .     A
C243   H273    1.082   .     S
C243   C989    1.390   1_554 S
C244   H274    1.082   .     S
C244   C267    1.403   .     A
C244   C990    1.390   .     S
C245   O305    1.382   .     S
C245   C250    1.412   .     A
C245   C407    1.387   1_455 S
C246   C249    1.412   .     A
C246   O307    1.382   .     S
C246   C328    1.387   .     S
C247   C249    1.412   .     A
C247   O309    1.373   .     S
C247   C325    1.387   .     S
C248   O311    1.373   .     S
C248   C250    1.412   .     A
C248   C406    1.387   1_455 S
C251   O313    1.375   .     S
C251   N276    1.379   .     A
C252   N275    1.379   .     A
C252   O315    1.375   .     S
C252   C493    1.414   .     S
C253   O317    1.374   .     S
C253   N276    1.378   .     A
C254   N275    1.378   .     A
C254   O319    1.374   .     S
C254   C491    1.414   .     S
C255   O284    1.299   .     A
C255   C260    1.454   .     S
C255   O281    1.300   .     A
C256   O282    1.300   .     A
C256   O283    1.299   .     A
C256   C259    1.454   .     S
C257   C285    1.491   .     S
C257   C267    1.409   .     A
C257   C259    1.407   .     A
C258   C268    1.409   .     A
C258   C260    1.407   .     A
C258   C289    1.491   .     S
C259   C261    1.414   .     A
C260   C262    1.414   .     A
C261   C263    1.413   .     A
C261   O293    1.387   .     S
C262   C264    1.413   .     A
C262   O295    1.387   .     S
C263   C269    1.421   .     A
C263   C265    1.423   .     A
C264   C266    1.423   .     A
C264   C270    1.421   .     A
C265   C267    1.415   .     A
C265   C986    1.418   .     S
C266   C268    1.415   .     A
C266   C985    1.418   1_554 S
C269   C297    1.485   .     S
C269   C963    1.390   .     S
C270   C301    1.485   .     S
C270   C964    1.390   1_554 S
Cu271  O283    1.967   .     S
Cu271  Cu272   2.711   .     S
Cu271  O277    1.970   .     S
Cu271  O281    1.968   .     S
Cu271  N275    2.038   .     S
Cu271  O279    1.961   .     S
Cu272  O278    1.970   .     S
Cu272  O284    1.967   .     S
Cu272  N276    2.038   .     S
Cu272  O280    1.961   .     S
Cu272  O282    1.968   .     S
C285   O287    1.398   .     S
C285   O286    1.223   .     D
O287   H288    1.013   .     S
C289   O291    1.398   .     S
C289   O290    1.223   .     D
O291   H292    1.013   .     S
O293   H294    0.986   .     S
O295   H296    0.986   .     S
C297   O299    1.398   .     S
C297   O298    1.223   .     D
O299   H460    1.014   1_455 S
H300   O379    1.014   .     S
C301   O303    1.398   .     S
C301   O302    1.223   .     D
O303   H384    1.014   .     S
H304   O463    1.014   1_455 S
O305   H306    0.990   .     S
O307   H308    0.990   .     S
O309   H310    0.991   .     S
O311   H312    0.991   .     S
O313   H314    0.981   .     S
O315   H316    0.981   .     S
O317   H318    0.981   .     S
O319   H320    0.981   .     S
C321   O360    1.305   .     A
C321   O357    1.298   .     A
C321   C330    1.456   .     S
C322   O359    1.305   .     A
C322   O358    1.298   .     A
C322   C329    1.456   .     S
C323   C348    1.403   .     A
C323   H353    1.082   .     S
C323   C1069   1.390   1_554 S
C324   H354    1.082   .     S
C324   C347    1.403   .     A
C324   C1070   1.390   .     S
C325   O385    1.382   .     S
C325   C330    1.412   .     A
C326   C329    1.412   .     A
C326   O387    1.382   .     S
C326   C408    1.387   .     S
C327   C329    1.412   .     A
C327   O389    1.373   .     S
C327   C405    1.387   .     S
C328   O391    1.373   .     S
C328   C330    1.412   .     A
C331   O393    1.375   .     S
C331   N356    1.379   .     A
C332   N355    1.379   .     A
C332   O395    1.375   .     S
C332   C573    1.414   .     S
C333   O397    1.374   .     S
C333   N356    1.378   .     A
C334   N355    1.378   .     A
C334   O399    1.374   .     S
C334   C571    1.414   .     S
C335   O364    1.299   .     A
C335   C340    1.454   .     S
C335   O361    1.300   .     A
C336   O362    1.300   .     A
C336   O363    1.299   .     A
C336   C339    1.454   .     S
C337   C365    1.491   .     S
C337   C347    1.409   .     A
C337   C339    1.407   .     A
C338   C348    1.409   .     A
C338   C340    1.407   .     A
C338   C369    1.491   .     S
C339   C341    1.414   .     A
C340   C342    1.414   .     A
C341   C343    1.413   .     A
C341   O373    1.387   .     S
C342   C344    1.413   .     A
C342   O375    1.387   .     S
C343   C349    1.421   .     A
C343   C345    1.423   .     A
C344   C346    1.423   .     A
C344   C350    1.421   .     A
C345   C347    1.415   .     A
C345   C1066   1.418   .     S
C346   C348    1.415   .     A
C346   C1065   1.418   1_554 S
C349   C377    1.485   .     S
C349   C1043   1.390   .     S
C350   C381    1.485   .     S
C350   C1044   1.390   1_554 S
Cu351  O363    1.967   .     S
Cu351  Cu352   2.711   .     S
Cu351  O357    1.970   .     S
Cu351  O361    1.968   .     S
Cu351  N355    2.038   .     S
Cu351  O359    1.961   .     S
Cu352  O358    1.970   .     S
Cu352  O364    1.967   .     S
Cu352  N356    2.038   .     S
Cu352  O360    1.961   .     S
Cu352  O362    1.968   .     S
C365   O367    1.398   .     S
C365   O366    1.223   .     D
O367   H368    1.013   .     S
C369   O371    1.398   .     S
C369   O370    1.223   .     D
O371   H372    1.013   .     S
O373   H374    0.986   .     S
O375   H376    0.986   .     S
C377   O379    1.398   .     S
C377   O378    1.223   .     D
H380   O459    1.014   .     S
C381   O383    1.398   .     S
C381   O382    1.223   .     D
O383   H464    1.014   .     S
O385   H386    0.990   .     S
O387   H388    0.990   .     S
O389   H390    0.991   .     S
O391   H392    0.991   .     S
O393   H394    0.981   .     S
O395   H396    0.981   .     S
O397   H398    0.981   .     S
O399   H400    0.981   .     S
C401   O440    1.305   .     A
C401   O437    1.298   .     A
C401   C410    1.456   .     S
C402   O439    1.305   .     A
C402   O438    1.298   .     A
C402   C409    1.456   .     S
C403   C428    1.403   .     A
C403   H433    1.082   .     S
C403   C1149   1.390   1_554 S
C404   H434    1.082   .     S
C404   C427    1.403   .     A
C404   C1150   1.390   .     S
C405   O465    1.382   .     S
C405   C410    1.412   .     A
C406   C409    1.412   .     A
C406   O467    1.382   .     S
C406   C248    1.387   1_655 S
C407   C409    1.412   .     A
C407   O469    1.373   .     S
C407   C245    1.387   1_655 S
C408   O471    1.373   .     S
C408   C410    1.412   .     A
C411   O473    1.375   .     S
C411   N436    1.379   .     A
C412   N435    1.379   .     A
C412   O475    1.375   .     S
C412   C653    1.414   .     S
C413   O477    1.374   .     S
C413   N436    1.378   .     A
C414   N435    1.378   .     A
C414   O479    1.374   .     S
C414   C651    1.414   .     S
C415   O444    1.299   .     A
C415   C420    1.454   .     S
C415   O441    1.300   .     A
C416   O442    1.300   .     A
C416   O443    1.299   .     A
C416   C419    1.454   .     S
C417   C445    1.491   .     S
C417   C427    1.409   .     A
C417   C419    1.407   .     A
C418   C428    1.409   .     A
C418   C420    1.407   .     A
C418   C449    1.491   .     S
C419   C421    1.414   .     A
C420   C422    1.414   .     A
C421   C423    1.413   .     A
C421   O453    1.387   .     S
C422   C424    1.413   .     A
C422   O455    1.387   .     S
C423   C429    1.421   .     A
C423   C425    1.423   .     A
C424   C426    1.423   .     A
C424   C430    1.421   .     A
C425   C427    1.415   .     A
C425   C1146   1.418   .     S
C426   C428    1.415   .     A
C426   C1145   1.418   1_554 S
C429   C457    1.485   .     S
C429   C1123   1.390   .     S
C430   C461    1.485   .     S
C430   C1124   1.390   1_554 S
Cu431  O443    1.967   .     S
Cu431  Cu432   2.711   .     S
Cu431  O437    1.970   .     S
Cu431  O441    1.968   .     S
Cu431  N435    2.038   .     S
Cu431  O439    1.961   .     S
Cu432  O438    1.970   .     S
Cu432  O444    1.967   .     S
Cu432  N436    2.038   .     S
Cu432  O440    1.961   .     S
Cu432  O442    1.968   .     S
C445   O447    1.398   .     S
C445   O446    1.223   .     D
O447   H448    1.013   .     S
C449   O451    1.398   .     S
C449   O450    1.223   .     D
O451   H452    1.013   .     S
O453   H454    0.986   .     S
O455   H456    0.986   .     S
C457   O459    1.398   .     S
C457   O458    1.223   .     D
H460   O299    1.014   1_655 S
C461   O463    1.398   .     S
C461   O462    1.223   .     D
O463   H304    1.014   1_655 S
O465   H466    0.990   .     S
O467   H468    0.990   .     S
O469   H470    0.991   .     S
O471   H472    0.991   .     S
O473   H474    0.981   .     S
O475   H476    0.981   .     S
O477   H478    0.981   .     S
O479   H480    0.981   .     S
C481   O520    1.305   .     A
C481   O517    1.298   .     A
C481   C490    1.456   .     S
C482   O519    1.305   .     A
C482   O518    1.298   .     A
C482   C489    1.456   .     S
C483   C508    1.403   .     A
C483   H513    1.082   .     S
C483   C1229   1.390   1_554 S
C484   H514    1.082   .     S
C484   C507    1.403   .     A
C484   C1230   1.390   .     S
C485   O545    1.382   .     S
C485   C490    1.412   .     A
C485   C647    1.387   1_455 S
C486   C489    1.412   .     A
C486   O547    1.382   .     S
C486   C568    1.387   .     S
C487   C489    1.412   .     A
C487   O549    1.373   .     S
C487   C565    1.387   .     S
C488   O551    1.373   .     S
C488   C490    1.412   .     A
C488   C646    1.387   1_455 S
C491   O553    1.375   .     S
C491   N516    1.379   .     A
C492   N515    1.379   .     A
C492   O555    1.375   .     S
C492   C13     1.414   1_565 S
C493   O557    1.374   .     S
C493   N516    1.378   .     A
C494   N515    1.378   .     A
C494   O559    1.374   .     S
C494   C11     1.414   1_565 S
C495   O524    1.299   .     A
C495   C500    1.454   .     S
C495   O521    1.300   .     A
C496   O522    1.300   .     A
C496   O523    1.299   .     A
C496   C499    1.454   .     S
C497   C525    1.491   .     S
C497   C507    1.409   .     A
C497   C499    1.407   .     A
C498   C508    1.409   .     A
C498   C500    1.407   .     A
C498   C529    1.491   .     S
C499   C501    1.414   .     A
C500   C502    1.414   .     A
C501   C503    1.413   .     A
C501   O533    1.387   .     S
C502   C504    1.413   .     A
C502   O535    1.387   .     S
C503   C509    1.421   .     A
C503   C505    1.423   .     A
C504   C506    1.423   .     A
C504   C510    1.421   .     A
C505   C507    1.415   .     A
C505   C1226   1.418   .     S
C506   C508    1.415   .     A
C506   C1225   1.418   1_554 S
C509   C537    1.485   .     S
C509   C1203   1.390   .     S
C510   C541    1.485   .     S
C510   C1204   1.390   1_554 S
Cu511  O523    1.967   .     S
Cu511  Cu512   2.711   .     S
Cu511  O517    1.970   .     S
Cu511  O521    1.968   .     S
Cu511  N515    2.038   .     S
Cu511  O519    1.961   .     S
Cu512  O518    1.970   .     S
Cu512  O524    1.967   .     S
Cu512  N516    2.038   .     S
Cu512  O520    1.961   .     S
Cu512  O522    1.968   .     S
C525   O527    1.398   .     S
C525   O526    1.223   .     D
O527   H528    1.013   .     S
C529   O531    1.398   .     S
C529   O530    1.223   .     D
O531   H532    1.013   .     S
O533   H534    0.986   .     S
O535   H536    0.986   .     S
C537   O539    1.398   .     S
C537   O538    1.223   .     D
O539   H700    1.014   1_455 S
H540   O619    1.014   .     S
C541   O543    1.398   .     S
C541   O542    1.223   .     D
O543   H624    1.014   .     S
H544   O703    1.014   1_455 S
O545   H546    0.990   .     S
O547   H548    0.990   .     S
O549   H550    0.991   .     S
O551   H552    0.991   .     S
O553   H554    0.981   .     S
O555   H556    0.981   .     S
O557   H558    0.981   .     S
O559   H560    0.981   .     S
C561   O600    1.305   .     A
C561   O597    1.298   .     A
C561   C570    1.456   .     S
C562   O599    1.305   .     A
C562   O598    1.298   .     A
C562   C569    1.456   .     S
C563   C588    1.403   .     A
C563   H593    1.082   .     S
C563   C1309   1.390   1_554 S
C564   H594    1.082   .     S
C564   C587    1.403   .     A
C564   C1310   1.390   .     S
C565   O625    1.382   .     S
C565   C570    1.412   .     A
C566   C569    1.412   .     A
C566   O627    1.382   .     S
C566   C648    1.387   .     S
C567   C569    1.412   .     A
C567   O629    1.373   .     S
C567   C645    1.387   .     S
C568   O631    1.373   .     S
C568   C570    1.412   .     A
C571   O633    1.375   .     S
C571   N596    1.379   .     A
C572   N595    1.379   .     A
C572   O635    1.375   .     S
C572   C93     1.414   1_565 S
C573   O637    1.374   .     S
C573   N596    1.378   .     A
C574   N595    1.378   .     A
C574   O639    1.374   .     S
C574   C91     1.414   1_565 S
C575   O604    1.299   .     A
C575   C580    1.454   .     S
C575   O601    1.300   .     A
C576   O602    1.300   .     A
C576   O603    1.299   .     A
C576   C579    1.454   .     S
C577   C605    1.491   .     S
C577   C587    1.409   .     A
C577   C579    1.407   .     A
C578   C588    1.409   .     A
C578   C580    1.407   .     A
C578   C609    1.491   .     S
C579   C581    1.414   .     A
C580   C582    1.414   .     A
C581   C583    1.413   .     A
C581   O613    1.387   .     S
C582   C584    1.413   .     A
C582   O615    1.387   .     S
C583   C589    1.421   .     A
C583   C585    1.423   .     A
C584   C586    1.423   .     A
C584   C590    1.421   .     A
C585   C587    1.415   .     A
C585   C1306   1.418   .     S
C586   C588    1.415   .     A
C586   C1305   1.418   1_554 S
C589   C617    1.485   .     S
C589   C1283   1.390   .     S
C590   C621    1.485   .     S
C590   C1284   1.390   1_554 S
Cu591  O603    1.967   .     S
Cu591  Cu592   2.711   .     S
Cu591  O597    1.970   .     S
Cu591  O601    1.968   .     S
Cu591  N595    2.038   .     S
Cu591  O599    1.961   .     S
Cu592  O598    1.970   .     S
Cu592  O604    1.967   .     S
Cu592  N596    2.038   .     S
Cu592  O600    1.961   .     S
Cu592  O602    1.968   .     S
C605   O607    1.398   .     S
C605   O606    1.223   .     D
O607   H608    1.013   .     S
C609   O611    1.398   .     S
C609   O610    1.223   .     D
O611   H612    1.013   .     S
O613   H614    0.986   .     S
O615   H616    0.986   .     S
C617   O619    1.398   .     S
C617   O618    1.223   .     D
H620   O699    1.014   .     S
C621   O623    1.398   .     S
C621   O622    1.223   .     D
O623   H704    1.014   .     S
O625   H626    0.990   .     S
O627   H628    0.990   .     S
O629   H630    0.991   .     S
O631   H632    0.991   .     S
O633   H634    0.981   .     S
O635   H636    0.981   .     S
O637   H638    0.981   .     S
O639   H640    0.981   .     S
C641   O680    1.305   .     A
C641   O677    1.298   .     A
C641   C650    1.456   .     S
C642   O679    1.305   .     A
C642   O678    1.298   .     A
C642   C649    1.456   .     S
C643   C668    1.403   .     A
C643   H673    1.082   .     S
C643   C1389   1.390   1_554 S
C644   H674    1.082   .     S
C644   C667    1.403   .     A
C644   C1390   1.390   .     S
C645   O705    1.382   .     S
C645   C650    1.412   .     A
C646   C649    1.412   .     A
C646   O707    1.382   .     S
C646   C488    1.387   1_655 S
C647   C649    1.412   .     A
C647   O709    1.373   .     S
C647   C485    1.387   1_655 S
C648   O711    1.373   .     S
C648   C650    1.412   .     A
C651   O713    1.375   .     S
C651   N676    1.379   .     A
C652   N675    1.379   .     A
C652   O715    1.375   .     S
C652   C173    1.414   1_565 S
C653   O717    1.374   .     S
C653   N676    1.378   .     A
C654   N675    1.378   .     A
C654   O719    1.374   .     S
C654   C171    1.414   1_565 S
C655   O684    1.299   .     A
C655   C660    1.454   .     S
C655   O681    1.300   .     A
C656   O682    1.300   .     A
C656   O683    1.299   .     A
C656   C659    1.454   .     S
C657   C685    1.491   .     S
C657   C667    1.409   .     A
C657   C659    1.407   .     A
C658   C668    1.409   .     A
C658   C660    1.407   .     A
C658   C689    1.491   .     S
C659   C661    1.414   .     A
C660   C662    1.414   .     A
C661   C663    1.413   .     A
C661   O693    1.387   .     S
C662   C664    1.413   .     A
C662   O695    1.387   .     S
C663   C669    1.421   .     A
C663   C665    1.423   .     A
C664   C666    1.423   .     A
C664   C670    1.421   .     A
C665   C667    1.415   .     A
C665   C1386   1.418   .     S
C666   C668    1.415   .     A
C666   C1385   1.418   1_554 S
C669   C697    1.485   .     S
C669   C1363   1.390   .     S
C670   C701    1.485   .     S
C670   C1364   1.390   1_554 S
Cu671  O683    1.967   .     S
Cu671  Cu672   2.711   .     S
Cu671  O677    1.970   .     S
Cu671  O681    1.968   .     S
Cu671  N675    2.038   .     S
Cu671  O679    1.961   .     S
Cu672  O678    1.970   .     S
Cu672  O684    1.967   .     S
Cu672  N676    2.038   .     S
Cu672  O680    1.961   .     S
Cu672  O682    1.968   .     S
C685   O687    1.398   .     S
C685   O686    1.223   .     D
O687   H688    1.013   .     S
C689   O691    1.398   .     S
C689   O690    1.223   .     D
O691   H692    1.013   .     S
O693   H694    0.986   .     S
O695   H696    0.986   .     S
C697   O699    1.398   .     S
C697   O698    1.223   .     D
H700   O539    1.014   1_655 S
C701   O703    1.398   .     S
C701   O702    1.223   .     D
O703   H544    1.014   1_655 S
O705   H706    0.990   .     S
O707   H708    0.990   .     S
O709   H710    0.991   .     S
O711   H712    0.991   .     S
O713   H714    0.981   .     S
O715   H716    0.981   .     S
O717   H718    0.981   .     S
O719   H720    0.981   .     S
C721   O760    1.305   .     A
C721   O757    1.298   .     A
C721   C730    1.456   .     S
C722   O759    1.305   .     A
C722   O758    1.298   .     A
C722   C729    1.456   .     S
C723   C748    1.403   .     A
C723   H753    1.082   .     S
C724   H754    1.082   .     S
C724   C747    1.403   .     A
C724   C30     1.390   1_556 S
C725   O785    1.382   .     S
C725   C730    1.412   .     A
C725   C887    1.387   1_455 S
C726   C729    1.412   .     A
C726   O787    1.382   .     S
C726   C808    1.387   .     S
C727   C729    1.412   .     A
C727   O789    1.373   .     S
C727   C805    1.387   .     S
C728   O791    1.373   .     S
C728   C730    1.412   .     A
C728   C886    1.387   1_455 S
C731   O793    1.375   .     S
C731   N756    1.379   .     A
C731   C1214   1.414   1_545 S
C732   N755    1.379   .     A
C732   O795    1.375   .     S
C732   C973    1.414   .     S
C733   O797    1.374   .     S
C733   N756    1.378   .     A
C733   C1212   1.414   1_545 S
C734   N755    1.378   .     A
C734   O799    1.374   .     S
C734   C971    1.414   .     S
C735   O764    1.299   .     A
C735   C740    1.454   .     S
C735   O761    1.300   .     A
C736   O762    1.300   .     A
C736   O763    1.299   .     A
C736   C739    1.454   .     S
C737   C765    1.491   .     S
C737   C747    1.409   .     A
C737   C739    1.407   .     A
C738   C748    1.409   .     A
C738   C740    1.407   .     A
C738   C769    1.491   .     S
C739   C741    1.414   .     A
C740   C742    1.414   .     A
C741   C743    1.413   .     A
C741   O773    1.387   .     S
C742   C744    1.413   .     A
C742   O775    1.387   .     S
C743   C749    1.421   .     A
C743   C745    1.423   .     A
C744   C746    1.423   .     A
C744   C750    1.421   .     A
C745   C747    1.415   .     A
C745   C26     1.418   1_556 S
C746   C748    1.415   .     A
C749   C777    1.485   .     S
C749   C3      1.390   1_556 S
C750   C781    1.485   .     S
Cu751  O763    1.967   .     S
Cu751  Cu752   2.711   .     S
Cu751  O757    1.970   .     S
Cu751  O761    1.968   .     S
Cu751  N755    2.038   .     S
Cu751  O759    1.961   .     S
Cu752  O758    1.970   .     S
Cu752  O764    1.967   .     S
Cu752  N756    2.038   .     S
Cu752  O760    1.961   .     S
Cu752  O762    1.968   .     S
C765   O767    1.398   .     S
C765   O766    1.223   .     D
O767   H768    1.013   .     S
C769   O771    1.398   .     S
C769   O770    1.223   .     D
O771   H772    1.013   .     S
O773   H774    0.986   .     S
O775   H776    0.986   .     S
C777   O779    1.398   .     S
C777   O778    1.223   .     D
O779   H940    1.014   1_455 S
H780   O859    1.014   .     S
C781   O783    1.398   .     S
C781   O782    1.223   .     D
O783   H864    1.014   .     S
H784   O943    1.014   1_455 S
O785   H786    0.990   .     S
O787   H788    0.990   .     S
O789   H790    0.991   .     S
O791   H792    0.991   .     S
O793   H794    0.981   .     S
O795   H796    0.981   .     S
O797   H798    0.981   .     S
O799   H800    0.981   .     S
C801   O840    1.305   .     A
C801   O837    1.298   .     A
C801   C810    1.456   .     S
C802   O839    1.305   .     A
C802   O838    1.298   .     A
C802   C809    1.456   .     S
C803   C828    1.403   .     A
C803   H833    1.082   .     S
C804   H834    1.082   .     S
C804   C827    1.403   .     A
C804   C110    1.390   1_556 S
C805   O865    1.382   .     S
C805   C810    1.412   .     A
C806   C809    1.412   .     A
C806   O867    1.382   .     S
C806   C888    1.387   .     S
C807   C809    1.412   .     A
C807   O869    1.373   .     S
C807   C885    1.387   .     S
C808   O871    1.373   .     S
C808   C810    1.412   .     A
C811   O873    1.375   .     S
C811   N836    1.379   .     A
C811   C1294   1.414   1_545 S
C812   N835    1.379   .     A
C812   O875    1.375   .     S
C812   C1053   1.414   .     S
C813   O877    1.374   .     S
C813   N836    1.378   .     A
C813   C1292   1.414   1_545 S
C814   N835    1.378   .     A
C814   O879    1.374   .     S
C814   C1051   1.414   .     S
C815   O844    1.299   .     A
C815   C820    1.454   .     S
C815   O841    1.300   .     A
C816   O842    1.300   .     A
C816   O843    1.299   .     A
C816   C819    1.454   .     S
C817   C845    1.491   .     S
C817   C827    1.409   .     A
C817   C819    1.407   .     A
C818   C828    1.409   .     A
C818   C820    1.407   .     A
C818   C849    1.491   .     S
C819   C821    1.414   .     A
C820   C822    1.414   .     A
C821   C823    1.413   .     A
C821   O853    1.387   .     S
C822   C824    1.413   .     A
C822   O855    1.387   .     S
C823   C829    1.421   .     A
C823   C825    1.423   .     A
C824   C826    1.423   .     A
C824   C830    1.421   .     A
C825   C827    1.415   .     A
C825   C106    1.418   1_556 S
C826   C828    1.415   .     A
C829   C857    1.485   .     S
C829   C83     1.390   1_556 S
C830   C861    1.485   .     S
Cu831  O843    1.967   .     S
Cu831  Cu832   2.711   .     S
Cu831  O837    1.970   .     S
Cu831  O841    1.968   .     S
Cu831  N835    2.038   .     S
Cu831  O839    1.961   .     S
Cu832  O838    1.970   .     S
Cu832  O844    1.967   .     S
Cu832  N836    2.038   .     S
Cu832  O840    1.961   .     S
Cu832  O842    1.968   .     S
C845   O847    1.398   .     S
C845   O846    1.223   .     D
O847   H848    1.013   .     S
C849   O851    1.398   .     S
C849   O850    1.223   .     D
O851   H852    1.013   .     S
O853   H854    0.986   .     S
O855   H856    0.986   .     S
C857   O859    1.398   .     S
C857   O858    1.223   .     D
H860   O939    1.014   .     S
C861   O863    1.398   .     S
C861   O862    1.223   .     D
O863   H944    1.014   .     S
O865   H866    0.990   .     S
O867   H868    0.990   .     S
O869   H870    0.991   .     S
O871   H872    0.991   .     S
O873   H874    0.981   .     S
O875   H876    0.981   .     S
O877   H878    0.981   .     S
O879   H880    0.981   .     S
C881   O920    1.305   .     A
C881   O917    1.298   .     A
C881   C890    1.456   .     S
C882   O919    1.305   .     A
C882   O918    1.298   .     A
C882   C889    1.456   .     S
C883   C908    1.403   .     A
C883   H913    1.082   .     S
C884   H914    1.082   .     S
C884   C907    1.403   .     A
C884   C190    1.390   1_556 S
C885   O945    1.382   .     S
C885   C890    1.412   .     A
C886   C889    1.412   .     A
C886   O947    1.382   .     S
C886   C728    1.387   1_655 S
C887   C889    1.412   .     A
C887   O949    1.373   .     S
C887   C725    1.387   1_655 S
C888   O951    1.373   .     S
C888   C890    1.412   .     A
C891   O953    1.375   .     S
C891   N916    1.379   .     A
C891   C1374   1.414   1_545 S
C892   N915    1.379   .     A
C892   O955    1.375   .     S
C892   C1133   1.414   .     S
C893   O957    1.374   .     S
C893   N916    1.378   .     A
C893   C1372   1.414   1_545 S
C894   N915    1.378   .     A
C894   O959    1.374   .     S
C894   C1131   1.414   .     S
C895   O924    1.299   .     A
C895   C900    1.454   .     S
C895   O921    1.300   .     A
C896   O922    1.300   .     A
C896   O923    1.299   .     A
C896   C899    1.454   .     S
C897   C925    1.491   .     S
C897   C907    1.409   .     A
C897   C899    1.407   .     A
C898   C908    1.409   .     A
C898   C900    1.407   .     A
C898   C929    1.491   .     S
C899   C901    1.414   .     A
C900   C902    1.414   .     A
C901   C903    1.413   .     A
C901   O933    1.387   .     S
C902   C904    1.413   .     A
C902   O935    1.387   .     S
C903   C909    1.421   .     A
C903   C905    1.423   .     A
C904   C906    1.423   .     A
C904   C910    1.421   .     A
C905   C907    1.415   .     A
C905   C186    1.418   1_556 S
C906   C908    1.415   .     A
C909   C937    1.485   .     S
C909   C163    1.390   1_556 S
C910   C941    1.485   .     S
Cu911  O923    1.967   .     S
Cu911  Cu912   2.711   .     S
Cu911  O917    1.970   .     S
Cu911  O921    1.968   .     S
Cu911  N915    2.038   .     S
Cu911  O919    1.961   .     S
Cu912  O918    1.970   .     S
Cu912  O924    1.967   .     S
Cu912  N916    2.038   .     S
Cu912  O920    1.961   .     S
Cu912  O922    1.968   .     S
C925   O927    1.398   .     S
C925   O926    1.223   .     D
O927   H928    1.013   .     S
C929   O931    1.398   .     S
C929   O930    1.223   .     D
O931   H932    1.013   .     S
O933   H934    0.986   .     S
O935   H936    0.986   .     S
C937   O939    1.398   .     S
C937   O938    1.223   .     D
H940   O779    1.014   1_655 S
C941   O943    1.398   .     S
C941   O942    1.223   .     D
O943   H784    1.014   1_655 S
O945   H946    0.990   .     S
O947   H948    0.990   .     S
O949   H950    0.991   .     S
O951   H952    0.991   .     S
O953   H954    0.981   .     S
O955   H956    0.981   .     S
O957   H958    0.981   .     S
O959   H960    0.981   .     S
C961   O1000   1.305   .     A
C961   O997    1.298   .     A
C961   C970    1.456   .     S
C962   O999    1.305   .     A
C962   O998    1.298   .     A
C962   C969    1.456   .     S
C963   C988    1.403   .     A
C963   H993    1.082   .     S
C964   H994    1.082   .     S
C964   C987    1.403   .     A
C964   C270    1.390   1_556 S
C965   O1025   1.382   .     S
C965   C970    1.412   .     A
C965   C1127   1.387   1_455 S
C966   C969    1.412   .     A
C966   O1027   1.382   .     S
C966   C1048   1.387   .     S
C967   C969    1.412   .     A
C967   O1029   1.373   .     S
C967   C1045   1.387   .     S
C968   O1031   1.373   .     S
C968   C970    1.412   .     A
C968   C1126   1.387   1_455 S
C971   O1033   1.375   .     S
C971   N996    1.379   .     A
C972   N995    1.379   .     A
C972   O1035   1.375   .     S
C972   C1213   1.414   .     S
C973   O1037   1.374   .     S
C973   N996    1.378   .     A
C974   N995    1.378   .     A
C974   O1039   1.374   .     S
C974   C1211   1.414   .     S
C975   O1004   1.299   .     A
C975   C980    1.454   .     S
C975   O1001   1.300   .     A
C976   O1002   1.300   .     A
C976   O1003   1.299   .     A
C976   C979    1.454   .     S
C977   C1005   1.491   .     S
C977   C987    1.409   .     A
C977   C979    1.407   .     A
C978   C988    1.409   .     A
C978   C980    1.407   .     A
C978   C1009   1.491   .     S
C979   C981    1.414   .     A
C980   C982    1.414   .     A
C981   C983    1.413   .     A
C981   O1013   1.387   .     S
C982   C984    1.413   .     A
C982   O1015   1.387   .     S
C983   C989    1.421   .     A
C983   C985    1.423   .     A
C984   C986    1.423   .     A
C984   C990    1.421   .     A
C985   C987    1.415   .     A
C985   C266    1.418   1_556 S
C986   C988    1.415   .     A
C989   C1017   1.485   .     S
C989   C243    1.390   1_556 S
C990   C1021   1.485   .     S
Cu991  O1003   1.967   .     S
Cu991  Cu992   2.711   .     S
Cu991  O997    1.970   .     S
Cu991  O1001   1.968   .     S
Cu991  N995    2.038   .     S
Cu991  O999    1.961   .     S
Cu992  O998    1.970   .     S
Cu992  O1004   1.967   .     S
Cu992  N996    2.038   .     S
Cu992  O1000   1.961   .     S
Cu992  O1002   1.968   .     S
C1005  O1007   1.398   .     S
C1005  O1006   1.223   .     D
O1007  H1008   1.013   .     S
C1009  O1011   1.398   .     S
C1009  O1010   1.223   .     D
O1011  H1012   1.013   .     S
O1013  H1014   0.986   .     S
O1015  H1016   0.986   .     S
C1017  O1019   1.398   .     S
C1017  O1018   1.223   .     D
O1019  H1180   1.014   1_455 S
H1020  O1099   1.014   .     S
C1021  O1023   1.398   .     S
C1021  O1022   1.223   .     D
O1023  H1104   1.014   .     S
H1024  O1183   1.014   1_455 S
O1025  H1026   0.990   .     S
O1027  H1028   0.990   .     S
O1029  H1030   0.991   .     S
O1031  H1032   0.991   .     S
O1033  H1034   0.981   .     S
O1035  H1036   0.981   .     S
O1037  H1038   0.981   .     S
O1039  H1040   0.981   .     S
C1041  O1080   1.305   .     A
C1041  O1077   1.298   .     A
C1041  C1050   1.456   .     S
C1042  O1079   1.305   .     A
C1042  O1078   1.298   .     A
C1042  C1049   1.456   .     S
C1043  C1068   1.403   .     A
C1043  H1073   1.082   .     S
C1044  H1074   1.082   .     S
C1044  C1067   1.403   .     A
C1044  C350    1.390   1_556 S
C1045  O1105   1.382   .     S
C1045  C1050   1.412   .     A
C1046  C1049   1.412   .     A
C1046  O1107   1.382   .     S
C1046  C1128   1.387   .     S
C1047  C1049   1.412   .     A
C1047  O1109   1.373   .     S
C1047  C1125   1.387   .     S
C1048  O1111   1.373   .     S
C1048  C1050   1.412   .     A
C1051  O1113   1.375   .     S
C1051  N1076   1.379   .     A
C1052  N1075   1.379   .     A
C1052  O1115   1.375   .     S
C1052  C1293   1.414   .     S
C1053  O1117   1.374   .     S
C1053  N1076   1.378   .     A
C1054  N1075   1.378   .     A
C1054  O1119   1.374   .     S
C1054  C1291   1.414   .     S
C1055  O1084   1.299   .     A
C1055  C1060   1.454   .     S
C1055  O1081   1.300   .     A
C1056  O1082   1.300   .     A
C1056  O1083   1.299   .     A
C1056  C1059   1.454   .     S
C1057  C1085   1.491   .     S
C1057  C1067   1.409   .     A
C1057  C1059   1.407   .     A
C1058  C1068   1.409   .     A
C1058  C1060   1.407   .     A
C1058  C1089   1.491   .     S
C1059  C1061   1.414   .     A
C1060  C1062   1.414   .     A
C1061  C1063   1.413   .     A
C1061  O1093   1.387   .     S
C1062  C1064   1.413   .     A
C1062  O1095   1.387   .     S
C1063  C1069   1.421   .     A
C1063  C1065   1.423   .     A
C1064  C1066   1.423   .     A
C1064  C1070   1.421   .     A
C1065  C1067   1.415   .     A
C1065  C346    1.418   1_556 S
C1066  C1068   1.415   .     A
C1069  C1097   1.485   .     S
C1069  C323    1.390   1_556 S
C1070  C1101   1.485   .     S
Cu1071 O1083   1.967   .     S
Cu1071 Cu1072  2.711   .     S
Cu1071 O1077   1.970   .     S
Cu1071 O1081   1.968   .     S
Cu1071 N1075   2.038   .     S
Cu1071 O1079   1.961   .     S
Cu1072 O1078   1.970   .     S
Cu1072 O1084   1.967   .     S
Cu1072 N1076   2.038   .     S
Cu1072 O1080   1.961   .     S
Cu1072 O1082   1.968   .     S
C1085  O1087   1.398   .     S
C1085  O1086   1.223   .     D
O1087  H1088   1.013   .     S
C1089  O1091   1.398   .     S
C1089  O1090   1.223   .     D
O1091  H1092   1.013   .     S
O1093  H1094   0.986   .     S
O1095  H1096   0.986   .     S
C1097  O1099   1.398   .     S
C1097  O1098   1.223   .     D
H1100  O1179   1.014   .     S
C1101  O1103   1.398   .     S
C1101  O1102   1.223   .     D
O1103  H1184   1.014   .     S
O1105  H1106   0.990   .     S
O1107  H1108   0.990   .     S
O1109  H1110   0.991   .     S
O1111  H1112   0.991   .     S
O1113  H1114   0.981   .     S
O1115  H1116   0.981   .     S
O1117  H1118   0.981   .     S
O1119  H1120   0.981   .     S
C1121  O1160   1.305   .     A
C1121  O1157   1.298   .     A
C1121  C1130   1.456   .     S
C1122  O1159   1.305   .     A
C1122  O1158   1.298   .     A
C1122  C1129   1.456   .     S
C1123  C1148   1.403   .     A
C1123  H1153   1.082   .     S
C1124  H1154   1.082   .     S
C1124  C1147   1.403   .     A
C1124  C430    1.390   1_556 S
C1125  O1185   1.382   .     S
C1125  C1130   1.412   .     A
C1126  C1129   1.412   .     A
C1126  O1187   1.382   .     S
C1126  C968    1.387   1_655 S
C1127  C1129   1.412   .     A
C1127  O1189   1.373   .     S
C1127  C965    1.387   1_655 S
C1128  O1191   1.373   .     S
C1128  C1130   1.412   .     A
C1131  O1193   1.375   .     S
C1131  N1156   1.379   .     A
C1132  N1155   1.379   .     A
C1132  O1195   1.375   .     S
C1132  C1373   1.414   .     S
C1133  O1197   1.374   .     S
C1133  N1156   1.378   .     A
C1134  N1155   1.378   .     A
C1134  O1199   1.374   .     S
C1134  C1371   1.414   .     S
C1135  O1164   1.299   .     A
C1135  C1140   1.454   .     S
C1135  O1161   1.300   .     A
C1136  O1162   1.300   .     A
C1136  O1163   1.299   .     A
C1136  C1139   1.454   .     S
C1137  C1165   1.491   .     S
C1137  C1147   1.409   .     A
C1137  C1139   1.407   .     A
C1138  C1148   1.409   .     A
C1138  C1140   1.407   .     A
C1138  C1169   1.491   .     S
C1139  C1141   1.414   .     A
C1140  C1142   1.414   .     A
C1141  C1143   1.413   .     A
C1141  O1173   1.387   .     S
C1142  C1144   1.413   .     A
C1142  O1175   1.387   .     S
C1143  C1149   1.421   .     A
C1143  C1145   1.423   .     A
C1144  C1146   1.423   .     A
C1144  C1150   1.421   .     A
C1145  C1147   1.415   .     A
C1145  C426    1.418   1_556 S
C1146  C1148   1.415   .     A
C1149  C1177   1.485   .     S
C1149  C403    1.390   1_556 S
C1150  C1181   1.485   .     S
Cu1151 O1163   1.967   .     S
Cu1151 Cu1152  2.711   .     S
Cu1151 O1157   1.970   .     S
Cu1151 O1161   1.968   .     S
Cu1151 N1155   2.038   .     S
Cu1151 O1159   1.961   .     S
Cu1152 O1158   1.970   .     S
Cu1152 O1164   1.967   .     S
Cu1152 N1156   2.038   .     S
Cu1152 O1160   1.961   .     S
Cu1152 O1162   1.968   .     S
C1165  O1167   1.398   .     S
C1165  O1166   1.223   .     D
O1167  H1168   1.013   .     S
C1169  O1171   1.398   .     S
C1169  O1170   1.223   .     D
O1171  H1172   1.013   .     S
O1173  H1174   0.986   .     S
O1175  H1176   0.986   .     S
C1177  O1179   1.398   .     S
C1177  O1178   1.223   .     D
H1180  O1019   1.014   1_655 S
C1181  O1183   1.398   .     S
C1181  O1182   1.223   .     D
O1183  H1024   1.014   1_655 S
O1185  H1186   0.990   .     S
O1187  H1188   0.990   .     S
O1189  H1190   0.991   .     S
O1191  H1192   0.991   .     S
O1193  H1194   0.981   .     S
O1195  H1196   0.981   .     S
O1197  H1198   0.981   .     S
O1199  H1200   0.981   .     S
C1201  O1240   1.305   .     A
C1201  O1237   1.298   .     A
C1201  C1210   1.456   .     S
C1202  O1239   1.305   .     A
C1202  O1238   1.298   .     A
C1202  C1209   1.456   .     S
C1203  C1228   1.403   .     A
C1203  H1233   1.082   .     S
C1204  H1234   1.082   .     S
C1204  C1227   1.403   .     A
C1204  C510    1.390   1_556 S
C1205  O1265   1.382   .     S
C1205  C1210   1.412   .     A
C1205  C1367   1.387   1_455 S
C1206  C1209   1.412   .     A
C1206  O1267   1.382   .     S
C1206  C1288   1.387   .     S
C1207  C1209   1.412   .     A
C1207  O1269   1.373   .     S
C1207  C1285   1.387   .     S
C1208  O1271   1.373   .     S
C1208  C1210   1.412   .     A
C1208  C1366   1.387   1_455 S
C1211  O1273   1.375   .     S
C1211  N1236   1.379   .     A
C1212  N1235   1.379   .     A
C1212  O1275   1.375   .     S
C1212  C733    1.414   1_565 S
C1213  O1277   1.374   .     S
C1213  N1236   1.378   .     A
C1214  N1235   1.378   .     A
C1214  O1279   1.374   .     S
C1214  C731    1.414   1_565 S
C1215  O1244   1.299   .     A
C1215  C1220   1.454   .     S
C1215  O1241   1.300   .     A
C1216  O1242   1.300   .     A
C1216  O1243   1.299   .     A
C1216  C1219   1.454   .     S
C1217  C1245   1.491   .     S
C1217  C1227   1.409   .     A
C1217  C1219   1.407   .     A
C1218  C1228   1.409   .     A
C1218  C1220   1.407   .     A
C1218  C1249   1.491   .     S
C1219  C1221   1.414   .     A
C1220  C1222   1.414   .     A
C1221  C1223   1.413   .     A
C1221  O1253   1.387   .     S
C1222  C1224   1.413   .     A
C1222  O1255   1.387   .     S
C1223  C1229   1.421   .     A
C1223  C1225   1.423   .     A
C1224  C1226   1.423   .     A
C1224  C1230   1.421   .     A
C1225  C1227   1.415   .     A
C1225  C506    1.418   1_556 S
C1226  C1228   1.415   .     A
C1229  C1257   1.485   .     S
C1229  C483    1.390   1_556 S
C1230  C1261   1.485   .     S
Cu1231 O1243   1.967   .     S
Cu1231 Cu1232  2.711   .     S
Cu1231 O1237   1.970   .     S
Cu1231 O1241   1.968   .     S
Cu1231 N1235   2.038   .     S
Cu1231 O1239   1.961   .     S
Cu1232 O1238   1.970   .     S
Cu1232 O1244   1.967   .     S
Cu1232 N1236   2.038   .     S
Cu1232 O1240   1.961   .     S
Cu1232 O1242   1.968   .     S
C1245  O1247   1.398   .     S
C1245  O1246   1.223   .     D
O1247  H1248   1.013   .     S
C1249  O1251   1.398   .     S
C1249  O1250   1.223   .     D
O1251  H1252   1.013   .     S
O1253  H1254   0.986   .     S
O1255  H1256   0.986   .     S
C1257  O1259   1.398   .     S
C1257  O1258   1.223   .     D
O1259  H1420   1.014   1_455 S
H1260  O1339   1.014   .     S
C1261  O1263   1.398   .     S
C1261  O1262   1.223   .     D
O1263  H1344   1.014   .     S
H1264  O1423   1.014   1_455 S
O1265  H1266   0.990   .     S
O1267  H1268   0.990   .     S
O1269  H1270   0.991   .     S
O1271  H1272   0.991   .     S
O1273  H1274   0.981   .     S
O1275  H1276   0.981   .     S
O1277  H1278   0.981   .     S
O1279  H1280   0.981   .     S
C1281  O1320   1.305   .     A
C1281  O1317   1.298   .     A
C1281  C1290   1.456   .     S
C1282  O1319   1.305   .     A
C1282  O1318   1.298   .     A
C1282  C1289   1.456   .     S
C1283  C1308   1.403   .     A
C1283  H1313   1.082   .     S
C1284  H1314   1.082   .     S
C1284  C1307   1.403   .     A
C1284  C590    1.390   1_556 S
C1285  O1345   1.382   .     S
C1285  C1290   1.412   .     A
C1286  C1289   1.412   .     A
C1286  O1347   1.382   .     S
C1286  C1368   1.387   .     S
C1287  C1289   1.412   .     A
C1287  O1349   1.373   .     S
C1287  C1365   1.387   .     S
C1288  O1351   1.373   .     S
C1288  C1290   1.412   .     A
C1291  O1353   1.375   .     S
C1291  N1316   1.379   .     A
C1292  N1315   1.379   .     A
C1292  O1355   1.375   .     S
C1292  C813    1.414   1_565 S
C1293  O1357   1.374   .     S
C1293  N1316   1.378   .     A
C1294  N1315   1.378   .     A
C1294  O1359   1.374   .     S
C1294  C811    1.414   1_565 S
C1295  O1324   1.299   .     A
C1295  C1300   1.454   .     S
C1295  O1321   1.300   .     A
C1296  O1322   1.300   .     A
C1296  O1323   1.299   .     A
C1296  C1299   1.454   .     S
C1297  C1325   1.491   .     S
C1297  C1307   1.409   .     A
C1297  C1299   1.407   .     A
C1298  C1308   1.409   .     A
C1298  C1300   1.407   .     A
C1298  C1329   1.491   .     S
C1299  C1301   1.414   .     A
C1300  C1302   1.414   .     A
C1301  C1303   1.413   .     A
C1301  O1333   1.387   .     S
C1302  C1304   1.413   .     A
C1302  O1335   1.387   .     S
C1303  C1309   1.421   .     A
C1303  C1305   1.423   .     A
C1304  C1306   1.423   .     A
C1304  C1310   1.421   .     A
C1305  C1307   1.415   .     A
C1305  C586    1.418   1_556 S
C1306  C1308   1.415   .     A
C1309  C1337   1.485   .     S
C1309  C563    1.390   1_556 S
C1310  C1341   1.485   .     S
Cu1311 O1323   1.967   .     S
Cu1311 Cu1312  2.711   .     S
Cu1311 O1317   1.970   .     S
Cu1311 O1321   1.968   .     S
Cu1311 N1315   2.038   .     S
Cu1311 O1319   1.961   .     S
Cu1312 O1318   1.970   .     S
Cu1312 O1324   1.967   .     S
Cu1312 N1316   2.038   .     S
Cu1312 O1320   1.961   .     S
Cu1312 O1322   1.968   .     S
C1325  O1327   1.398   .     S
C1325  O1326   1.223   .     D
O1327  H1328   1.013   .     S
C1329  O1331   1.398   .     S
C1329  O1330   1.223   .     D
O1331  H1332   1.013   .     S
O1333  H1334   0.986   .     S
O1335  H1336   0.986   .     S
C1337  O1339   1.398   .     S
C1337  O1338   1.223   .     D
H1340  O1419   1.014   .     S
C1341  O1343   1.398   .     S
C1341  O1342   1.223   .     D
O1343  H1424   1.014   .     S
O1345  H1346   0.990   .     S
O1347  H1348   0.990   .     S
O1349  H1350   0.991   .     S
O1351  H1352   0.991   .     S
O1353  H1354   0.981   .     S
O1355  H1356   0.981   .     S
O1357  H1358   0.981   .     S
O1359  H1360   0.981   .     S
C1361  O1400   1.305   .     A
C1361  O1397   1.298   .     A
C1361  C1370   1.456   .     S
C1362  O1399   1.305   .     A
C1362  O1398   1.298   .     A
C1362  C1369   1.456   .     S
C1363  C1388   1.403   .     A
C1363  H1393   1.082   .     S
C1364  H1394   1.082   .     S
C1364  C1387   1.403   .     A
C1364  C670    1.390   1_556 S
C1365  O1425   1.382   .     S
C1365  C1370   1.412   .     A
C1366  C1369   1.412   .     A
C1366  O1427   1.382   .     S
C1366  C1208   1.387   1_655 S
C1367  C1369   1.412   .     A
C1367  O1429   1.373   .     S
C1367  C1205   1.387   1_655 S
C1368  O1431   1.373   .     S
C1368  C1370   1.412   .     A
C1371  O1433   1.375   .     S
C1371  N1396   1.379   .     A
C1372  N1395   1.379   .     A
C1372  O1435   1.375   .     S
C1372  C893    1.414   1_565 S
C1373  O1437   1.374   .     S
C1373  N1396   1.378   .     A
C1374  N1395   1.378   .     A
C1374  O1439   1.374   .     S
C1374  C891    1.414   1_565 S
C1375  O1404   1.299   .     A
C1375  C1380   1.454   .     S
C1375  O1401   1.300   .     A
C1376  O1402   1.300   .     A
C1376  O1403   1.299   .     A
C1376  C1379   1.454   .     S
C1377  C1405   1.491   .     S
C1377  C1387   1.409   .     A
C1377  C1379   1.407   .     A
C1378  C1388   1.409   .     A
C1378  C1380   1.407   .     A
C1378  C1409   1.491   .     S
C1379  C1381   1.414   .     A
C1380  C1382   1.414   .     A
C1381  C1383   1.413   .     A
C1381  O1413   1.387   .     S
C1382  C1384   1.413   .     A
C1382  O1415   1.387   .     S
C1383  C1389   1.421   .     A
C1383  C1385   1.423   .     A
C1384  C1386   1.423   .     A
C1384  C1390   1.421   .     A
C1385  C1387   1.415   .     A
C1385  C666    1.418   1_556 S
C1386  C1388   1.415   .     A
C1389  C1417   1.485   .     S
C1389  C643    1.390   1_556 S
C1390  C1421   1.485   .     S
Cu1391 O1403   1.967   .     S
Cu1391 Cu1392  2.711   .     S
Cu1391 O1397   1.970   .     S
Cu1391 O1401   1.968   .     S
Cu1391 N1395   2.038   .     S
Cu1391 O1399   1.961   .     S
Cu1392 O1398   1.970   .     S
Cu1392 O1404   1.967   .     S
Cu1392 N1396   2.038   .     S
Cu1392 O1400   1.961   .     S
Cu1392 O1402   1.968   .     S
C1405  O1407   1.398   .     S
C1405  O1406   1.223   .     D
O1407  H1408   1.013   .     S
C1409  O1411   1.398   .     S
C1409  O1410   1.223   .     D
O1411  H1412   1.013   .     S
O1413  H1414   0.986   .     S
O1415  H1416   0.986   .     S
C1417  O1419   1.398   .     S
C1417  O1418   1.223   .     D
H1420  O1259   1.014   1_655 S
C1421  O1423   1.398   .     S
C1421  O1422   1.223   .     D
O1423  H1264   1.014   1_655 S
O1425  H1426   0.990   .     S
O1427  H1428   0.990   .     S
O1429  H1430   0.991   .     S
O1431  H1432   0.991   .     S
O1433  H1434   0.981   .     S
O1435  H1436   0.981   .     S
O1437  H1438   0.981   .     S
O1439  H1440   0.981   .     S
