data_str_m2_o1_o18_pcu_sym.68
_audit_creation_date              2020-01-03
_audit_creation_method            'Materials Studio'
_symmetry_space_group_name_H-M    'P1'
_symmetry_Int_Tables_number       1
_symmetry_cell_setting            triclinic
loop_
_symmetry_equiv_pos_as_xyz
  x,y,z
_cell_length_a                    28.7981
_cell_length_b                    32.4739
_cell_length_c                    31.1182
_cell_angle_alpha                 88.3715
_cell_angle_beta                  73.9831
_cell_angle_gamma                 90.6970
loop_
_atom_site_label
_atom_site_type_symbol
_atom_site_fract_x
_atom_site_fract_y
_atom_site_fract_z
_atom_site_U_iso_or_equiv
_atom_site_adp_type
_atom_site_occupancy
C1     C     0.00058   0.08761   0.24799   0.00000  Uiso   1.00
C2     C     0.04055   0.02111   0.22132   0.00000  Uiso   1.00
C3     C     0.33230   0.29038   0.25253   0.00000  Uiso   1.00
C4     C     0.00103   0.04295   0.24747   0.00000  Uiso   1.00
C5     C     0.18297   0.13633   0.27335   0.00000  Uiso   1.00
C6     C     0.15037   0.19700   0.22664   0.00000  Uiso   1.00
C7     C     0.13420   0.13620   0.27156   0.00000  Uiso   1.00
C8     C     0.19914   0.19713   0.22844   0.00000  Uiso   1.00
C9     C     0.30604   0.16407   0.33593   0.00000  Uiso   1.00
C10    C     0.02729   0.16926   0.16407   0.00000  Uiso   1.00
C11    C     0.29067   0.15636   0.38486   0.00000  Uiso   1.00
C12    C     0.33276   0.24573   0.25201   0.00000  Uiso   1.00
C13    C     0.04267   0.17697   0.11514   0.00000  Uiso   1.00
C14    C     0.29786   0.12476   0.45409   0.00000  Uiso   1.00
C15    C     0.03547   0.20858   0.04591   0.00000  Uiso   1.00
C16    C     0.31629   0.13084   0.40784   0.00000  Uiso   1.00
C17    C     0.01705   0.20249   0.09216   0.00000  Uiso   1.00
C18    C     0.24606   0.17194   0.40841   0.00000  Uiso   1.00
C19    C     0.08728   0.16139   0.09159   0.00000  Uiso   1.00
C20    C     0.22367   0.16011   0.45331   0.00000  Uiso   1.00
C21    C     0.10966   0.17322   0.04669   0.00000  Uiso   1.00
C22    C     0.25231   0.13921   0.47666   0.00000  Uiso   1.00
C23    C     0.19149   0.14807   0.04713   0.00000  Uiso   1.00
C24    C     0.08102   0.19412   0.02334   0.00000  Uiso   1.00
C25    C     0.17489   0.16991   0.47611   0.00000  Uiso   1.00
C26    C     0.15844   0.16343   0.02389   0.00000  Uiso   1.00
C27    C     0.30597   0.22619   0.11535   0.00000  Uiso   1.00
C28    C     0.31984   0.26298   0.13905   0.00000  Uiso   1.00
C29    C     0.02736   0.10715   0.38465   0.00000  Uiso   1.00
C30    C     0.01349   0.07035   0.36095   0.00000  Uiso   1.00
C31    C     0.19006   0.11677   0.11598   0.00000  Uiso   1.00
C32    C     0.23248   0.12194   0.13591   0.00000  Uiso   1.00
C33    C     0.14327   0.21656   0.38402   0.00000  Uiso   1.00
C34    C     0.14185   0.18526   0.45287   0.00000  Uiso   1.00
C35    C     0.10085   0.21139   0.36409   0.00000  Uiso   1.00
C36    C     0.24796   0.29204   0.31000   0.00000  Uiso   1.00
C37    C     0.20511   0.29605   0.29017   0.00000  Uiso   1.00
C38    C     0.08538   0.04129   0.19000   0.00000  Uiso   1.00
C39    C     0.12822   0.03729   0.20984   0.00000  Uiso   1.00
C40    C     0.19714   0.10098   0.29984   0.00000  Uiso   1.00
C41    C     0.15891   0.08765   0.34310   0.00000  Uiso   1.00
C42    C     0.13619   0.23235   0.20016   0.00000  Uiso   1.00
C43    C     0.17442   0.24568   0.15690   0.00000  Uiso   1.00
C44    C     0.23660   0.13427   0.02274   0.00000  Uiso   1.00
C45    C     0.09673   0.19906   0.47726   0.00000  Uiso   1.00
C46    C     0.29485   0.02171   0.27595   0.00000  Uiso   1.00
C47    C     0.03848   0.31163   0.22405   0.00000  Uiso   1.00
C48    C     0.29278   0.31222   0.27868   0.00000  Uiso   1.00
Cu49   Cu    0.04689   0.16667   0.25000   0.00000  Uiso   1.00
Cu50   Cu    0.28645   0.16666   0.25000   0.00000  Uiso   1.00
H51    H     0.26130   0.12176   0.04007   0.00000  Uiso   1.00
H52    H     0.22431   0.22119   0.21175   0.00000  Uiso   1.00
H53    H     0.00827   0.25312   0.16164   0.00000  Uiso   1.00
H54    H     0.00816   0.28584   0.11403   0.00000  Uiso   1.00
H55    H     0.28689   0.27806   0.15906   0.00000  Uiso   1.00
H56    H     0.28737   0.23819   0.09080   0.00000  Uiso   1.00
H57    H     0.27886   0.20606   0.13885   0.00000  Uiso   1.00
H58    H     0.32517   0.04749   0.38597   0.00000  Uiso   1.00
H59    H     0.32506   0.08021   0.33836   0.00000  Uiso   1.00
H60    H     0.04644   0.05527   0.34094   0.00000  Uiso   1.00
H61    H     0.05447   0.12728   0.36114   0.00000  Uiso   1.00
H62    H     0.07203   0.21157   0.45993   0.00000  Uiso   1.00
H63    H     0.04597   0.09514   0.40920   0.00000  Uiso   1.00
H64    H     0.19442   0.08853   0.09575   0.00000  Uiso   1.00
H65    H     0.15722   0.11137   0.14426   0.00000  Uiso   1.00
H66    H     0.22493   0.14687   0.16012   0.00000  Uiso   1.00
H67    H     0.23760   0.09298   0.15372   0.00000  Uiso   1.00
H68    H     0.26644   0.12985   0.10977   0.00000  Uiso   1.00
H69    H     0.17611   0.22196   0.35574   0.00000  Uiso   1.00
H70    H     0.13892   0.24480   0.40425   0.00000  Uiso   1.00
H71    H     0.09573   0.24035   0.34628   0.00000  Uiso   1.00
H72    H     0.06689   0.20348   0.39023   0.00000  Uiso   1.00
H73    H     0.10304   0.13892   0.10892   0.00000  Uiso   1.00
H74    H     0.10840   0.18646   0.33988   0.00000  Uiso   1.00
H75    H     0.21295   0.28094   0.25750   0.00000  Uiso   1.00
H76    H     0.17228   0.28148   0.31312   0.00000  Uiso   1.00
H77    H     0.19734   0.32896   0.28514   0.00000  Uiso   1.00
H78    H     0.25318   0.25924   0.31782   0.00000  Uiso   1.00
H79    H     0.23925   0.30745   0.34265   0.00000  Uiso   1.00
H80    H     0.13599   0.00437   0.21486   0.00000  Uiso   1.00
H81    H     0.16105   0.05186   0.18689   0.00000  Uiso   1.00
H82    H     0.12038   0.05239   0.24251   0.00000  Uiso   1.00
H83    H     0.09409   0.02589   0.15735   0.00000  Uiso   1.00
H84    H     0.23030   0.19442   0.39108   0.00000  Uiso   1.00
H85    H     0.08015   0.07410   0.18218   0.00000  Uiso   1.00
H86    H     0.14250   0.11486   0.36176   0.00000  Uiso   1.00
H87    H     0.13047   0.06799   0.33580   0.00000  Uiso   1.00
H88    H     0.17596   0.06891   0.36481   0.00000  Uiso   1.00
H89    H     0.20546   0.07414   0.27791   0.00000  Uiso   1.00
H90    H     0.22870   0.10913   0.31101   0.00000  Uiso   1.00
H91    H     0.20286   0.26534   0.16420   0.00000  Uiso   1.00
H92    H     0.19083   0.21847   0.13824   0.00000  Uiso   1.00
H93    H     0.15737   0.26443   0.13519   0.00000  Uiso   1.00
H94    H     0.10464   0.22420   0.18898   0.00000  Uiso   1.00
H95    H     0.31826   0.10708   0.47249   0.00000  Uiso   1.00
H96    H     0.12787   0.25919   0.22209   0.00000  Uiso   1.00
H97    H     0.01507   0.22625   0.02751   0.00000  Uiso   1.00
H98    H     0.26587   0.03862   0.29742   0.00000  Uiso   1.00
H99    H     0.06747   0.29472   0.20258   0.00000  Uiso   1.00
H100   H     0.10902   0.11214   0.28825   0.00000  Uiso   1.00
N101   N     0.11736   0.16668   0.24999   0.00000  Uiso   1.00
N102   N     0.21597   0.16666   0.25001   0.00000  Uiso   1.00
O103   O     0.03958   0.10655   0.25000   0.00000  Uiso   1.00
O104   O     0.14998   0.17981   0.40724   0.00000  Uiso   1.00
O105   O     0.29375   0.22678   0.25000   0.00000  Uiso   1.00
O106   O     0.29372   0.10654   0.25000   0.00000  Uiso   1.00
O107   O     0.03961   0.22679   0.24999   0.00000  Uiso   1.00
O108   O     0.01852   0.16668   0.31491   0.00000  Uiso   1.00
O109   O     0.31481   0.16666   0.18508   0.00000  Uiso   1.00
O110   O     0.27267   0.16667   0.31492   0.00000  Uiso   1.00
O111   O     0.06067   0.16667   0.18508   0.00000  Uiso   1.00
O112   O     0.18336   0.15352   0.09276   0.00000  Uiso   1.00
C113   C     0.33391   0.08761   0.24799   0.00000  Uiso   1.00
C114   C     0.37389   0.02111   0.22132   0.00000  Uiso   1.00
C115   C     0.66564   0.29038   0.25253   0.00000  Uiso   1.00
C116   C     0.33436   0.04295   0.24747   0.00000  Uiso   1.00
C117   C     0.51630   0.13633   0.27335   0.00000  Uiso   1.00
C118   C     0.48370   0.19700   0.22664   0.00000  Uiso   1.00
C119   C     0.46753   0.13620   0.27156   0.00000  Uiso   1.00
C120   C     0.53247   0.19713   0.22844   0.00000  Uiso   1.00
C121   C     0.63937   0.16407   0.33593   0.00000  Uiso   1.00
C122   C     0.36063   0.16926   0.16407   0.00000  Uiso   1.00
C123   C     0.62400   0.15636   0.38486   0.00000  Uiso   1.00
C124   C     0.66609   0.24573   0.25201   0.00000  Uiso   1.00
C125   C     0.37600   0.17697   0.11514   0.00000  Uiso   1.00
C126   C     0.63119   0.12476   0.45409   0.00000  Uiso   1.00
C127   C     0.36881   0.20858   0.04591   0.00000  Uiso   1.00
C128   C     0.64962   0.13084   0.40784   0.00000  Uiso   1.00
C129   C     0.35038   0.20249   0.09216   0.00000  Uiso   1.00
C130   C     0.57939   0.17194   0.40841   0.00000  Uiso   1.00
C131   C     0.42061   0.16139   0.09159   0.00000  Uiso   1.00
C132   C     0.55700   0.16011   0.45331   0.00000  Uiso   1.00
C133   C     0.44300   0.17322   0.04669   0.00000  Uiso   1.00
C134   C     0.58564   0.13921   0.47666   0.00000  Uiso   1.00
C135   C     0.52482   0.14807   0.04713   0.00000  Uiso   1.00
C136   C     0.41436   0.19412   0.02334   0.00000  Uiso   1.00
C137   C     0.50823   0.16991   0.47611   0.00000  Uiso   1.00
C138   C     0.49177   0.16343   0.02389   0.00000  Uiso   1.00
C139   C     0.63930   0.22619   0.11535   0.00000  Uiso   1.00
C140   C     0.65317   0.26298   0.13905   0.00000  Uiso   1.00
C141   C     0.36069   0.10715   0.38465   0.00000  Uiso   1.00
C142   C     0.34683   0.07035   0.36095   0.00000  Uiso   1.00
C143   C     0.52340   0.11677   0.11598   0.00000  Uiso   1.00
C144   C     0.56581   0.12194   0.13591   0.00000  Uiso   1.00
C145   C     0.47660   0.21656   0.38402   0.00000  Uiso   1.00
C146   C     0.47518   0.18526   0.45287   0.00000  Uiso   1.00
C147   C     0.43419   0.21139   0.36409   0.00000  Uiso   1.00
C148   C     0.58129   0.29204   0.31000   0.00000  Uiso   1.00
C149   C     0.53844   0.29605   0.29017   0.00000  Uiso   1.00
C150   C     0.41871   0.04129   0.19000   0.00000  Uiso   1.00
C151   C     0.46156   0.03729   0.20984   0.00000  Uiso   1.00
C152   C     0.53048   0.10098   0.29984   0.00000  Uiso   1.00
C153   C     0.49224   0.08765   0.34310   0.00000  Uiso   1.00
C154   C     0.46952   0.23235   0.20016   0.00000  Uiso   1.00
C155   C     0.50776   0.24568   0.15690   0.00000  Uiso   1.00
C156   C     0.56994   0.13427   0.02274   0.00000  Uiso   1.00
C157   C     0.43006   0.19906   0.47726   0.00000  Uiso   1.00
C158   C     0.62819   0.02171   0.27595   0.00000  Uiso   1.00
C159   C     0.37181   0.31163   0.22405   0.00000  Uiso   1.00
C160   C     0.62611   0.31222   0.27868   0.00000  Uiso   1.00
Cu161  Cu    0.38022   0.16667   0.25000   0.00000  Uiso   1.00
Cu162  Cu    0.61978   0.16666   0.25000   0.00000  Uiso   1.00
H163   H     0.59463   0.12176   0.04007   0.00000  Uiso   1.00
H164   H     0.55764   0.22119   0.21175   0.00000  Uiso   1.00
H165   H     0.34160   0.25312   0.16164   0.00000  Uiso   1.00
H166   H     0.34149   0.28584   0.11403   0.00000  Uiso   1.00
H167   H     0.62023   0.27806   0.15906   0.00000  Uiso   1.00
H168   H     0.62070   0.23819   0.09080   0.00000  Uiso   1.00
H169   H     0.61219   0.20606   0.13885   0.00000  Uiso   1.00
H170   H     0.65851   0.04749   0.38597   0.00000  Uiso   1.00
H171   H     0.65840   0.08021   0.33836   0.00000  Uiso   1.00
H172   H     0.37977   0.05527   0.34094   0.00000  Uiso   1.00
H173   H     0.38781   0.12728   0.36114   0.00000  Uiso   1.00
H174   H     0.40537   0.21157   0.45993   0.00000  Uiso   1.00
H175   H     0.37930   0.09514   0.40920   0.00000  Uiso   1.00
H176   H     0.52775   0.08853   0.09575   0.00000  Uiso   1.00
H177   H     0.49055   0.11137   0.14426   0.00000  Uiso   1.00
H178   H     0.55826   0.14687   0.16012   0.00000  Uiso   1.00
H179   H     0.57093   0.09298   0.15372   0.00000  Uiso   1.00
H180   H     0.59978   0.12985   0.10977   0.00000  Uiso   1.00
H181   H     0.50945   0.22196   0.35574   0.00000  Uiso   1.00
H182   H     0.47225   0.24480   0.40425   0.00000  Uiso   1.00
H183   H     0.42907   0.24035   0.34628   0.00000  Uiso   1.00
H184   H     0.40022   0.20348   0.39023   0.00000  Uiso   1.00
H185   H     0.43637   0.13892   0.10892   0.00000  Uiso   1.00
H186   H     0.44173   0.18646   0.33988   0.00000  Uiso   1.00
H187   H     0.54628   0.28094   0.25750   0.00000  Uiso   1.00
H188   H     0.50562   0.28148   0.31312   0.00000  Uiso   1.00
H189   H     0.53068   0.32896   0.28514   0.00000  Uiso   1.00
H190   H     0.58651   0.25924   0.31782   0.00000  Uiso   1.00
H191   H     0.57258   0.30745   0.34265   0.00000  Uiso   1.00
H192   H     0.46933   0.00437   0.21486   0.00000  Uiso   1.00
H193   H     0.49438   0.05186   0.18689   0.00000  Uiso   1.00
H194   H     0.45371   0.05239   0.24251   0.00000  Uiso   1.00
H195   H     0.42742   0.02589   0.15735   0.00000  Uiso   1.00
H196   H     0.56363   0.19442   0.39108   0.00000  Uiso   1.00
H197   H     0.41349   0.07410   0.18218   0.00000  Uiso   1.00
H198   H     0.47583   0.11486   0.36176   0.00000  Uiso   1.00
H199   H     0.46380   0.06799   0.33580   0.00000  Uiso   1.00
H200   H     0.50929   0.06891   0.36481   0.00000  Uiso   1.00
H201   H     0.53879   0.07414   0.27791   0.00000  Uiso   1.00
H202   H     0.56203   0.10913   0.31101   0.00000  Uiso   1.00
H203   H     0.53620   0.26534   0.16420   0.00000  Uiso   1.00
H204   H     0.52417   0.21847   0.13824   0.00000  Uiso   1.00
H205   H     0.49071   0.26443   0.13519   0.00000  Uiso   1.00
H206   H     0.43797   0.22420   0.18898   0.00000  Uiso   1.00
H207   H     0.65160   0.10708   0.47249   0.00000  Uiso   1.00
H208   H     0.46121   0.25919   0.22209   0.00000  Uiso   1.00
H209   H     0.34840   0.22625   0.02751   0.00000  Uiso   1.00
H210   H     0.59920   0.03862   0.29742   0.00000  Uiso   1.00
H211   H     0.40080   0.29472   0.20258   0.00000  Uiso   1.00
H212   H     0.44236   0.11214   0.28825   0.00000  Uiso   1.00
N213   N     0.45069   0.16668   0.24999   0.00000  Uiso   1.00
N214   N     0.54931   0.16666   0.25001   0.00000  Uiso   1.00
O215   O     0.37291   0.10655   0.25000   0.00000  Uiso   1.00
O216   O     0.48331   0.17981   0.40724   0.00000  Uiso   1.00
O217   O     0.62709   0.22678   0.25000   0.00000  Uiso   1.00
O218   O     0.62706   0.10654   0.25000   0.00000  Uiso   1.00
O219   O     0.37294   0.22679   0.24999   0.00000  Uiso   1.00
O220   O     0.35186   0.16668   0.31491   0.00000  Uiso   1.00
O221   O     0.64814   0.16666   0.18508   0.00000  Uiso   1.00
O222   O     0.60600   0.16667   0.31492   0.00000  Uiso   1.00
O223   O     0.39400   0.16667   0.18508   0.00000  Uiso   1.00
O224   O     0.51669   0.15352   0.09276   0.00000  Uiso   1.00
C225   C     0.66724   0.08761   0.24799   0.00000  Uiso   1.00
C226   C     0.70722   0.02111   0.22132   0.00000  Uiso   1.00
C227   C     0.99897   0.29038   0.25253   0.00000  Uiso   1.00
C228   C     0.66770   0.04295   0.24747   0.00000  Uiso   1.00
C229   C     0.84963   0.13633   0.27335   0.00000  Uiso   1.00
C230   C     0.81703   0.19700   0.22664   0.00000  Uiso   1.00
C231   C     0.80086   0.13620   0.27156   0.00000  Uiso   1.00
C232   C     0.86580   0.19713   0.22844   0.00000  Uiso   1.00
C233   C     0.97270   0.16407   0.33593   0.00000  Uiso   1.00
C234   C     0.69396   0.16926   0.16407   0.00000  Uiso   1.00
C235   C     0.95733   0.15636   0.38486   0.00000  Uiso   1.00
C236   C     0.99942   0.24573   0.25201   0.00000  Uiso   1.00
C237   C     0.70933   0.17697   0.11514   0.00000  Uiso   1.00
C238   C     0.96453   0.12476   0.45409   0.00000  Uiso   1.00
C239   C     0.70214   0.20858   0.04591   0.00000  Uiso   1.00
C240   C     0.98295   0.13084   0.40784   0.00000  Uiso   1.00
C241   C     0.68371   0.20249   0.09216   0.00000  Uiso   1.00
C242   C     0.91272   0.17194   0.40841   0.00000  Uiso   1.00
C243   C     0.75394   0.16139   0.09159   0.00000  Uiso   1.00
C244   C     0.89034   0.16011   0.45331   0.00000  Uiso   1.00
C245   C     0.77633   0.17322   0.04669   0.00000  Uiso   1.00
C246   C     0.91898   0.13921   0.47666   0.00000  Uiso   1.00
C247   C     0.85815   0.14807   0.04713   0.00000  Uiso   1.00
C248   C     0.74769   0.19412   0.02334   0.00000  Uiso   1.00
C249   C     0.84156   0.16991   0.47611   0.00000  Uiso   1.00
C250   C     0.82511   0.16343   0.02389   0.00000  Uiso   1.00
C251   C     0.97264   0.22619   0.11535   0.00000  Uiso   1.00
C252   C     0.98650   0.26298   0.13905   0.00000  Uiso   1.00
C253   C     0.69403   0.10715   0.38465   0.00000  Uiso   1.00
C254   C     0.68016   0.07035   0.36095   0.00000  Uiso   1.00
C255   C     0.85673   0.11677   0.11598   0.00000  Uiso   1.00
C256   C     0.89915   0.12194   0.13591   0.00000  Uiso   1.00
C257   C     0.80994   0.21656   0.38402   0.00000  Uiso   1.00
C258   C     0.80851   0.18526   0.45287   0.00000  Uiso   1.00
C259   C     0.76752   0.21139   0.36409   0.00000  Uiso   1.00
C260   C     0.91462   0.29204   0.31000   0.00000  Uiso   1.00
C261   C     0.87177   0.29605   0.29017   0.00000  Uiso   1.00
C262   C     0.75204   0.04129   0.19000   0.00000  Uiso   1.00
C263   C     0.79489   0.03729   0.20984   0.00000  Uiso   1.00
C264   C     0.86381   0.10098   0.29984   0.00000  Uiso   1.00
C265   C     0.82558   0.08765   0.34310   0.00000  Uiso   1.00
C266   C     0.80285   0.23235   0.20016   0.00000  Uiso   1.00
C267   C     0.84109   0.24568   0.15690   0.00000  Uiso   1.00
C268   C     0.90327   0.13427   0.02274   0.00000  Uiso   1.00
C269   C     0.76340   0.19906   0.47726   0.00000  Uiso   1.00
C270   C     0.96152   0.02171   0.27595   0.00000  Uiso   1.00
C271   C     0.70515   0.31163   0.22405   0.00000  Uiso   1.00
C272   C     0.95945   0.31222   0.27868   0.00000  Uiso   1.00
Cu273  Cu    0.71355   0.16667   0.25000   0.00000  Uiso   1.00
Cu274  Cu    0.95311   0.16666   0.25000   0.00000  Uiso   1.00
H275   H     0.92797   0.12176   0.04007   0.00000  Uiso   1.00
H276   H     0.89098   0.22119   0.21175   0.00000  Uiso   1.00
H277   H     0.67494   0.25312   0.16164   0.00000  Uiso   1.00
H278   H     0.67483   0.28584   0.11403   0.00000  Uiso   1.00
H279   H     0.95356   0.27806   0.15906   0.00000  Uiso   1.00
H280   H     0.95403   0.23819   0.09080   0.00000  Uiso   1.00
H281   H     0.94553   0.20606   0.13885   0.00000  Uiso   1.00
H282   H     0.99184   0.04749   0.38597   0.00000  Uiso   1.00
H283   H     0.99173   0.08021   0.33836   0.00000  Uiso   1.00
H284   H     0.71311   0.05527   0.34094   0.00000  Uiso   1.00
H285   H     0.72114   0.12728   0.36114   0.00000  Uiso   1.00
H286   H     0.73870   0.21157   0.45993   0.00000  Uiso   1.00
H287   H     0.71263   0.09514   0.40920   0.00000  Uiso   1.00
H288   H     0.86109   0.08853   0.09575   0.00000  Uiso   1.00
H289   H     0.82389   0.11137   0.14426   0.00000  Uiso   1.00
H290   H     0.89160   0.14687   0.16012   0.00000  Uiso   1.00
H291   H     0.90426   0.09298   0.15372   0.00000  Uiso   1.00
H292   H     0.93311   0.12985   0.10977   0.00000  Uiso   1.00
H293   H     0.84278   0.22196   0.35574   0.00000  Uiso   1.00
H294   H     0.80558   0.24480   0.40425   0.00000  Uiso   1.00
H295   H     0.76240   0.24035   0.34628   0.00000  Uiso   1.00
H296   H     0.73356   0.20348   0.39023   0.00000  Uiso   1.00
H297   H     0.76970   0.13892   0.10892   0.00000  Uiso   1.00
H298   H     0.77507   0.18646   0.33988   0.00000  Uiso   1.00
H299   H     0.87961   0.28094   0.25750   0.00000  Uiso   1.00
H300   H     0.83895   0.28148   0.31312   0.00000  Uiso   1.00
H301   H     0.86401   0.32896   0.28514   0.00000  Uiso   1.00
H302   H     0.91985   0.25924   0.31782   0.00000  Uiso   1.00
H303   H     0.90592   0.30745   0.34265   0.00000  Uiso   1.00
H304   H     0.80266   0.00437   0.21486   0.00000  Uiso   1.00
H305   H     0.82771   0.05186   0.18689   0.00000  Uiso   1.00
H306   H     0.78705   0.05239   0.24251   0.00000  Uiso   1.00
H307   H     0.76075   0.02589   0.15735   0.00000  Uiso   1.00
H308   H     0.89696   0.19442   0.39108   0.00000  Uiso   1.00
H309   H     0.74682   0.07410   0.18218   0.00000  Uiso   1.00
H310   H     0.80916   0.11486   0.36176   0.00000  Uiso   1.00
H311   H     0.79714   0.06799   0.33580   0.00000  Uiso   1.00
H312   H     0.84263   0.06891   0.36481   0.00000  Uiso   1.00
H313   H     0.87213   0.07414   0.27791   0.00000  Uiso   1.00
H314   H     0.89536   0.10913   0.31101   0.00000  Uiso   1.00
H315   H     0.86953   0.26534   0.16420   0.00000  Uiso   1.00
H316   H     0.85750   0.21847   0.13824   0.00000  Uiso   1.00
H317   H     0.82404   0.26443   0.13519   0.00000  Uiso   1.00
H318   H     0.77130   0.22420   0.18898   0.00000  Uiso   1.00
H319   H     0.98493   0.10708   0.47249   0.00000  Uiso   1.00
H320   H     0.79454   0.25919   0.22209   0.00000  Uiso   1.00
H321   H     0.68174   0.22625   0.02751   0.00000  Uiso   1.00
H322   H     0.93253   0.03862   0.29742   0.00000  Uiso   1.00
H323   H     0.73413   0.29472   0.20258   0.00000  Uiso   1.00
H324   H     0.77569   0.11214   0.28825   0.00000  Uiso   1.00
N325   N     0.78403   0.16668   0.24999   0.00000  Uiso   1.00
N326   N     0.88264   0.16666   0.25001   0.00000  Uiso   1.00
O327   O     0.70625   0.10655   0.25000   0.00000  Uiso   1.00
O328   O     0.81664   0.17981   0.40724   0.00000  Uiso   1.00
O329   O     0.96042   0.22678   0.25000   0.00000  Uiso   1.00
O330   O     0.96039   0.10654   0.25000   0.00000  Uiso   1.00
O331   O     0.70628   0.22679   0.24999   0.00000  Uiso   1.00
O332   O     0.68519   0.16668   0.31491   0.00000  Uiso   1.00
O333   O     0.98148   0.16666   0.18508   0.00000  Uiso   1.00
O334   O     0.93933   0.16667   0.31492   0.00000  Uiso   1.00
O335   O     0.72733   0.16667   0.18508   0.00000  Uiso   1.00
O336   O     0.85002   0.15352   0.09276   0.00000  Uiso   1.00
C337   C     0.00058   0.42094   0.24799   0.00000  Uiso   1.00
C338   C     0.04055   0.35445   0.22132   0.00000  Uiso   1.00
C339   C     0.33230   0.62371   0.25253   0.00000  Uiso   1.00
C340   C     0.00103   0.37629   0.24747   0.00000  Uiso   1.00
C341   C     0.18297   0.46967   0.27335   0.00000  Uiso   1.00
C342   C     0.15037   0.53033   0.22664   0.00000  Uiso   1.00
C343   C     0.13420   0.46953   0.27156   0.00000  Uiso   1.00
C344   C     0.19914   0.53047   0.22844   0.00000  Uiso   1.00
C345   C     0.30604   0.49741   0.33593   0.00000  Uiso   1.00
C346   C     0.02729   0.50259   0.16407   0.00000  Uiso   1.00
C347   C     0.29067   0.48969   0.38486   0.00000  Uiso   1.00
C348   C     0.33276   0.57906   0.25201   0.00000  Uiso   1.00
C349   C     0.04267   0.51031   0.11514   0.00000  Uiso   1.00
C350   C     0.29786   0.45809   0.45409   0.00000  Uiso   1.00
C351   C     0.03547   0.54191   0.04591   0.00000  Uiso   1.00
C352   C     0.31629   0.46417   0.40784   0.00000  Uiso   1.00
C353   C     0.01705   0.53583   0.09216   0.00000  Uiso   1.00
C354   C     0.24606   0.50528   0.40841   0.00000  Uiso   1.00
C355   C     0.08728   0.49472   0.09159   0.00000  Uiso   1.00
C356   C     0.22367   0.49345   0.45331   0.00000  Uiso   1.00
C357   C     0.10966   0.50655   0.04669   0.00000  Uiso   1.00
C358   C     0.25231   0.47255   0.47666   0.00000  Uiso   1.00
C359   C     0.19149   0.48140   0.04713   0.00000  Uiso   1.00
C360   C     0.08102   0.52745   0.02334   0.00000  Uiso   1.00
C361   C     0.17489   0.50324   0.47611   0.00000  Uiso   1.00
C362   C     0.15844   0.49676   0.02389   0.00000  Uiso   1.00
C363   C     0.30597   0.55952   0.11535   0.00000  Uiso   1.00
C364   C     0.31984   0.59632   0.13905   0.00000  Uiso   1.00
C365   C     0.02736   0.44048   0.38465   0.00000  Uiso   1.00
C366   C     0.01349   0.40368   0.36095   0.00000  Uiso   1.00
C367   C     0.19006   0.45011   0.11598   0.00000  Uiso   1.00
C368   C     0.23248   0.45527   0.13591   0.00000  Uiso   1.00
C369   C     0.14327   0.54989   0.38402   0.00000  Uiso   1.00
C370   C     0.14185   0.51860   0.45287   0.00000  Uiso   1.00
C371   C     0.10085   0.54473   0.36409   0.00000  Uiso   1.00
C372   C     0.24796   0.62537   0.31000   0.00000  Uiso   1.00
C373   C     0.20511   0.62938   0.29017   0.00000  Uiso   1.00
C374   C     0.08538   0.37463   0.19000   0.00000  Uiso   1.00
C375   C     0.12822   0.37062   0.20984   0.00000  Uiso   1.00
C376   C     0.19714   0.43431   0.29984   0.00000  Uiso   1.00
C377   C     0.15891   0.42099   0.34310   0.00000  Uiso   1.00
C378   C     0.13619   0.56569   0.20016   0.00000  Uiso   1.00
C379   C     0.17442   0.57901   0.15690   0.00000  Uiso   1.00
C380   C     0.23660   0.46760   0.02274   0.00000  Uiso   1.00
C381   C     0.09673   0.53240   0.47726   0.00000  Uiso   1.00
C382   C     0.29485   0.35504   0.27595   0.00000  Uiso   1.00
C383   C     0.03848   0.64496   0.22405   0.00000  Uiso   1.00
C384   C     0.29278   0.64555   0.27868   0.00000  Uiso   1.00
Cu385  Cu    0.04689   0.50001   0.25000   0.00000  Uiso   1.00
Cu386  Cu    0.28645   0.49999   0.25000   0.00000  Uiso   1.00
H387   H     0.26130   0.45510   0.04007   0.00000  Uiso   1.00
H388   H     0.22431   0.55453   0.21175   0.00000  Uiso   1.00
H389   H     0.00827   0.58645   0.16164   0.00000  Uiso   1.00
H390   H     0.00816   0.61917   0.11403   0.00000  Uiso   1.00
H391   H     0.28689   0.61140   0.15906   0.00000  Uiso   1.00
H392   H     0.28737   0.57152   0.09080   0.00000  Uiso   1.00
H393   H     0.27886   0.53939   0.13885   0.00000  Uiso   1.00
H394   H     0.32517   0.38083   0.38597   0.00000  Uiso   1.00
H395   H     0.32506   0.41355   0.33836   0.00000  Uiso   1.00
H396   H     0.04644   0.38860   0.34094   0.00000  Uiso   1.00
H397   H     0.05447   0.46061   0.36114   0.00000  Uiso   1.00
H398   H     0.07203   0.54490   0.45993   0.00000  Uiso   1.00
H399   H     0.04597   0.42848   0.40920   0.00000  Uiso   1.00
H400   H     0.19442   0.42187   0.09575   0.00000  Uiso   1.00
H401   H     0.15722   0.44470   0.14426   0.00000  Uiso   1.00
H402   H     0.22493   0.48021   0.16012   0.00000  Uiso   1.00
H403   H     0.23760   0.42631   0.15372   0.00000  Uiso   1.00
H404   H     0.26644   0.46318   0.10977   0.00000  Uiso   1.00
H405   H     0.17611   0.55529   0.35574   0.00000  Uiso   1.00
H406   H     0.13892   0.57813   0.40425   0.00000  Uiso   1.00
H407   H     0.09573   0.57369   0.34628   0.00000  Uiso   1.00
H408   H     0.06689   0.53681   0.39023   0.00000  Uiso   1.00
H409   H     0.10304   0.47225   0.10892   0.00000  Uiso   1.00
H410   H     0.10840   0.51980   0.33988   0.00000  Uiso   1.00
H411   H     0.21295   0.61427   0.25750   0.00000  Uiso   1.00
H412   H     0.17228   0.61481   0.31312   0.00000  Uiso   1.00
H413   H     0.19734   0.66230   0.28514   0.00000  Uiso   1.00
H414   H     0.25318   0.59257   0.31782   0.00000  Uiso   1.00
H415   H     0.23925   0.64078   0.34265   0.00000  Uiso   1.00
H416   H     0.13599   0.33770   0.21486   0.00000  Uiso   1.00
H417   H     0.16105   0.38520   0.18689   0.00000  Uiso   1.00
H418   H     0.12038   0.38572   0.24251   0.00000  Uiso   1.00
H419   H     0.09409   0.35922   0.15735   0.00000  Uiso   1.00
H420   H     0.23030   0.52775   0.39108   0.00000  Uiso   1.00
H421   H     0.08015   0.40743   0.18218   0.00000  Uiso   1.00
H422   H     0.14250   0.44820   0.36176   0.00000  Uiso   1.00
H423   H     0.13047   0.40132   0.33580   0.00000  Uiso   1.00
H424   H     0.17596   0.40224   0.36481   0.00000  Uiso   1.00
H425   H     0.20546   0.40747   0.27791   0.00000  Uiso   1.00
H426   H     0.22870   0.44246   0.31101   0.00000  Uiso   1.00
H427   H     0.20286   0.59868   0.16420   0.00000  Uiso   1.00
H428   H     0.19083   0.55180   0.13824   0.00000  Uiso   1.00
H429   H     0.15737   0.59776   0.13519   0.00000  Uiso   1.00
H430   H     0.10464   0.55754   0.18898   0.00000  Uiso   1.00
H431   H     0.31826   0.44042   0.47249   0.00000  Uiso   1.00
H432   H     0.12787   0.59253   0.22209   0.00000  Uiso   1.00
H433   H     0.01507   0.55958   0.02751   0.00000  Uiso   1.00
H434   H     0.26587   0.37195   0.29742   0.00000  Uiso   1.00
H435   H     0.06747   0.62805   0.20258   0.00000  Uiso   1.00
H436   H     0.10902   0.44547   0.28825   0.00000  Uiso   1.00
N437   N     0.11736   0.50001   0.24999   0.00000  Uiso   1.00
N438   N     0.21597   0.49999   0.25001   0.00000  Uiso   1.00
O439   O     0.03958   0.43989   0.25000   0.00000  Uiso   1.00
O440   O     0.14998   0.51315   0.40724   0.00000  Uiso   1.00
O441   O     0.29375   0.56011   0.25000   0.00000  Uiso   1.00
O442   O     0.29372   0.43988   0.25000   0.00000  Uiso   1.00
O443   O     0.03961   0.56012   0.24999   0.00000  Uiso   1.00
O444   O     0.01852   0.50001   0.31491   0.00000  Uiso   1.00
O445   O     0.31481   0.49999   0.18508   0.00000  Uiso   1.00
O446   O     0.27267   0.50000   0.31492   0.00000  Uiso   1.00
O447   O     0.06067   0.50000   0.18508   0.00000  Uiso   1.00
O448   O     0.18336   0.48685   0.09276   0.00000  Uiso   1.00
C449   C     0.33391   0.42094   0.24799   0.00000  Uiso   1.00
C450   C     0.37389   0.35445   0.22132   0.00000  Uiso   1.00
C451   C     0.66564   0.62371   0.25253   0.00000  Uiso   1.00
C452   C     0.33436   0.37629   0.24747   0.00000  Uiso   1.00
C453   C     0.51630   0.46967   0.27335   0.00000  Uiso   1.00
C454   C     0.48370   0.53033   0.22664   0.00000  Uiso   1.00
C455   C     0.46753   0.46953   0.27156   0.00000  Uiso   1.00
C456   C     0.53247   0.53047   0.22844   0.00000  Uiso   1.00
C457   C     0.63937   0.49741   0.33593   0.00000  Uiso   1.00
C458   C     0.36063   0.50259   0.16407   0.00000  Uiso   1.00
C459   C     0.62400   0.48969   0.38486   0.00000  Uiso   1.00
C460   C     0.66609   0.57906   0.25201   0.00000  Uiso   1.00
C461   C     0.37600   0.51031   0.11514   0.00000  Uiso   1.00
C462   C     0.63119   0.45809   0.45409   0.00000  Uiso   1.00
C463   C     0.36881   0.54191   0.04591   0.00000  Uiso   1.00
C464   C     0.64962   0.46417   0.40784   0.00000  Uiso   1.00
C465   C     0.35038   0.53583   0.09216   0.00000  Uiso   1.00
C466   C     0.57939   0.50528   0.40841   0.00000  Uiso   1.00
C467   C     0.42061   0.49472   0.09159   0.00000  Uiso   1.00
C468   C     0.55700   0.49345   0.45331   0.00000  Uiso   1.00
C469   C     0.44300   0.50655   0.04669   0.00000  Uiso   1.00
C470   C     0.58564   0.47255   0.47666   0.00000  Uiso   1.00
C471   C     0.52482   0.48140   0.04713   0.00000  Uiso   1.00
C472   C     0.41436   0.52745   0.02334   0.00000  Uiso   1.00
C473   C     0.50823   0.50324   0.47611   0.00000  Uiso   1.00
C474   C     0.49177   0.49676   0.02389   0.00000  Uiso   1.00
C475   C     0.63930   0.55952   0.11535   0.00000  Uiso   1.00
C476   C     0.65317   0.59632   0.13905   0.00000  Uiso   1.00
C477   C     0.36069   0.44048   0.38465   0.00000  Uiso   1.00
C478   C     0.34683   0.40368   0.36095   0.00000  Uiso   1.00
C479   C     0.52340   0.45011   0.11598   0.00000  Uiso   1.00
C480   C     0.56581   0.45527   0.13591   0.00000  Uiso   1.00
C481   C     0.47660   0.54989   0.38402   0.00000  Uiso   1.00
C482   C     0.47518   0.51860   0.45287   0.00000  Uiso   1.00
C483   C     0.43419   0.54473   0.36409   0.00000  Uiso   1.00
C484   C     0.58129   0.62537   0.31000   0.00000  Uiso   1.00
C485   C     0.53844   0.62938   0.29017   0.00000  Uiso   1.00
C486   C     0.41871   0.37463   0.19000   0.00000  Uiso   1.00
C487   C     0.46156   0.37062   0.20984   0.00000  Uiso   1.00
C488   C     0.53048   0.43431   0.29984   0.00000  Uiso   1.00
C489   C     0.49224   0.42099   0.34310   0.00000  Uiso   1.00
C490   C     0.46952   0.56569   0.20016   0.00000  Uiso   1.00
C491   C     0.50776   0.57901   0.15690   0.00000  Uiso   1.00
C492   C     0.56994   0.46760   0.02274   0.00000  Uiso   1.00
C493   C     0.43006   0.53240   0.47726   0.00000  Uiso   1.00
C494   C     0.62819   0.35504   0.27595   0.00000  Uiso   1.00
C495   C     0.37181   0.64496   0.22405   0.00000  Uiso   1.00
C496   C     0.62611   0.64555   0.27868   0.00000  Uiso   1.00
Cu497  Cu    0.38022   0.50001   0.25000   0.00000  Uiso   1.00
Cu498  Cu    0.61978   0.49999   0.25000   0.00000  Uiso   1.00
H499   H     0.59463   0.45510   0.04007   0.00000  Uiso   1.00
H500   H     0.55764   0.55453   0.21175   0.00000  Uiso   1.00
H501   H     0.34160   0.58645   0.16164   0.00000  Uiso   1.00
H502   H     0.34149   0.61917   0.11403   0.00000  Uiso   1.00
H503   H     0.62023   0.61140   0.15906   0.00000  Uiso   1.00
H504   H     0.62070   0.57152   0.09080   0.00000  Uiso   1.00
H505   H     0.61219   0.53939   0.13885   0.00000  Uiso   1.00
H506   H     0.65851   0.38083   0.38597   0.00000  Uiso   1.00
H507   H     0.65840   0.41355   0.33836   0.00000  Uiso   1.00
H508   H     0.37977   0.38860   0.34094   0.00000  Uiso   1.00
H509   H     0.38781   0.46061   0.36114   0.00000  Uiso   1.00
H510   H     0.40537   0.54490   0.45993   0.00000  Uiso   1.00
H511   H     0.37930   0.42848   0.40920   0.00000  Uiso   1.00
H512   H     0.52775   0.42187   0.09575   0.00000  Uiso   1.00
H513   H     0.49055   0.44470   0.14426   0.00000  Uiso   1.00
H514   H     0.55826   0.48021   0.16012   0.00000  Uiso   1.00
H515   H     0.57093   0.42631   0.15372   0.00000  Uiso   1.00
H516   H     0.59978   0.46318   0.10977   0.00000  Uiso   1.00
H517   H     0.50945   0.55529   0.35574   0.00000  Uiso   1.00
H518   H     0.47225   0.57813   0.40425   0.00000  Uiso   1.00
H519   H     0.42907   0.57369   0.34628   0.00000  Uiso   1.00
H520   H     0.40022   0.53681   0.39023   0.00000  Uiso   1.00
H521   H     0.43637   0.47225   0.10892   0.00000  Uiso   1.00
H522   H     0.44173   0.51980   0.33988   0.00000  Uiso   1.00
H523   H     0.54628   0.61427   0.25750   0.00000  Uiso   1.00
H524   H     0.50562   0.61481   0.31312   0.00000  Uiso   1.00
H525   H     0.53068   0.66230   0.28514   0.00000  Uiso   1.00
H526   H     0.58651   0.59257   0.31782   0.00000  Uiso   1.00
H527   H     0.57258   0.64078   0.34265   0.00000  Uiso   1.00
H528   H     0.46933   0.33770   0.21486   0.00000  Uiso   1.00
H529   H     0.49438   0.38520   0.18689   0.00000  Uiso   1.00
H530   H     0.45371   0.38572   0.24251   0.00000  Uiso   1.00
H531   H     0.42742   0.35922   0.15735   0.00000  Uiso   1.00
H532   H     0.56363   0.52775   0.39108   0.00000  Uiso   1.00
H533   H     0.41349   0.40743   0.18218   0.00000  Uiso   1.00
H534   H     0.47583   0.44820   0.36176   0.00000  Uiso   1.00
H535   H     0.46380   0.40132   0.33580   0.00000  Uiso   1.00
H536   H     0.50929   0.40224   0.36481   0.00000  Uiso   1.00
H537   H     0.53879   0.40747   0.27791   0.00000  Uiso   1.00
H538   H     0.56203   0.44246   0.31101   0.00000  Uiso   1.00
H539   H     0.53620   0.59868   0.16420   0.00000  Uiso   1.00
H540   H     0.52417   0.55180   0.13824   0.00000  Uiso   1.00
H541   H     0.49071   0.59776   0.13519   0.00000  Uiso   1.00
H542   H     0.43797   0.55754   0.18898   0.00000  Uiso   1.00
H543   H     0.65160   0.44042   0.47249   0.00000  Uiso   1.00
H544   H     0.46121   0.59253   0.22209   0.00000  Uiso   1.00
H545   H     0.34840   0.55958   0.02751   0.00000  Uiso   1.00
H546   H     0.59920   0.37195   0.29742   0.00000  Uiso   1.00
H547   H     0.40080   0.62805   0.20258   0.00000  Uiso   1.00
H548   H     0.44236   0.44547   0.28825   0.00000  Uiso   1.00
N549   N     0.45069   0.50001   0.24999   0.00000  Uiso   1.00
N550   N     0.54931   0.49999   0.25001   0.00000  Uiso   1.00
O551   O     0.37291   0.43989   0.25000   0.00000  Uiso   1.00
O552   O     0.48331   0.51315   0.40724   0.00000  Uiso   1.00
O553   O     0.62709   0.56011   0.25000   0.00000  Uiso   1.00
O554   O     0.62706   0.43988   0.25000   0.00000  Uiso   1.00
O555   O     0.37294   0.56012   0.24999   0.00000  Uiso   1.00
O556   O     0.35186   0.50001   0.31491   0.00000  Uiso   1.00
O557   O     0.64814   0.49999   0.18508   0.00000  Uiso   1.00
O558   O     0.60600   0.50000   0.31492   0.00000  Uiso   1.00
O559   O     0.39400   0.50000   0.18508   0.00000  Uiso   1.00
O560   O     0.51669   0.48685   0.09276   0.00000  Uiso   1.00
C561   C     0.66724   0.42094   0.24799   0.00000  Uiso   1.00
C562   C     0.70722   0.35445   0.22132   0.00000  Uiso   1.00
C563   C     0.99897   0.62371   0.25253   0.00000  Uiso   1.00
C564   C     0.66770   0.37629   0.24747   0.00000  Uiso   1.00
C565   C     0.84963   0.46967   0.27335   0.00000  Uiso   1.00
C566   C     0.81703   0.53033   0.22664   0.00000  Uiso   1.00
C567   C     0.80086   0.46953   0.27156   0.00000  Uiso   1.00
C568   C     0.86580   0.53047   0.22844   0.00000  Uiso   1.00
C569   C     0.97270   0.49741   0.33593   0.00000  Uiso   1.00
C570   C     0.69396   0.50259   0.16407   0.00000  Uiso   1.00
C571   C     0.95733   0.48969   0.38486   0.00000  Uiso   1.00
C572   C     0.99942   0.57906   0.25201   0.00000  Uiso   1.00
C573   C     0.70933   0.51031   0.11514   0.00000  Uiso   1.00
C574   C     0.96453   0.45809   0.45409   0.00000  Uiso   1.00
C575   C     0.70214   0.54191   0.04591   0.00000  Uiso   1.00
C576   C     0.98295   0.46417   0.40784   0.00000  Uiso   1.00
C577   C     0.68371   0.53583   0.09216   0.00000  Uiso   1.00
C578   C     0.91272   0.50528   0.40841   0.00000  Uiso   1.00
C579   C     0.75394   0.49472   0.09159   0.00000  Uiso   1.00
C580   C     0.89034   0.49345   0.45331   0.00000  Uiso   1.00
C581   C     0.77633   0.50655   0.04669   0.00000  Uiso   1.00
C582   C     0.91898   0.47255   0.47666   0.00000  Uiso   1.00
C583   C     0.85815   0.48140   0.04713   0.00000  Uiso   1.00
C584   C     0.74769   0.52745   0.02334   0.00000  Uiso   1.00
C585   C     0.84156   0.50324   0.47611   0.00000  Uiso   1.00
C586   C     0.82511   0.49676   0.02389   0.00000  Uiso   1.00
C587   C     0.97264   0.55952   0.11535   0.00000  Uiso   1.00
C588   C     0.98650   0.59632   0.13905   0.00000  Uiso   1.00
C589   C     0.69403   0.44048   0.38465   0.00000  Uiso   1.00
C590   C     0.68016   0.40368   0.36095   0.00000  Uiso   1.00
C591   C     0.85673   0.45011   0.11598   0.00000  Uiso   1.00
C592   C     0.89915   0.45527   0.13591   0.00000  Uiso   1.00
C593   C     0.80994   0.54989   0.38402   0.00000  Uiso   1.00
C594   C     0.80851   0.51860   0.45287   0.00000  Uiso   1.00
C595   C     0.76752   0.54473   0.36409   0.00000  Uiso   1.00
C596   C     0.91462   0.62537   0.31000   0.00000  Uiso   1.00
C597   C     0.87177   0.62938   0.29017   0.00000  Uiso   1.00
C598   C     0.75204   0.37463   0.19000   0.00000  Uiso   1.00
C599   C     0.79489   0.37062   0.20984   0.00000  Uiso   1.00
C600   C     0.86381   0.43431   0.29984   0.00000  Uiso   1.00
C601   C     0.82558   0.42099   0.34310   0.00000  Uiso   1.00
C602   C     0.80285   0.56569   0.20016   0.00000  Uiso   1.00
C603   C     0.84109   0.57901   0.15690   0.00000  Uiso   1.00
C604   C     0.90327   0.46760   0.02274   0.00000  Uiso   1.00
C605   C     0.76340   0.53240   0.47726   0.00000  Uiso   1.00
C606   C     0.96152   0.35504   0.27595   0.00000  Uiso   1.00
C607   C     0.70515   0.64496   0.22405   0.00000  Uiso   1.00
C608   C     0.95945   0.64555   0.27868   0.00000  Uiso   1.00
Cu609  Cu    0.71355   0.50001   0.25000   0.00000  Uiso   1.00
Cu610  Cu    0.95311   0.49999   0.25000   0.00000  Uiso   1.00
H611   H     0.92797   0.45510   0.04007   0.00000  Uiso   1.00
H612   H     0.89098   0.55453   0.21175   0.00000  Uiso   1.00
H613   H     0.67494   0.58645   0.16164   0.00000  Uiso   1.00
H614   H     0.67483   0.61917   0.11403   0.00000  Uiso   1.00
H615   H     0.95356   0.61140   0.15906   0.00000  Uiso   1.00
H616   H     0.95403   0.57152   0.09080   0.00000  Uiso   1.00
H617   H     0.94553   0.53939   0.13885   0.00000  Uiso   1.00
H618   H     0.99184   0.38083   0.38597   0.00000  Uiso   1.00
H619   H     0.99173   0.41355   0.33836   0.00000  Uiso   1.00
H620   H     0.71311   0.38860   0.34094   0.00000  Uiso   1.00
H621   H     0.72114   0.46061   0.36114   0.00000  Uiso   1.00
H622   H     0.73870   0.54490   0.45993   0.00000  Uiso   1.00
H623   H     0.71263   0.42848   0.40920   0.00000  Uiso   1.00
H624   H     0.86109   0.42187   0.09575   0.00000  Uiso   1.00
H625   H     0.82389   0.44470   0.14426   0.00000  Uiso   1.00
H626   H     0.89160   0.48021   0.16012   0.00000  Uiso   1.00
H627   H     0.90426   0.42631   0.15372   0.00000  Uiso   1.00
H628   H     0.93311   0.46318   0.10977   0.00000  Uiso   1.00
H629   H     0.84278   0.55529   0.35574   0.00000  Uiso   1.00
H630   H     0.80558   0.57813   0.40425   0.00000  Uiso   1.00
H631   H     0.76240   0.57369   0.34628   0.00000  Uiso   1.00
H632   H     0.73356   0.53681   0.39023   0.00000  Uiso   1.00
H633   H     0.76970   0.47225   0.10892   0.00000  Uiso   1.00
H634   H     0.77507   0.51980   0.33988   0.00000  Uiso   1.00
H635   H     0.87961   0.61427   0.25750   0.00000  Uiso   1.00
H636   H     0.83895   0.61481   0.31312   0.00000  Uiso   1.00
H637   H     0.86401   0.66230   0.28514   0.00000  Uiso   1.00
H638   H     0.91985   0.59257   0.31782   0.00000  Uiso   1.00
H639   H     0.90592   0.64078   0.34265   0.00000  Uiso   1.00
H640   H     0.80266   0.33770   0.21486   0.00000  Uiso   1.00
H641   H     0.82771   0.38520   0.18689   0.00000  Uiso   1.00
H642   H     0.78705   0.38572   0.24251   0.00000  Uiso   1.00
H643   H     0.76075   0.35922   0.15735   0.00000  Uiso   1.00
H644   H     0.89696   0.52775   0.39108   0.00000  Uiso   1.00
H645   H     0.74682   0.40743   0.18218   0.00000  Uiso   1.00
H646   H     0.80916   0.44820   0.36176   0.00000  Uiso   1.00
H647   H     0.79714   0.40132   0.33580   0.00000  Uiso   1.00
H648   H     0.84263   0.40224   0.36481   0.00000  Uiso   1.00
H649   H     0.87213   0.40747   0.27791   0.00000  Uiso   1.00
H650   H     0.89536   0.44246   0.31101   0.00000  Uiso   1.00
H651   H     0.86953   0.59868   0.16420   0.00000  Uiso   1.00
H652   H     0.85750   0.55180   0.13824   0.00000  Uiso   1.00
H653   H     0.82404   0.59776   0.13519   0.00000  Uiso   1.00
H654   H     0.77130   0.55754   0.18898   0.00000  Uiso   1.00
H655   H     0.98493   0.44042   0.47249   0.00000  Uiso   1.00
H656   H     0.79454   0.59253   0.22209   0.00000  Uiso   1.00
H657   H     0.68174   0.55958   0.02751   0.00000  Uiso   1.00
H658   H     0.93253   0.37195   0.29742   0.00000  Uiso   1.00
H659   H     0.73413   0.62805   0.20258   0.00000  Uiso   1.00
H660   H     0.77569   0.44547   0.28825   0.00000  Uiso   1.00
N661   N     0.78403   0.50001   0.24999   0.00000  Uiso   1.00
N662   N     0.88264   0.49999   0.25001   0.00000  Uiso   1.00
O663   O     0.70625   0.43989   0.25000   0.00000  Uiso   1.00
O664   O     0.81664   0.51315   0.40724   0.00000  Uiso   1.00
O665   O     0.96042   0.56011   0.25000   0.00000  Uiso   1.00
O666   O     0.96039   0.43988   0.25000   0.00000  Uiso   1.00
O667   O     0.70628   0.56012   0.24999   0.00000  Uiso   1.00
O668   O     0.68519   0.50001   0.31491   0.00000  Uiso   1.00
O669   O     0.98148   0.49999   0.18508   0.00000  Uiso   1.00
O670   O     0.93933   0.50000   0.31492   0.00000  Uiso   1.00
O671   O     0.72733   0.50000   0.18508   0.00000  Uiso   1.00
O672   O     0.85002   0.48685   0.09276   0.00000  Uiso   1.00
C673   C     0.00058   0.75427   0.24799   0.00000  Uiso   1.00
C674   C     0.04055   0.68778   0.22132   0.00000  Uiso   1.00
C675   C     0.33230   0.95705   0.25253   0.00000  Uiso   1.00
C676   C     0.00103   0.70962   0.24747   0.00000  Uiso   1.00
C677   C     0.18297   0.80300   0.27335   0.00000  Uiso   1.00
C678   C     0.15037   0.86366   0.22664   0.00000  Uiso   1.00
C679   C     0.13420   0.80287   0.27156   0.00000  Uiso   1.00
C680   C     0.19914   0.86380   0.22844   0.00000  Uiso   1.00
C681   C     0.30604   0.83074   0.33593   0.00000  Uiso   1.00
C682   C     0.02729   0.83593   0.16407   0.00000  Uiso   1.00
C683   C     0.29067   0.82303   0.38486   0.00000  Uiso   1.00
C684   C     0.33276   0.91239   0.25201   0.00000  Uiso   1.00
C685   C     0.04267   0.84364   0.11514   0.00000  Uiso   1.00
C686   C     0.29786   0.79142   0.45409   0.00000  Uiso   1.00
C687   C     0.03547   0.87524   0.04591   0.00000  Uiso   1.00
C688   C     0.31629   0.79751   0.40784   0.00000  Uiso   1.00
C689   C     0.01705   0.86916   0.09216   0.00000  Uiso   1.00
C690   C     0.24606   0.83861   0.40841   0.00000  Uiso   1.00
C691   C     0.08728   0.82806   0.09159   0.00000  Uiso   1.00
C692   C     0.22367   0.82678   0.45331   0.00000  Uiso   1.00
C693   C     0.10966   0.83989   0.04669   0.00000  Uiso   1.00
C694   C     0.25231   0.80588   0.47666   0.00000  Uiso   1.00
C695   C     0.19149   0.81473   0.04713   0.00000  Uiso   1.00
C696   C     0.08102   0.86079   0.02334   0.00000  Uiso   1.00
C697   C     0.17489   0.83657   0.47611   0.00000  Uiso   1.00
C698   C     0.15844   0.83009   0.02389   0.00000  Uiso   1.00
C699   C     0.30597   0.89285   0.11535   0.00000  Uiso   1.00
C700   C     0.31984   0.92965   0.13905   0.00000  Uiso   1.00
C701   C     0.02736   0.77381   0.38465   0.00000  Uiso   1.00
C702   C     0.01349   0.73701   0.36095   0.00000  Uiso   1.00
C703   C     0.19006   0.78344   0.11598   0.00000  Uiso   1.00
C704   C     0.23248   0.78861   0.13591   0.00000  Uiso   1.00
C705   C     0.14327   0.88322   0.38402   0.00000  Uiso   1.00
C706   C     0.14185   0.85193   0.45287   0.00000  Uiso   1.00
C707   C     0.10085   0.87806   0.36409   0.00000  Uiso   1.00
C708   C     0.24796   0.95871   0.31000   0.00000  Uiso   1.00
C709   C     0.20511   0.96271   0.29017   0.00000  Uiso   1.00
C710   C     0.08538   0.70796   0.19000   0.00000  Uiso   1.00
C711   C     0.12822   0.70395   0.20984   0.00000  Uiso   1.00
C712   C     0.19714   0.76765   0.29984   0.00000  Uiso   1.00
C713   C     0.15891   0.75432   0.34310   0.00000  Uiso   1.00
C714   C     0.13619   0.89902   0.20016   0.00000  Uiso   1.00
C715   C     0.17442   0.91235   0.15690   0.00000  Uiso   1.00
C716   C     0.23660   0.80094   0.02274   0.00000  Uiso   1.00
C717   C     0.09673   0.86573   0.47726   0.00000  Uiso   1.00
C718   C     0.29485   0.68837   0.27595   0.00000  Uiso   1.00
C719   C     0.03848   0.97829   0.22405   0.00000  Uiso   1.00
C720   C     0.29278   0.97889   0.27868   0.00000  Uiso   1.00
Cu721  Cu    0.04689   0.83334   0.25000   0.00000  Uiso   1.00
Cu722  Cu    0.28645   0.83333   0.25000   0.00000  Uiso   1.00
H723   H     0.26130   0.78843   0.04007   0.00000  Uiso   1.00
H724   H     0.22431   0.88786   0.21175   0.00000  Uiso   1.00
H725   H     0.00827   0.91979   0.16164   0.00000  Uiso   1.00
H726   H     0.00816   0.95250   0.11403   0.00000  Uiso   1.00
H727   H     0.28689   0.94473   0.15906   0.00000  Uiso   1.00
H728   H     0.28737   0.90486   0.09080   0.00000  Uiso   1.00
H729   H     0.27886   0.87272   0.13885   0.00000  Uiso   1.00
H730   H     0.32517   0.71416   0.38597   0.00000  Uiso   1.00
H731   H     0.32506   0.74688   0.33836   0.00000  Uiso   1.00
H732   H     0.04644   0.72193   0.34094   0.00000  Uiso   1.00
H733   H     0.05447   0.79394   0.36114   0.00000  Uiso   1.00
H734   H     0.07203   0.87824   0.45993   0.00000  Uiso   1.00
H735   H     0.04597   0.76181   0.40920   0.00000  Uiso   1.00
H736   H     0.19442   0.75520   0.09575   0.00000  Uiso   1.00
H737   H     0.15722   0.77804   0.14426   0.00000  Uiso   1.00
H738   H     0.22493   0.81354   0.16012   0.00000  Uiso   1.00
H739   H     0.23760   0.75965   0.15372   0.00000  Uiso   1.00
H740   H     0.26644   0.79652   0.10977   0.00000  Uiso   1.00
H741   H     0.17611   0.88863   0.35574   0.00000  Uiso   1.00
H742   H     0.13892   0.91147   0.40425   0.00000  Uiso   1.00
H743   H     0.09573   0.90702   0.34628   0.00000  Uiso   1.00
H744   H     0.06689   0.87015   0.39023   0.00000  Uiso   1.00
H745   H     0.10304   0.80558   0.10892   0.00000  Uiso   1.00
H746   H     0.10840   0.85313   0.33988   0.00000  Uiso   1.00
H747   H     0.21295   0.94760   0.25750   0.00000  Uiso   1.00
H748   H     0.17228   0.94814   0.31312   0.00000  Uiso   1.00
H749   H     0.19734   0.99563   0.28514   0.00000  Uiso   1.00
H750   H     0.25318   0.92590   0.31782   0.00000  Uiso   1.00
H751   H     0.23925   0.97411   0.34265   0.00000  Uiso   1.00
H752   H     0.13599   0.67104   0.21486   0.00000  Uiso   1.00
H753   H     0.16105   0.71853   0.18689   0.00000  Uiso   1.00
H754   H     0.12038   0.71906   0.24251   0.00000  Uiso   1.00
H755   H     0.09409   0.69255   0.15735   0.00000  Uiso   1.00
H756   H     0.23030   0.86108   0.39108   0.00000  Uiso   1.00
H757   H     0.08015   0.74076   0.18218   0.00000  Uiso   1.00
H758   H     0.14250   0.78153   0.36176   0.00000  Uiso   1.00
H759   H     0.13047   0.73466   0.33580   0.00000  Uiso   1.00
H760   H     0.17596   0.73557   0.36481   0.00000  Uiso   1.00
H761   H     0.20546   0.74081   0.27791   0.00000  Uiso   1.00
H762   H     0.22870   0.77580   0.31101   0.00000  Uiso   1.00
H763   H     0.20286   0.93201   0.16420   0.00000  Uiso   1.00
H764   H     0.19083   0.88514   0.13824   0.00000  Uiso   1.00
H765   H     0.15737   0.93109   0.13519   0.00000  Uiso   1.00
H766   H     0.10464   0.89087   0.18898   0.00000  Uiso   1.00
H767   H     0.31826   0.77375   0.47249   0.00000  Uiso   1.00
H768   H     0.12787   0.92586   0.22209   0.00000  Uiso   1.00
H769   H     0.01507   0.89291   0.02751   0.00000  Uiso   1.00
H770   H     0.26587   0.70528   0.29742   0.00000  Uiso   1.00
H771   H     0.06747   0.96138   0.20258   0.00000  Uiso   1.00
H772   H     0.10902   0.77881   0.28825   0.00000  Uiso   1.00
N773   N     0.11736   0.83334   0.24999   0.00000  Uiso   1.00
N774   N     0.21597   0.83332   0.25001   0.00000  Uiso   1.00
O775   O     0.03958   0.77322   0.25000   0.00000  Uiso   1.00
O776   O     0.14998   0.84648   0.40724   0.00000  Uiso   1.00
O777   O     0.29375   0.89345   0.25000   0.00000  Uiso   1.00
O778   O     0.29372   0.77321   0.25000   0.00000  Uiso   1.00
O779   O     0.03961   0.89346   0.24999   0.00000  Uiso   1.00
O780   O     0.01852   0.83334   0.31491   0.00000  Uiso   1.00
O781   O     0.31481   0.83332   0.18508   0.00000  Uiso   1.00
O782   O     0.27267   0.83333   0.31492   0.00000  Uiso   1.00
O783   O     0.06067   0.83333   0.18508   0.00000  Uiso   1.00
O784   O     0.18336   0.82019   0.09276   0.00000  Uiso   1.00
C785   C     0.33391   0.75427   0.24799   0.00000  Uiso   1.00
C786   C     0.37389   0.68778   0.22132   0.00000  Uiso   1.00
C787   C     0.66564   0.95705   0.25253   0.00000  Uiso   1.00
C788   C     0.33436   0.70962   0.24747   0.00000  Uiso   1.00
C789   C     0.51630   0.80300   0.27335   0.00000  Uiso   1.00
C790   C     0.48370   0.86366   0.22664   0.00000  Uiso   1.00
C791   C     0.46753   0.80287   0.27156   0.00000  Uiso   1.00
C792   C     0.53247   0.86380   0.22844   0.00000  Uiso   1.00
C793   C     0.63937   0.83074   0.33593   0.00000  Uiso   1.00
C794   C     0.36063   0.83593   0.16407   0.00000  Uiso   1.00
C795   C     0.62400   0.82303   0.38486   0.00000  Uiso   1.00
C796   C     0.66609   0.91239   0.25201   0.00000  Uiso   1.00
C797   C     0.37600   0.84364   0.11514   0.00000  Uiso   1.00
C798   C     0.63119   0.79142   0.45409   0.00000  Uiso   1.00
C799   C     0.36881   0.87524   0.04591   0.00000  Uiso   1.00
C800   C     0.64962   0.79751   0.40784   0.00000  Uiso   1.00
C801   C     0.35038   0.86916   0.09216   0.00000  Uiso   1.00
C802   C     0.57939   0.83861   0.40841   0.00000  Uiso   1.00
C803   C     0.42061   0.82806   0.09159   0.00000  Uiso   1.00
C804   C     0.55700   0.82678   0.45331   0.00000  Uiso   1.00
C805   C     0.44300   0.83989   0.04669   0.00000  Uiso   1.00
C806   C     0.58564   0.80588   0.47666   0.00000  Uiso   1.00
C807   C     0.52482   0.81473   0.04713   0.00000  Uiso   1.00
C808   C     0.41436   0.86079   0.02334   0.00000  Uiso   1.00
C809   C     0.50823   0.83657   0.47611   0.00000  Uiso   1.00
C810   C     0.49177   0.83009   0.02389   0.00000  Uiso   1.00
C811   C     0.63930   0.89285   0.11535   0.00000  Uiso   1.00
C812   C     0.65317   0.92965   0.13905   0.00000  Uiso   1.00
C813   C     0.36069   0.77381   0.38465   0.00000  Uiso   1.00
C814   C     0.34683   0.73701   0.36095   0.00000  Uiso   1.00
C815   C     0.52340   0.78344   0.11598   0.00000  Uiso   1.00
C816   C     0.56581   0.78861   0.13591   0.00000  Uiso   1.00
C817   C     0.47660   0.88322   0.38402   0.00000  Uiso   1.00
C818   C     0.47518   0.85193   0.45287   0.00000  Uiso   1.00
C819   C     0.43419   0.87806   0.36409   0.00000  Uiso   1.00
C820   C     0.58129   0.95871   0.31000   0.00000  Uiso   1.00
C821   C     0.53844   0.96271   0.29017   0.00000  Uiso   1.00
C822   C     0.41871   0.70796   0.19000   0.00000  Uiso   1.00
C823   C     0.46156   0.70395   0.20984   0.00000  Uiso   1.00
C824   C     0.53048   0.76765   0.29984   0.00000  Uiso   1.00
C825   C     0.49224   0.75432   0.34310   0.00000  Uiso   1.00
C826   C     0.46952   0.89902   0.20016   0.00000  Uiso   1.00
C827   C     0.50776   0.91235   0.15690   0.00000  Uiso   1.00
C828   C     0.56994   0.80094   0.02274   0.00000  Uiso   1.00
C829   C     0.43006   0.86573   0.47726   0.00000  Uiso   1.00
C830   C     0.62819   0.68837   0.27595   0.00000  Uiso   1.00
C831   C     0.37181   0.97829   0.22405   0.00000  Uiso   1.00
C832   C     0.62611   0.97889   0.27868   0.00000  Uiso   1.00
Cu833  Cu    0.38022   0.83334   0.25000   0.00000  Uiso   1.00
Cu834  Cu    0.61978   0.83333   0.25000   0.00000  Uiso   1.00
H835   H     0.59463   0.78843   0.04007   0.00000  Uiso   1.00
H836   H     0.55764   0.88786   0.21175   0.00000  Uiso   1.00
H837   H     0.34160   0.91979   0.16164   0.00000  Uiso   1.00
H838   H     0.34149   0.95250   0.11403   0.00000  Uiso   1.00
H839   H     0.62023   0.94473   0.15906   0.00000  Uiso   1.00
H840   H     0.62070   0.90486   0.09080   0.00000  Uiso   1.00
H841   H     0.61219   0.87272   0.13885   0.00000  Uiso   1.00
H842   H     0.65851   0.71416   0.38597   0.00000  Uiso   1.00
H843   H     0.65840   0.74688   0.33836   0.00000  Uiso   1.00
H844   H     0.37977   0.72193   0.34094   0.00000  Uiso   1.00
H845   H     0.38781   0.79394   0.36114   0.00000  Uiso   1.00
H846   H     0.40537   0.87824   0.45993   0.00000  Uiso   1.00
H847   H     0.37930   0.76181   0.40920   0.00000  Uiso   1.00
H848   H     0.52775   0.75520   0.09575   0.00000  Uiso   1.00
H849   H     0.49055   0.77804   0.14426   0.00000  Uiso   1.00
H850   H     0.55826   0.81354   0.16012   0.00000  Uiso   1.00
H851   H     0.57093   0.75965   0.15372   0.00000  Uiso   1.00
H852   H     0.59978   0.79652   0.10977   0.00000  Uiso   1.00
H853   H     0.50945   0.88863   0.35574   0.00000  Uiso   1.00
H854   H     0.47225   0.91147   0.40425   0.00000  Uiso   1.00
H855   H     0.42907   0.90702   0.34628   0.00000  Uiso   1.00
H856   H     0.40022   0.87015   0.39023   0.00000  Uiso   1.00
H857   H     0.43637   0.80558   0.10892   0.00000  Uiso   1.00
H858   H     0.44173   0.85313   0.33988   0.00000  Uiso   1.00
H859   H     0.54628   0.94760   0.25750   0.00000  Uiso   1.00
H860   H     0.50562   0.94814   0.31312   0.00000  Uiso   1.00
H861   H     0.53068   0.99563   0.28514   0.00000  Uiso   1.00
H862   H     0.58651   0.92590   0.31782   0.00000  Uiso   1.00
H863   H     0.57258   0.97411   0.34265   0.00000  Uiso   1.00
H864   H     0.46933   0.67104   0.21486   0.00000  Uiso   1.00
H865   H     0.49438   0.71853   0.18689   0.00000  Uiso   1.00
H866   H     0.45371   0.71906   0.24251   0.00000  Uiso   1.00
H867   H     0.42742   0.69255   0.15735   0.00000  Uiso   1.00
H868   H     0.56363   0.86108   0.39108   0.00000  Uiso   1.00
H869   H     0.41349   0.74076   0.18218   0.00000  Uiso   1.00
H870   H     0.47583   0.78153   0.36176   0.00000  Uiso   1.00
H871   H     0.46380   0.73466   0.33580   0.00000  Uiso   1.00
H872   H     0.50929   0.73557   0.36481   0.00000  Uiso   1.00
H873   H     0.53879   0.74081   0.27791   0.00000  Uiso   1.00
H874   H     0.56203   0.77580   0.31101   0.00000  Uiso   1.00
H875   H     0.53620   0.93201   0.16420   0.00000  Uiso   1.00
H876   H     0.52417   0.88514   0.13824   0.00000  Uiso   1.00
H877   H     0.49071   0.93109   0.13519   0.00000  Uiso   1.00
H878   H     0.43797   0.89087   0.18898   0.00000  Uiso   1.00
H879   H     0.65160   0.77375   0.47249   0.00000  Uiso   1.00
H880   H     0.46121   0.92586   0.22209   0.00000  Uiso   1.00
H881   H     0.34840   0.89291   0.02751   0.00000  Uiso   1.00
H882   H     0.59920   0.70528   0.29742   0.00000  Uiso   1.00
H883   H     0.40080   0.96138   0.20258   0.00000  Uiso   1.00
H884   H     0.44236   0.77881   0.28825   0.00000  Uiso   1.00
N885   N     0.45069   0.83334   0.24999   0.00000  Uiso   1.00
N886   N     0.54931   0.83332   0.25001   0.00000  Uiso   1.00
O887   O     0.37291   0.77322   0.25000   0.00000  Uiso   1.00
O888   O     0.48331   0.84648   0.40724   0.00000  Uiso   1.00
O889   O     0.62709   0.89345   0.25000   0.00000  Uiso   1.00
O890   O     0.62706   0.77321   0.25000   0.00000  Uiso   1.00
O891   O     0.37294   0.89346   0.24999   0.00000  Uiso   1.00
O892   O     0.35186   0.83334   0.31491   0.00000  Uiso   1.00
O893   O     0.64814   0.83332   0.18508   0.00000  Uiso   1.00
O894   O     0.60600   0.83333   0.31492   0.00000  Uiso   1.00
O895   O     0.39400   0.83333   0.18508   0.00000  Uiso   1.00
O896   O     0.51669   0.82019   0.09276   0.00000  Uiso   1.00
C897   C     0.66724   0.75427   0.24799   0.00000  Uiso   1.00
C898   C     0.70722   0.68778   0.22132   0.00000  Uiso   1.00
C899   C     0.99897   0.95705   0.25253   0.00000  Uiso   1.00
C900   C     0.66770   0.70962   0.24747   0.00000  Uiso   1.00
C901   C     0.84963   0.80300   0.27335   0.00000  Uiso   1.00
C902   C     0.81703   0.86366   0.22664   0.00000  Uiso   1.00
C903   C     0.80086   0.80287   0.27156   0.00000  Uiso   1.00
C904   C     0.86580   0.86380   0.22844   0.00000  Uiso   1.00
C905   C     0.97270   0.83074   0.33593   0.00000  Uiso   1.00
C906   C     0.69396   0.83593   0.16407   0.00000  Uiso   1.00
C907   C     0.95733   0.82303   0.38486   0.00000  Uiso   1.00
C908   C     0.99942   0.91239   0.25201   0.00000  Uiso   1.00
C909   C     0.70933   0.84364   0.11514   0.00000  Uiso   1.00
C910   C     0.96453   0.79142   0.45409   0.00000  Uiso   1.00
C911   C     0.70214   0.87524   0.04591   0.00000  Uiso   1.00
C912   C     0.98295   0.79751   0.40784   0.00000  Uiso   1.00
C913   C     0.68371   0.86916   0.09216   0.00000  Uiso   1.00
C914   C     0.91272   0.83861   0.40841   0.00000  Uiso   1.00
C915   C     0.75394   0.82806   0.09159   0.00000  Uiso   1.00
C916   C     0.89034   0.82678   0.45331   0.00000  Uiso   1.00
C917   C     0.77633   0.83989   0.04669   0.00000  Uiso   1.00
C918   C     0.91898   0.80588   0.47666   0.00000  Uiso   1.00
C919   C     0.85815   0.81473   0.04713   0.00000  Uiso   1.00
C920   C     0.74769   0.86079   0.02334   0.00000  Uiso   1.00
C921   C     0.84156   0.83657   0.47611   0.00000  Uiso   1.00
C922   C     0.82511   0.83009   0.02389   0.00000  Uiso   1.00
C923   C     0.97264   0.89285   0.11535   0.00000  Uiso   1.00
C924   C     0.98650   0.92965   0.13905   0.00000  Uiso   1.00
C925   C     0.69403   0.77381   0.38465   0.00000  Uiso   1.00
C926   C     0.68016   0.73701   0.36095   0.00000  Uiso   1.00
C927   C     0.85673   0.78344   0.11598   0.00000  Uiso   1.00
C928   C     0.89915   0.78861   0.13591   0.00000  Uiso   1.00
C929   C     0.80994   0.88322   0.38402   0.00000  Uiso   1.00
C930   C     0.80851   0.85193   0.45287   0.00000  Uiso   1.00
C931   C     0.76752   0.87806   0.36409   0.00000  Uiso   1.00
C932   C     0.91462   0.95871   0.31000   0.00000  Uiso   1.00
C933   C     0.87177   0.96271   0.29017   0.00000  Uiso   1.00
C934   C     0.75204   0.70796   0.19000   0.00000  Uiso   1.00
C935   C     0.79489   0.70395   0.20984   0.00000  Uiso   1.00
C936   C     0.86381   0.76765   0.29984   0.00000  Uiso   1.00
C937   C     0.82558   0.75432   0.34310   0.00000  Uiso   1.00
C938   C     0.80285   0.89902   0.20016   0.00000  Uiso   1.00
C939   C     0.84109   0.91235   0.15690   0.00000  Uiso   1.00
C940   C     0.90327   0.80094   0.02274   0.00000  Uiso   1.00
C941   C     0.76340   0.86573   0.47726   0.00000  Uiso   1.00
C942   C     0.96152   0.68837   0.27595   0.00000  Uiso   1.00
C943   C     0.70515   0.97829   0.22405   0.00000  Uiso   1.00
C944   C     0.95945   0.97889   0.27868   0.00000  Uiso   1.00
Cu945  Cu    0.71355   0.83334   0.25000   0.00000  Uiso   1.00
Cu946  Cu    0.95311   0.83333   0.25000   0.00000  Uiso   1.00
H947   H     0.92797   0.78843   0.04007   0.00000  Uiso   1.00
H948   H     0.89098   0.88786   0.21175   0.00000  Uiso   1.00
H949   H     0.67494   0.91979   0.16164   0.00000  Uiso   1.00
H950   H     0.67483   0.95250   0.11403   0.00000  Uiso   1.00
H951   H     0.95356   0.94473   0.15906   0.00000  Uiso   1.00
H952   H     0.95403   0.90486   0.09080   0.00000  Uiso   1.00
H953   H     0.94553   0.87272   0.13885   0.00000  Uiso   1.00
H954   H     0.99184   0.71416   0.38597   0.00000  Uiso   1.00
H955   H     0.99173   0.74688   0.33836   0.00000  Uiso   1.00
H956   H     0.71311   0.72193   0.34094   0.00000  Uiso   1.00
H957   H     0.72114   0.79394   0.36114   0.00000  Uiso   1.00
H958   H     0.73870   0.87824   0.45993   0.00000  Uiso   1.00
H959   H     0.71263   0.76181   0.40920   0.00000  Uiso   1.00
H960   H     0.86109   0.75520   0.09575   0.00000  Uiso   1.00
H961   H     0.82389   0.77804   0.14426   0.00000  Uiso   1.00
H962   H     0.89160   0.81354   0.16012   0.00000  Uiso   1.00
H963   H     0.90426   0.75965   0.15372   0.00000  Uiso   1.00
H964   H     0.93311   0.79652   0.10977   0.00000  Uiso   1.00
H965   H     0.84278   0.88863   0.35574   0.00000  Uiso   1.00
H966   H     0.80558   0.91147   0.40425   0.00000  Uiso   1.00
H967   H     0.76240   0.90702   0.34628   0.00000  Uiso   1.00
H968   H     0.73356   0.87015   0.39023   0.00000  Uiso   1.00
H969   H     0.76970   0.80558   0.10892   0.00000  Uiso   1.00
H970   H     0.77507   0.85313   0.33988   0.00000  Uiso   1.00
H971   H     0.87961   0.94760   0.25750   0.00000  Uiso   1.00
H972   H     0.83895   0.94814   0.31312   0.00000  Uiso   1.00
H973   H     0.86401   0.99563   0.28514   0.00000  Uiso   1.00
H974   H     0.91985   0.92590   0.31782   0.00000  Uiso   1.00
H975   H     0.90592   0.97411   0.34265   0.00000  Uiso   1.00
H976   H     0.80266   0.67104   0.21486   0.00000  Uiso   1.00
H977   H     0.82771   0.71853   0.18689   0.00000  Uiso   1.00
H978   H     0.78705   0.71906   0.24251   0.00000  Uiso   1.00
H979   H     0.76075   0.69255   0.15735   0.00000  Uiso   1.00
H980   H     0.89696   0.86108   0.39108   0.00000  Uiso   1.00
H981   H     0.74682   0.74076   0.18218   0.00000  Uiso   1.00
H982   H     0.80916   0.78153   0.36176   0.00000  Uiso   1.00
H983   H     0.79714   0.73466   0.33580   0.00000  Uiso   1.00
H984   H     0.84263   0.73557   0.36481   0.00000  Uiso   1.00
H985   H     0.87213   0.74081   0.27791   0.00000  Uiso   1.00
H986   H     0.89536   0.77580   0.31101   0.00000  Uiso   1.00
H987   H     0.86953   0.93201   0.16420   0.00000  Uiso   1.00
H988   H     0.85750   0.88514   0.13824   0.00000  Uiso   1.00
H989   H     0.82404   0.93109   0.13519   0.00000  Uiso   1.00
H990   H     0.77130   0.89087   0.18898   0.00000  Uiso   1.00
H991   H     0.98493   0.77375   0.47249   0.00000  Uiso   1.00
H992   H     0.79454   0.92586   0.22209   0.00000  Uiso   1.00
H993   H     0.68174   0.89291   0.02751   0.00000  Uiso   1.00
H994   H     0.93253   0.70528   0.29742   0.00000  Uiso   1.00
H995   H     0.73413   0.96138   0.20258   0.00000  Uiso   1.00
H996   H     0.77569   0.77881   0.28825   0.00000  Uiso   1.00
N997   N     0.78403   0.83334   0.24999   0.00000  Uiso   1.00
N998   N     0.88264   0.83332   0.25001   0.00000  Uiso   1.00
O999   O     0.70625   0.77322   0.25000   0.00000  Uiso   1.00
O1000  O     0.81664   0.84648   0.40724   0.00000  Uiso   1.00
O1001  O     0.96042   0.89345   0.25000   0.00000  Uiso   1.00
O1002  O     0.96039   0.77321   0.25000   0.00000  Uiso   1.00
O1003  O     0.70628   0.89346   0.24999   0.00000  Uiso   1.00
O1004  O     0.68519   0.83334   0.31491   0.00000  Uiso   1.00
O1005  O     0.98148   0.83332   0.18508   0.00000  Uiso   1.00
O1006  O     0.93933   0.83333   0.31492   0.00000  Uiso   1.00
O1007  O     0.72733   0.83333   0.18508   0.00000  Uiso   1.00
O1008  O     0.85002   0.82019   0.09276   0.00000  Uiso   1.00
C1009  C     0.00058   0.08761   0.74799   0.00000  Uiso   1.00
C1010  C     0.04055   0.02111   0.72132   0.00000  Uiso   1.00
C1011  C     0.33230   0.29038   0.75253   0.00000  Uiso   1.00
C1012  C     0.00103   0.04295   0.74747   0.00000  Uiso   1.00
C1013  C     0.18297   0.13633   0.77335   0.00000  Uiso   1.00
C1014  C     0.15037   0.19700   0.72664   0.00000  Uiso   1.00
C1015  C     0.13420   0.13620   0.77156   0.00000  Uiso   1.00
C1016  C     0.19914   0.19713   0.72844   0.00000  Uiso   1.00
C1017  C     0.30604   0.16407   0.83593   0.00000  Uiso   1.00
C1018  C     0.02729   0.16926   0.66407   0.00000  Uiso   1.00
C1019  C     0.29067   0.15636   0.88486   0.00000  Uiso   1.00
C1020  C     0.33276   0.24573   0.75201   0.00000  Uiso   1.00
C1021  C     0.04267   0.17697   0.61514   0.00000  Uiso   1.00
C1022  C     0.29786   0.12476   0.95409   0.00000  Uiso   1.00
C1023  C     0.03547   0.20858   0.54591   0.00000  Uiso   1.00
C1024  C     0.31629   0.13084   0.90784   0.00000  Uiso   1.00
C1025  C     0.01705   0.20249   0.59216   0.00000  Uiso   1.00
C1026  C     0.24606   0.17194   0.90841   0.00000  Uiso   1.00
C1027  C     0.08728   0.16139   0.59159   0.00000  Uiso   1.00
C1028  C     0.22367   0.16011   0.95331   0.00000  Uiso   1.00
C1029  C     0.10966   0.17322   0.54669   0.00000  Uiso   1.00
C1030  C     0.25231   0.13921   0.97666   0.00000  Uiso   1.00
C1031  C     0.19149   0.14807   0.54713   0.00000  Uiso   1.00
C1032  C     0.08102   0.19412   0.52334   0.00000  Uiso   1.00
C1033  C     0.17489   0.16991   0.97611   0.00000  Uiso   1.00
C1034  C     0.15844   0.16343   0.52389   0.00000  Uiso   1.00
C1035  C     0.30597   0.22619   0.61535   0.00000  Uiso   1.00
C1036  C     0.31984   0.26298   0.63905   0.00000  Uiso   1.00
C1037  C     0.02736   0.10715   0.88465   0.00000  Uiso   1.00
C1038  C     0.01349   0.07035   0.86095   0.00000  Uiso   1.00
C1039  C     0.19006   0.11677   0.61598   0.00000  Uiso   1.00
C1040  C     0.23248   0.12194   0.63591   0.00000  Uiso   1.00
C1041  C     0.14327   0.21656   0.88402   0.00000  Uiso   1.00
C1042  C     0.14185   0.18526   0.95287   0.00000  Uiso   1.00
C1043  C     0.10085   0.21139   0.86409   0.00000  Uiso   1.00
C1044  C     0.24796   0.29204   0.81000   0.00000  Uiso   1.00
C1045  C     0.20511   0.29605   0.79017   0.00000  Uiso   1.00
C1046  C     0.08538   0.04129   0.69000   0.00000  Uiso   1.00
C1047  C     0.12822   0.03729   0.70984   0.00000  Uiso   1.00
C1048  C     0.19714   0.10098   0.79984   0.00000  Uiso   1.00
C1049  C     0.15891   0.08765   0.84310   0.00000  Uiso   1.00
C1050  C     0.13619   0.23235   0.70016   0.00000  Uiso   1.00
C1051  C     0.17442   0.24568   0.65690   0.00000  Uiso   1.00
C1052  C     0.23660   0.13427   0.52274   0.00000  Uiso   1.00
C1053  C     0.09673   0.19906   0.97726   0.00000  Uiso   1.00
C1054  C     0.29485   0.02171   0.77595   0.00000  Uiso   1.00
C1055  C     0.03848   0.31163   0.72405   0.00000  Uiso   1.00
C1056  C     0.29278   0.31222   0.77868   0.00000  Uiso   1.00
Cu1057 Cu    0.04689   0.16667   0.75000   0.00000  Uiso   1.00
Cu1058 Cu    0.28645   0.16666   0.75000   0.00000  Uiso   1.00
H1059  H     0.26130   0.12176   0.54007   0.00000  Uiso   1.00
H1060  H     0.22431   0.22119   0.71175   0.00000  Uiso   1.00
H1061  H     0.00827   0.25312   0.66164   0.00000  Uiso   1.00
H1062  H     0.00816   0.28584   0.61403   0.00000  Uiso   1.00
H1063  H     0.28689   0.27806   0.65906   0.00000  Uiso   1.00
H1064  H     0.28737   0.23819   0.59080   0.00000  Uiso   1.00
H1065  H     0.27886   0.20606   0.63885   0.00000  Uiso   1.00
H1066  H     0.32517   0.04749   0.88597   0.00000  Uiso   1.00
H1067  H     0.32506   0.08021   0.83836   0.00000  Uiso   1.00
H1068  H     0.04644   0.05527   0.84094   0.00000  Uiso   1.00
H1069  H     0.05447   0.12728   0.86114   0.00000  Uiso   1.00
H1070  H     0.07203   0.21157   0.95993   0.00000  Uiso   1.00
H1071  H     0.04597   0.09514   0.90920   0.00000  Uiso   1.00
H1072  H     0.19442   0.08853   0.59575   0.00000  Uiso   1.00
H1073  H     0.15722   0.11137   0.64426   0.00000  Uiso   1.00
H1074  H     0.22493   0.14687   0.66012   0.00000  Uiso   1.00
H1075  H     0.23760   0.09298   0.65372   0.00000  Uiso   1.00
H1076  H     0.26644   0.12985   0.60977   0.00000  Uiso   1.00
H1077  H     0.17611   0.22196   0.85574   0.00000  Uiso   1.00
H1078  H     0.13892   0.24480   0.90425   0.00000  Uiso   1.00
H1079  H     0.09573   0.24035   0.84628   0.00000  Uiso   1.00
H1080  H     0.06689   0.20348   0.89023   0.00000  Uiso   1.00
H1081  H     0.10304   0.13892   0.60892   0.00000  Uiso   1.00
H1082  H     0.10840   0.18646   0.83988   0.00000  Uiso   1.00
H1083  H     0.21295   0.28094   0.75750   0.00000  Uiso   1.00
H1084  H     0.17228   0.28148   0.81312   0.00000  Uiso   1.00
H1085  H     0.19734   0.32896   0.78514   0.00000  Uiso   1.00
H1086  H     0.25318   0.25924   0.81782   0.00000  Uiso   1.00
H1087  H     0.23925   0.30745   0.84265   0.00000  Uiso   1.00
H1088  H     0.13599   0.00437   0.71486   0.00000  Uiso   1.00
H1089  H     0.16105   0.05186   0.68689   0.00000  Uiso   1.00
H1090  H     0.12038   0.05239   0.74251   0.00000  Uiso   1.00
H1091  H     0.09409   0.02589   0.65735   0.00000  Uiso   1.00
H1092  H     0.23030   0.19442   0.89108   0.00000  Uiso   1.00
H1093  H     0.08015   0.07410   0.68218   0.00000  Uiso   1.00
H1094  H     0.14250   0.11486   0.86176   0.00000  Uiso   1.00
H1095  H     0.13047   0.06799   0.83580   0.00000  Uiso   1.00
H1096  H     0.17596   0.06891   0.86481   0.00000  Uiso   1.00
H1097  H     0.20546   0.07414   0.77791   0.00000  Uiso   1.00
H1098  H     0.22870   0.10913   0.81101   0.00000  Uiso   1.00
H1099  H     0.20286   0.26534   0.66420   0.00000  Uiso   1.00
H1100  H     0.19083   0.21847   0.63824   0.00000  Uiso   1.00
H1101  H     0.15737   0.26443   0.63519   0.00000  Uiso   1.00
H1102  H     0.10464   0.22420   0.68898   0.00000  Uiso   1.00
H1103  H     0.31826   0.10708   0.97249   0.00000  Uiso   1.00
H1104  H     0.12787   0.25919   0.72209   0.00000  Uiso   1.00
H1105  H     0.01507   0.22625   0.52751   0.00000  Uiso   1.00
H1106  H     0.26587   0.03862   0.79742   0.00000  Uiso   1.00
H1107  H     0.06747   0.29472   0.70258   0.00000  Uiso   1.00
H1108  H     0.10902   0.11214   0.78825   0.00000  Uiso   1.00
N1109  N     0.11736   0.16668   0.74999   0.00000  Uiso   1.00
N1110  N     0.21597   0.16666   0.75001   0.00000  Uiso   1.00
O1111  O     0.03958   0.10655   0.75000   0.00000  Uiso   1.00
O1112  O     0.14998   0.17981   0.90724   0.00000  Uiso   1.00
O1113  O     0.29375   0.22678   0.75000   0.00000  Uiso   1.00
O1114  O     0.29372   0.10654   0.75000   0.00000  Uiso   1.00
O1115  O     0.03961   0.22679   0.74999   0.00000  Uiso   1.00
O1116  O     0.01852   0.16668   0.81491   0.00000  Uiso   1.00
O1117  O     0.31481   0.16666   0.68508   0.00000  Uiso   1.00
O1118  O     0.27267   0.16667   0.81492   0.00000  Uiso   1.00
O1119  O     0.06067   0.16667   0.68508   0.00000  Uiso   1.00
O1120  O     0.18336   0.15352   0.59276   0.00000  Uiso   1.00
C1121  C     0.33391   0.08761   0.74799   0.00000  Uiso   1.00
C1122  C     0.37389   0.02111   0.72132   0.00000  Uiso   1.00
C1123  C     0.66564   0.29038   0.75253   0.00000  Uiso   1.00
C1124  C     0.33436   0.04295   0.74747   0.00000  Uiso   1.00
C1125  C     0.51630   0.13633   0.77335   0.00000  Uiso   1.00
C1126  C     0.48370   0.19700   0.72664   0.00000  Uiso   1.00
C1127  C     0.46753   0.13620   0.77156   0.00000  Uiso   1.00
C1128  C     0.53247   0.19713   0.72844   0.00000  Uiso   1.00
C1129  C     0.63937   0.16407   0.83593   0.00000  Uiso   1.00
C1130  C     0.36063   0.16926   0.66407   0.00000  Uiso   1.00
C1131  C     0.62400   0.15636   0.88486   0.00000  Uiso   1.00
C1132  C     0.66609   0.24573   0.75201   0.00000  Uiso   1.00
C1133  C     0.37600   0.17697   0.61514   0.00000  Uiso   1.00
C1134  C     0.63119   0.12476   0.95409   0.00000  Uiso   1.00
C1135  C     0.36881   0.20858   0.54591   0.00000  Uiso   1.00
C1136  C     0.64962   0.13084   0.90784   0.00000  Uiso   1.00
C1137  C     0.35038   0.20249   0.59216   0.00000  Uiso   1.00
C1138  C     0.57939   0.17194   0.90841   0.00000  Uiso   1.00
C1139  C     0.42061   0.16139   0.59159   0.00000  Uiso   1.00
C1140  C     0.55700   0.16011   0.95331   0.00000  Uiso   1.00
C1141  C     0.44300   0.17322   0.54669   0.00000  Uiso   1.00
C1142  C     0.58564   0.13921   0.97666   0.00000  Uiso   1.00
C1143  C     0.52482   0.14807   0.54713   0.00000  Uiso   1.00
C1144  C     0.41436   0.19412   0.52334   0.00000  Uiso   1.00
C1145  C     0.50823   0.16991   0.97611   0.00000  Uiso   1.00
C1146  C     0.49177   0.16343   0.52389   0.00000  Uiso   1.00
C1147  C     0.63930   0.22619   0.61535   0.00000  Uiso   1.00
C1148  C     0.65317   0.26298   0.63905   0.00000  Uiso   1.00
C1149  C     0.36069   0.10715   0.88465   0.00000  Uiso   1.00
C1150  C     0.34683   0.07035   0.86095   0.00000  Uiso   1.00
C1151  C     0.52340   0.11677   0.61598   0.00000  Uiso   1.00
C1152  C     0.56581   0.12194   0.63591   0.00000  Uiso   1.00
C1153  C     0.47660   0.21656   0.88402   0.00000  Uiso   1.00
C1154  C     0.47518   0.18526   0.95287   0.00000  Uiso   1.00
C1155  C     0.43419   0.21139   0.86409   0.00000  Uiso   1.00
C1156  C     0.58129   0.29204   0.81000   0.00000  Uiso   1.00
C1157  C     0.53844   0.29605   0.79017   0.00000  Uiso   1.00
C1158  C     0.41871   0.04129   0.69000   0.00000  Uiso   1.00
C1159  C     0.46156   0.03729   0.70984   0.00000  Uiso   1.00
C1160  C     0.53048   0.10098   0.79984   0.00000  Uiso   1.00
C1161  C     0.49224   0.08765   0.84310   0.00000  Uiso   1.00
C1162  C     0.46952   0.23235   0.70016   0.00000  Uiso   1.00
C1163  C     0.50776   0.24568   0.65690   0.00000  Uiso   1.00
C1164  C     0.56994   0.13427   0.52274   0.00000  Uiso   1.00
C1165  C     0.43006   0.19906   0.97726   0.00000  Uiso   1.00
C1166  C     0.62819   0.02171   0.77595   0.00000  Uiso   1.00
C1167  C     0.37181   0.31163   0.72405   0.00000  Uiso   1.00
C1168  C     0.62611   0.31222   0.77868   0.00000  Uiso   1.00
Cu1169 Cu    0.38022   0.16667   0.75000   0.00000  Uiso   1.00
Cu1170 Cu    0.61978   0.16666   0.75000   0.00000  Uiso   1.00
H1171  H     0.59463   0.12176   0.54007   0.00000  Uiso   1.00
H1172  H     0.55764   0.22119   0.71175   0.00000  Uiso   1.00
H1173  H     0.34160   0.25312   0.66164   0.00000  Uiso   1.00
H1174  H     0.34149   0.28584   0.61403   0.00000  Uiso   1.00
H1175  H     0.62023   0.27806   0.65906   0.00000  Uiso   1.00
H1176  H     0.62070   0.23819   0.59080   0.00000  Uiso   1.00
H1177  H     0.61219   0.20606   0.63885   0.00000  Uiso   1.00
H1178  H     0.65851   0.04749   0.88597   0.00000  Uiso   1.00
H1179  H     0.65840   0.08021   0.83836   0.00000  Uiso   1.00
H1180  H     0.37977   0.05527   0.84094   0.00000  Uiso   1.00
H1181  H     0.38781   0.12728   0.86114   0.00000  Uiso   1.00
H1182  H     0.40537   0.21157   0.95993   0.00000  Uiso   1.00
H1183  H     0.37930   0.09514   0.90920   0.00000  Uiso   1.00
H1184  H     0.52775   0.08853   0.59575   0.00000  Uiso   1.00
H1185  H     0.49055   0.11137   0.64426   0.00000  Uiso   1.00
H1186  H     0.55826   0.14687   0.66012   0.00000  Uiso   1.00
H1187  H     0.57093   0.09298   0.65372   0.00000  Uiso   1.00
H1188  H     0.59978   0.12985   0.60977   0.00000  Uiso   1.00
H1189  H     0.50945   0.22196   0.85574   0.00000  Uiso   1.00
H1190  H     0.47225   0.24480   0.90425   0.00000  Uiso   1.00
H1191  H     0.42907   0.24035   0.84628   0.00000  Uiso   1.00
H1192  H     0.40022   0.20348   0.89023   0.00000  Uiso   1.00
H1193  H     0.43637   0.13892   0.60892   0.00000  Uiso   1.00
H1194  H     0.44173   0.18646   0.83988   0.00000  Uiso   1.00
H1195  H     0.54628   0.28094   0.75750   0.00000  Uiso   1.00
H1196  H     0.50562   0.28148   0.81312   0.00000  Uiso   1.00
H1197  H     0.53068   0.32896   0.78514   0.00000  Uiso   1.00
H1198  H     0.58651   0.25924   0.81782   0.00000  Uiso   1.00
H1199  H     0.57258   0.30745   0.84265   0.00000  Uiso   1.00
H1200  H     0.46933   0.00437   0.71486   0.00000  Uiso   1.00
H1201  H     0.49438   0.05186   0.68689   0.00000  Uiso   1.00
H1202  H     0.45371   0.05239   0.74251   0.00000  Uiso   1.00
H1203  H     0.42742   0.02589   0.65735   0.00000  Uiso   1.00
H1204  H     0.56363   0.19442   0.89108   0.00000  Uiso   1.00
H1205  H     0.41349   0.07410   0.68218   0.00000  Uiso   1.00
H1206  H     0.47583   0.11486   0.86176   0.00000  Uiso   1.00
H1207  H     0.46380   0.06799   0.83580   0.00000  Uiso   1.00
H1208  H     0.50929   0.06891   0.86481   0.00000  Uiso   1.00
H1209  H     0.53879   0.07414   0.77791   0.00000  Uiso   1.00
H1210  H     0.56203   0.10913   0.81101   0.00000  Uiso   1.00
H1211  H     0.53620   0.26534   0.66420   0.00000  Uiso   1.00
H1212  H     0.52417   0.21847   0.63824   0.00000  Uiso   1.00
H1213  H     0.49071   0.26443   0.63519   0.00000  Uiso   1.00
H1214  H     0.43797   0.22420   0.68898   0.00000  Uiso   1.00
H1215  H     0.65160   0.10708   0.97249   0.00000  Uiso   1.00
H1216  H     0.46121   0.25919   0.72209   0.00000  Uiso   1.00
H1217  H     0.34840   0.22625   0.52751   0.00000  Uiso   1.00
H1218  H     0.59920   0.03862   0.79742   0.00000  Uiso   1.00
H1219  H     0.40080   0.29472   0.70258   0.00000  Uiso   1.00
H1220  H     0.44236   0.11214   0.78825   0.00000  Uiso   1.00
N1221  N     0.45069   0.16668   0.74999   0.00000  Uiso   1.00
N1222  N     0.54931   0.16666   0.75001   0.00000  Uiso   1.00
O1223  O     0.37291   0.10655   0.75000   0.00000  Uiso   1.00
O1224  O     0.48331   0.17981   0.90724   0.00000  Uiso   1.00
O1225  O     0.62709   0.22678   0.75000   0.00000  Uiso   1.00
O1226  O     0.62706   0.10654   0.75000   0.00000  Uiso   1.00
O1227  O     0.37294   0.22679   0.74999   0.00000  Uiso   1.00
O1228  O     0.35186   0.16668   0.81491   0.00000  Uiso   1.00
O1229  O     0.64814   0.16666   0.68508   0.00000  Uiso   1.00
O1230  O     0.60600   0.16667   0.81492   0.00000  Uiso   1.00
O1231  O     0.39400   0.16667   0.68508   0.00000  Uiso   1.00
O1232  O     0.51669   0.15352   0.59276   0.00000  Uiso   1.00
C1233  C     0.66724   0.08761   0.74799   0.00000  Uiso   1.00
C1234  C     0.70722   0.02111   0.72132   0.00000  Uiso   1.00
C1235  C     0.99897   0.29038   0.75253   0.00000  Uiso   1.00
C1236  C     0.66770   0.04295   0.74747   0.00000  Uiso   1.00
C1237  C     0.84963   0.13633   0.77335   0.00000  Uiso   1.00
C1238  C     0.81703   0.19700   0.72664   0.00000  Uiso   1.00
C1239  C     0.80086   0.13620   0.77156   0.00000  Uiso   1.00
C1240  C     0.86580   0.19713   0.72844   0.00000  Uiso   1.00
C1241  C     0.97270   0.16407   0.83593   0.00000  Uiso   1.00
C1242  C     0.69396   0.16926   0.66407   0.00000  Uiso   1.00
C1243  C     0.95733   0.15636   0.88486   0.00000  Uiso   1.00
C1244  C     0.99942   0.24573   0.75201   0.00000  Uiso   1.00
C1245  C     0.70933   0.17697   0.61514   0.00000  Uiso   1.00
C1246  C     0.96453   0.12476   0.95409   0.00000  Uiso   1.00
C1247  C     0.70214   0.20858   0.54591   0.00000  Uiso   1.00
C1248  C     0.98295   0.13084   0.90784   0.00000  Uiso   1.00
C1249  C     0.68371   0.20249   0.59216   0.00000  Uiso   1.00
C1250  C     0.91272   0.17194   0.90841   0.00000  Uiso   1.00
C1251  C     0.75394   0.16139   0.59159   0.00000  Uiso   1.00
C1252  C     0.89034   0.16011   0.95331   0.00000  Uiso   1.00
C1253  C     0.77633   0.17322   0.54669   0.00000  Uiso   1.00
C1254  C     0.91898   0.13921   0.97666   0.00000  Uiso   1.00
C1255  C     0.85815   0.14807   0.54713   0.00000  Uiso   1.00
C1256  C     0.74769   0.19412   0.52334   0.00000  Uiso   1.00
C1257  C     0.84156   0.16991   0.97611   0.00000  Uiso   1.00
C1258  C     0.82511   0.16343   0.52389   0.00000  Uiso   1.00
C1259  C     0.97264   0.22619   0.61535   0.00000  Uiso   1.00
C1260  C     0.98650   0.26298   0.63905   0.00000  Uiso   1.00
C1261  C     0.69403   0.10715   0.88465   0.00000  Uiso   1.00
C1262  C     0.68016   0.07035   0.86095   0.00000  Uiso   1.00
C1263  C     0.85673   0.11677   0.61598   0.00000  Uiso   1.00
C1264  C     0.89915   0.12194   0.63591   0.00000  Uiso   1.00
C1265  C     0.80994   0.21656   0.88402   0.00000  Uiso   1.00
C1266  C     0.80851   0.18526   0.95287   0.00000  Uiso   1.00
C1267  C     0.76752   0.21139   0.86409   0.00000  Uiso   1.00
C1268  C     0.91462   0.29204   0.81000   0.00000  Uiso   1.00
C1269  C     0.87177   0.29605   0.79017   0.00000  Uiso   1.00
C1270  C     0.75204   0.04129   0.69000   0.00000  Uiso   1.00
C1271  C     0.79489   0.03729   0.70984   0.00000  Uiso   1.00
C1272  C     0.86381   0.10098   0.79984   0.00000  Uiso   1.00
C1273  C     0.82558   0.08765   0.84310   0.00000  Uiso   1.00
C1274  C     0.80285   0.23235   0.70016   0.00000  Uiso   1.00
C1275  C     0.84109   0.24568   0.65690   0.00000  Uiso   1.00
C1276  C     0.90327   0.13427   0.52274   0.00000  Uiso   1.00
C1277  C     0.76340   0.19906   0.97726   0.00000  Uiso   1.00
C1278  C     0.96152   0.02171   0.77595   0.00000  Uiso   1.00
C1279  C     0.70515   0.31163   0.72405   0.00000  Uiso   1.00
C1280  C     0.95945   0.31222   0.77868   0.00000  Uiso   1.00
Cu1281 Cu    0.71355   0.16667   0.75000   0.00000  Uiso   1.00
Cu1282 Cu    0.95311   0.16666   0.75000   0.00000  Uiso   1.00
H1283  H     0.92797   0.12176   0.54007   0.00000  Uiso   1.00
H1284  H     0.89098   0.22119   0.71175   0.00000  Uiso   1.00
H1285  H     0.67494   0.25312   0.66164   0.00000  Uiso   1.00
H1286  H     0.67483   0.28584   0.61403   0.00000  Uiso   1.00
H1287  H     0.95356   0.27806   0.65906   0.00000  Uiso   1.00
H1288  H     0.95403   0.23819   0.59080   0.00000  Uiso   1.00
H1289  H     0.94553   0.20606   0.63885   0.00000  Uiso   1.00
H1290  H     0.99184   0.04749   0.88597   0.00000  Uiso   1.00
H1291  H     0.99173   0.08021   0.83836   0.00000  Uiso   1.00
H1292  H     0.71311   0.05527   0.84094   0.00000  Uiso   1.00
H1293  H     0.72114   0.12728   0.86114   0.00000  Uiso   1.00
H1294  H     0.73870   0.21157   0.95993   0.00000  Uiso   1.00
H1295  H     0.71263   0.09514   0.90920   0.00000  Uiso   1.00
H1296  H     0.86109   0.08853   0.59575   0.00000  Uiso   1.00
H1297  H     0.82389   0.11137   0.64426   0.00000  Uiso   1.00
H1298  H     0.89160   0.14687   0.66012   0.00000  Uiso   1.00
H1299  H     0.90426   0.09298   0.65372   0.00000  Uiso   1.00
H1300  H     0.93311   0.12985   0.60977   0.00000  Uiso   1.00
H1301  H     0.84278   0.22196   0.85574   0.00000  Uiso   1.00
H1302  H     0.80558   0.24480   0.90425   0.00000  Uiso   1.00
H1303  H     0.76240   0.24035   0.84628   0.00000  Uiso   1.00
H1304  H     0.73356   0.20348   0.89023   0.00000  Uiso   1.00
H1305  H     0.76970   0.13892   0.60892   0.00000  Uiso   1.00
H1306  H     0.77507   0.18646   0.83988   0.00000  Uiso   1.00
H1307  H     0.87961   0.28094   0.75750   0.00000  Uiso   1.00
H1308  H     0.83895   0.28148   0.81312   0.00000  Uiso   1.00
H1309  H     0.86401   0.32896   0.78514   0.00000  Uiso   1.00
H1310  H     0.91985   0.25924   0.81782   0.00000  Uiso   1.00
H1311  H     0.90592   0.30745   0.84265   0.00000  Uiso   1.00
H1312  H     0.80266   0.00437   0.71486   0.00000  Uiso   1.00
H1313  H     0.82771   0.05186   0.68689   0.00000  Uiso   1.00
H1314  H     0.78705   0.05239   0.74251   0.00000  Uiso   1.00
H1315  H     0.76075   0.02589   0.65735   0.00000  Uiso   1.00
H1316  H     0.89696   0.19442   0.89108   0.00000  Uiso   1.00
H1317  H     0.74682   0.07410   0.68218   0.00000  Uiso   1.00
H1318  H     0.80916   0.11486   0.86176   0.00000  Uiso   1.00
H1319  H     0.79714   0.06799   0.83580   0.00000  Uiso   1.00
H1320  H     0.84263   0.06891   0.86481   0.00000  Uiso   1.00
H1321  H     0.87213   0.07414   0.77791   0.00000  Uiso   1.00
H1322  H     0.89536   0.10913   0.81101   0.00000  Uiso   1.00
H1323  H     0.86953   0.26534   0.66420   0.00000  Uiso   1.00
H1324  H     0.85750   0.21847   0.63824   0.00000  Uiso   1.00
H1325  H     0.82404   0.26443   0.63519   0.00000  Uiso   1.00
H1326  H     0.77130   0.22420   0.68898   0.00000  Uiso   1.00
H1327  H     0.98493   0.10708   0.97249   0.00000  Uiso   1.00
H1328  H     0.79454   0.25919   0.72209   0.00000  Uiso   1.00
H1329  H     0.68174   0.22625   0.52751   0.00000  Uiso   1.00
H1330  H     0.93253   0.03862   0.79742   0.00000  Uiso   1.00
H1331  H     0.73413   0.29472   0.70258   0.00000  Uiso   1.00
H1332  H     0.77569   0.11214   0.78825   0.00000  Uiso   1.00
N1333  N     0.78403   0.16668   0.74999   0.00000  Uiso   1.00
N1334  N     0.88264   0.16666   0.75001   0.00000  Uiso   1.00
O1335  O     0.70625   0.10655   0.75000   0.00000  Uiso   1.00
O1336  O     0.81664   0.17981   0.90724   0.00000  Uiso   1.00
O1337  O     0.96042   0.22678   0.75000   0.00000  Uiso   1.00
O1338  O     0.96039   0.10654   0.75000   0.00000  Uiso   1.00
O1339  O     0.70628   0.22679   0.74999   0.00000  Uiso   1.00
O1340  O     0.68519   0.16668   0.81491   0.00000  Uiso   1.00
O1341  O     0.98148   0.16666   0.68508   0.00000  Uiso   1.00
O1342  O     0.93933   0.16667   0.81492   0.00000  Uiso   1.00
O1343  O     0.72733   0.16667   0.68508   0.00000  Uiso   1.00
O1344  O     0.85002   0.15352   0.59276   0.00000  Uiso   1.00
C1345  C     0.00058   0.42094   0.74799   0.00000  Uiso   1.00
C1346  C     0.04055   0.35445   0.72132   0.00000  Uiso   1.00
C1347  C     0.33230   0.62371   0.75253   0.00000  Uiso   1.00
C1348  C     0.00103   0.37629   0.74747   0.00000  Uiso   1.00
C1349  C     0.18297   0.46967   0.77335   0.00000  Uiso   1.00
C1350  C     0.15037   0.53033   0.72664   0.00000  Uiso   1.00
C1351  C     0.13420   0.46953   0.77156   0.00000  Uiso   1.00
C1352  C     0.19914   0.53047   0.72844   0.00000  Uiso   1.00
C1353  C     0.30604   0.49741   0.83593   0.00000  Uiso   1.00
C1354  C     0.02729   0.50259   0.66407   0.00000  Uiso   1.00
C1355  C     0.29067   0.48969   0.88486   0.00000  Uiso   1.00
C1356  C     0.33276   0.57906   0.75201   0.00000  Uiso   1.00
C1357  C     0.04267   0.51031   0.61514   0.00000  Uiso   1.00
C1358  C     0.29786   0.45809   0.95409   0.00000  Uiso   1.00
C1359  C     0.03547   0.54191   0.54591   0.00000  Uiso   1.00
C1360  C     0.31629   0.46417   0.90784   0.00000  Uiso   1.00
C1361  C     0.01705   0.53583   0.59216   0.00000  Uiso   1.00
C1362  C     0.24606   0.50528   0.90841   0.00000  Uiso   1.00
C1363  C     0.08728   0.49472   0.59159   0.00000  Uiso   1.00
C1364  C     0.22367   0.49345   0.95331   0.00000  Uiso   1.00
C1365  C     0.10966   0.50655   0.54669   0.00000  Uiso   1.00
C1366  C     0.25231   0.47255   0.97666   0.00000  Uiso   1.00
C1367  C     0.19149   0.48140   0.54713   0.00000  Uiso   1.00
C1368  C     0.08102   0.52745   0.52334   0.00000  Uiso   1.00
C1369  C     0.17489   0.50324   0.97611   0.00000  Uiso   1.00
C1370  C     0.15844   0.49676   0.52389   0.00000  Uiso   1.00
C1371  C     0.30597   0.55952   0.61535   0.00000  Uiso   1.00
C1372  C     0.31984   0.59632   0.63905   0.00000  Uiso   1.00
C1373  C     0.02736   0.44048   0.88465   0.00000  Uiso   1.00
C1374  C     0.01349   0.40368   0.86095   0.00000  Uiso   1.00
C1375  C     0.19006   0.45011   0.61598   0.00000  Uiso   1.00
C1376  C     0.23248   0.45527   0.63591   0.00000  Uiso   1.00
C1377  C     0.14327   0.54989   0.88402   0.00000  Uiso   1.00
C1378  C     0.14185   0.51860   0.95287   0.00000  Uiso   1.00
C1379  C     0.10085   0.54473   0.86409   0.00000  Uiso   1.00
C1380  C     0.24796   0.62537   0.81000   0.00000  Uiso   1.00
C1381  C     0.20511   0.62938   0.79017   0.00000  Uiso   1.00
C1382  C     0.08538   0.37463   0.69000   0.00000  Uiso   1.00
C1383  C     0.12822   0.37062   0.70984   0.00000  Uiso   1.00
C1384  C     0.19714   0.43431   0.79984   0.00000  Uiso   1.00
C1385  C     0.15891   0.42099   0.84310   0.00000  Uiso   1.00
C1386  C     0.13619   0.56569   0.70016   0.00000  Uiso   1.00
C1387  C     0.17442   0.57901   0.65690   0.00000  Uiso   1.00
C1388  C     0.23660   0.46760   0.52274   0.00000  Uiso   1.00
C1389  C     0.09673   0.53240   0.97726   0.00000  Uiso   1.00
C1390  C     0.29485   0.35504   0.77595   0.00000  Uiso   1.00
C1391  C     0.03848   0.64496   0.72405   0.00000  Uiso   1.00
C1392  C     0.29278   0.64555   0.77868   0.00000  Uiso   1.00
Cu1393 Cu    0.04689   0.50001   0.75000   0.00000  Uiso   1.00
Cu1394 Cu    0.28645   0.49999   0.75000   0.00000  Uiso   1.00
H1395  H     0.26130   0.45510   0.54007   0.00000  Uiso   1.00
H1396  H     0.22431   0.55453   0.71175   0.00000  Uiso   1.00
H1397  H     0.00827   0.58645   0.66164   0.00000  Uiso   1.00
H1398  H     0.00816   0.61917   0.61403   0.00000  Uiso   1.00
H1399  H     0.28689   0.61140   0.65906   0.00000  Uiso   1.00
H1400  H     0.28737   0.57152   0.59080   0.00000  Uiso   1.00
H1401  H     0.27886   0.53939   0.63885   0.00000  Uiso   1.00
H1402  H     0.32517   0.38083   0.88597   0.00000  Uiso   1.00
H1403  H     0.32506   0.41355   0.83836   0.00000  Uiso   1.00
H1404  H     0.04644   0.38860   0.84094   0.00000  Uiso   1.00
H1405  H     0.05447   0.46061   0.86114   0.00000  Uiso   1.00
H1406  H     0.07203   0.54490   0.95993   0.00000  Uiso   1.00
H1407  H     0.04597   0.42848   0.90920   0.00000  Uiso   1.00
H1408  H     0.19442   0.42187   0.59575   0.00000  Uiso   1.00
H1409  H     0.15722   0.44470   0.64426   0.00000  Uiso   1.00
H1410  H     0.22493   0.48021   0.66012   0.00000  Uiso   1.00
H1411  H     0.23760   0.42631   0.65372   0.00000  Uiso   1.00
H1412  H     0.26644   0.46318   0.60977   0.00000  Uiso   1.00
H1413  H     0.17611   0.55529   0.85574   0.00000  Uiso   1.00
H1414  H     0.13892   0.57813   0.90425   0.00000  Uiso   1.00
H1415  H     0.09573   0.57369   0.84628   0.00000  Uiso   1.00
H1416  H     0.06689   0.53681   0.89023   0.00000  Uiso   1.00
H1417  H     0.10304   0.47225   0.60892   0.00000  Uiso   1.00
H1418  H     0.10840   0.51980   0.83988   0.00000  Uiso   1.00
H1419  H     0.21295   0.61427   0.75750   0.00000  Uiso   1.00
H1420  H     0.17228   0.61481   0.81312   0.00000  Uiso   1.00
H1421  H     0.19734   0.66230   0.78514   0.00000  Uiso   1.00
H1422  H     0.25318   0.59257   0.81782   0.00000  Uiso   1.00
H1423  H     0.23925   0.64078   0.84265   0.00000  Uiso   1.00
H1424  H     0.13599   0.33770   0.71486   0.00000  Uiso   1.00
H1425  H     0.16105   0.38520   0.68689   0.00000  Uiso   1.00
H1426  H     0.12038   0.38572   0.74251   0.00000  Uiso   1.00
H1427  H     0.09409   0.35922   0.65735   0.00000  Uiso   1.00
H1428  H     0.23030   0.52775   0.89108   0.00000  Uiso   1.00
H1429  H     0.08015   0.40743   0.68218   0.00000  Uiso   1.00
H1430  H     0.14250   0.44820   0.86176   0.00000  Uiso   1.00
H1431  H     0.13047   0.40132   0.83580   0.00000  Uiso   1.00
H1432  H     0.17596   0.40224   0.86481   0.00000  Uiso   1.00
H1433  H     0.20546   0.40747   0.77791   0.00000  Uiso   1.00
H1434  H     0.22870   0.44246   0.81101   0.00000  Uiso   1.00
H1435  H     0.20286   0.59868   0.66420   0.00000  Uiso   1.00
H1436  H     0.19083   0.55180   0.63824   0.00000  Uiso   1.00
H1437  H     0.15737   0.59776   0.63519   0.00000  Uiso   1.00
H1438  H     0.10464   0.55754   0.68898   0.00000  Uiso   1.00
H1439  H     0.31826   0.44042   0.97249   0.00000  Uiso   1.00
H1440  H     0.12787   0.59253   0.72209   0.00000  Uiso   1.00
H1441  H     0.01507   0.55958   0.52751   0.00000  Uiso   1.00
H1442  H     0.26587   0.37195   0.79742   0.00000  Uiso   1.00
H1443  H     0.06747   0.62805   0.70258   0.00000  Uiso   1.00
H1444  H     0.10902   0.44547   0.78825   0.00000  Uiso   1.00
N1445  N     0.11736   0.50001   0.74999   0.00000  Uiso   1.00
N1446  N     0.21597   0.49999   0.75001   0.00000  Uiso   1.00
O1447  O     0.03958   0.43989   0.75000   0.00000  Uiso   1.00
O1448  O     0.14998   0.51315   0.90724   0.00000  Uiso   1.00
O1449  O     0.29375   0.56011   0.75000   0.00000  Uiso   1.00
O1450  O     0.29372   0.43988   0.75000   0.00000  Uiso   1.00
O1451  O     0.03961   0.56012   0.74999   0.00000  Uiso   1.00
O1452  O     0.01852   0.50001   0.81491   0.00000  Uiso   1.00
O1453  O     0.31481   0.49999   0.68508   0.00000  Uiso   1.00
O1454  O     0.27267   0.50000   0.81492   0.00000  Uiso   1.00
O1455  O     0.06067   0.50000   0.68508   0.00000  Uiso   1.00
O1456  O     0.18336   0.48685   0.59276   0.00000  Uiso   1.00
C1457  C     0.33391   0.42094   0.74799   0.00000  Uiso   1.00
C1458  C     0.37389   0.35445   0.72132   0.00000  Uiso   1.00
C1459  C     0.66564   0.62371   0.75253   0.00000  Uiso   1.00
C1460  C     0.33436   0.37629   0.74747   0.00000  Uiso   1.00
C1461  C     0.51630   0.46967   0.77335   0.00000  Uiso   1.00
C1462  C     0.48370   0.53033   0.72664   0.00000  Uiso   1.00
C1463  C     0.46753   0.46953   0.77156   0.00000  Uiso   1.00
C1464  C     0.53247   0.53047   0.72844   0.00000  Uiso   1.00
C1465  C     0.63937   0.49741   0.83593   0.00000  Uiso   1.00
C1466  C     0.36063   0.50259   0.66407   0.00000  Uiso   1.00
C1467  C     0.62400   0.48969   0.88486   0.00000  Uiso   1.00
C1468  C     0.66609   0.57906   0.75201   0.00000  Uiso   1.00
C1469  C     0.37600   0.51031   0.61514   0.00000  Uiso   1.00
C1470  C     0.63119   0.45809   0.95409   0.00000  Uiso   1.00
C1471  C     0.36881   0.54191   0.54591   0.00000  Uiso   1.00
C1472  C     0.64962   0.46417   0.90784   0.00000  Uiso   1.00
C1473  C     0.35038   0.53583   0.59216   0.00000  Uiso   1.00
C1474  C     0.57939   0.50528   0.90841   0.00000  Uiso   1.00
C1475  C     0.42061   0.49472   0.59159   0.00000  Uiso   1.00
C1476  C     0.55700   0.49345   0.95331   0.00000  Uiso   1.00
C1477  C     0.44300   0.50655   0.54669   0.00000  Uiso   1.00
C1478  C     0.58564   0.47255   0.97666   0.00000  Uiso   1.00
C1479  C     0.52482   0.48140   0.54713   0.00000  Uiso   1.00
C1480  C     0.41436   0.52745   0.52334   0.00000  Uiso   1.00
C1481  C     0.50823   0.50324   0.97611   0.00000  Uiso   1.00
C1482  C     0.49177   0.49676   0.52389   0.00000  Uiso   1.00
C1483  C     0.63930   0.55952   0.61535   0.00000  Uiso   1.00
C1484  C     0.65317   0.59632   0.63905   0.00000  Uiso   1.00
C1485  C     0.36069   0.44048   0.88465   0.00000  Uiso   1.00
C1486  C     0.34683   0.40368   0.86095   0.00000  Uiso   1.00
C1487  C     0.52340   0.45011   0.61598   0.00000  Uiso   1.00
C1488  C     0.56581   0.45527   0.63591   0.00000  Uiso   1.00
C1489  C     0.47660   0.54989   0.88402   0.00000  Uiso   1.00
C1490  C     0.47518   0.51860   0.95287   0.00000  Uiso   1.00
C1491  C     0.43419   0.54473   0.86409   0.00000  Uiso   1.00
C1492  C     0.58129   0.62537   0.81000   0.00000  Uiso   1.00
C1493  C     0.53844   0.62938   0.79017   0.00000  Uiso   1.00
C1494  C     0.41871   0.37463   0.69000   0.00000  Uiso   1.00
C1495  C     0.46156   0.37062   0.70984   0.00000  Uiso   1.00
C1496  C     0.53048   0.43431   0.79984   0.00000  Uiso   1.00
C1497  C     0.49224   0.42099   0.84310   0.00000  Uiso   1.00
C1498  C     0.46952   0.56569   0.70016   0.00000  Uiso   1.00
C1499  C     0.50776   0.57901   0.65690   0.00000  Uiso   1.00
C1500  C     0.56994   0.46760   0.52274   0.00000  Uiso   1.00
C1501  C     0.43006   0.53240   0.97726   0.00000  Uiso   1.00
C1502  C     0.62819   0.35504   0.77595   0.00000  Uiso   1.00
C1503  C     0.37181   0.64496   0.72405   0.00000  Uiso   1.00
C1504  C     0.62611   0.64555   0.77868   0.00000  Uiso   1.00
Cu1505 Cu    0.38022   0.50001   0.75000   0.00000  Uiso   1.00
Cu1506 Cu    0.61978   0.49999   0.75000   0.00000  Uiso   1.00
H1507  H     0.59463   0.45510   0.54007   0.00000  Uiso   1.00
H1508  H     0.55764   0.55453   0.71175   0.00000  Uiso   1.00
H1509  H     0.34160   0.58645   0.66164   0.00000  Uiso   1.00
H1510  H     0.34149   0.61917   0.61403   0.00000  Uiso   1.00
H1511  H     0.62023   0.61140   0.65906   0.00000  Uiso   1.00
H1512  H     0.62070   0.57152   0.59080   0.00000  Uiso   1.00
H1513  H     0.61219   0.53939   0.63885   0.00000  Uiso   1.00
H1514  H     0.65851   0.38083   0.88597   0.00000  Uiso   1.00
H1515  H     0.65840   0.41355   0.83836   0.00000  Uiso   1.00
H1516  H     0.37977   0.38860   0.84094   0.00000  Uiso   1.00
H1517  H     0.38781   0.46061   0.86114   0.00000  Uiso   1.00
H1518  H     0.40537   0.54490   0.95993   0.00000  Uiso   1.00
H1519  H     0.37930   0.42848   0.90920   0.00000  Uiso   1.00
H1520  H     0.52775   0.42187   0.59575   0.00000  Uiso   1.00
H1521  H     0.49055   0.44470   0.64426   0.00000  Uiso   1.00
H1522  H     0.55826   0.48021   0.66012   0.00000  Uiso   1.00
H1523  H     0.57093   0.42631   0.65372   0.00000  Uiso   1.00
H1524  H     0.59978   0.46318   0.60977   0.00000  Uiso   1.00
H1525  H     0.50945   0.55529   0.85574   0.00000  Uiso   1.00
H1526  H     0.47225   0.57813   0.90425   0.00000  Uiso   1.00
H1527  H     0.42907   0.57369   0.84628   0.00000  Uiso   1.00
H1528  H     0.40022   0.53681   0.89023   0.00000  Uiso   1.00
H1529  H     0.43637   0.47225   0.60892   0.00000  Uiso   1.00
H1530  H     0.44173   0.51980   0.83988   0.00000  Uiso   1.00
H1531  H     0.54628   0.61427   0.75750   0.00000  Uiso   1.00
H1532  H     0.50562   0.61481   0.81312   0.00000  Uiso   1.00
H1533  H     0.53068   0.66230   0.78514   0.00000  Uiso   1.00
H1534  H     0.58651   0.59257   0.81782   0.00000  Uiso   1.00
H1535  H     0.57258   0.64078   0.84265   0.00000  Uiso   1.00
H1536  H     0.46933   0.33770   0.71486   0.00000  Uiso   1.00
H1537  H     0.49438   0.38520   0.68689   0.00000  Uiso   1.00
H1538  H     0.45371   0.38572   0.74251   0.00000  Uiso   1.00
H1539  H     0.42742   0.35922   0.65735   0.00000  Uiso   1.00
H1540  H     0.56363   0.52775   0.89108   0.00000  Uiso   1.00
H1541  H     0.41349   0.40743   0.68218   0.00000  Uiso   1.00
H1542  H     0.47583   0.44820   0.86176   0.00000  Uiso   1.00
H1543  H     0.46380   0.40132   0.83580   0.00000  Uiso   1.00
H1544  H     0.50929   0.40224   0.86481   0.00000  Uiso   1.00
H1545  H     0.53879   0.40747   0.77791   0.00000  Uiso   1.00
H1546  H     0.56203   0.44246   0.81101   0.00000  Uiso   1.00
H1547  H     0.53620   0.59868   0.66420   0.00000  Uiso   1.00
H1548  H     0.52417   0.55180   0.63824   0.00000  Uiso   1.00
H1549  H     0.49071   0.59776   0.63519   0.00000  Uiso   1.00
H1550  H     0.43797   0.55754   0.68898   0.00000  Uiso   1.00
H1551  H     0.65160   0.44042   0.97249   0.00000  Uiso   1.00
H1552  H     0.46121   0.59253   0.72209   0.00000  Uiso   1.00
H1553  H     0.34840   0.55958   0.52751   0.00000  Uiso   1.00
H1554  H     0.59920   0.37195   0.79742   0.00000  Uiso   1.00
H1555  H     0.40080   0.62805   0.70258   0.00000  Uiso   1.00
H1556  H     0.44236   0.44547   0.78825   0.00000  Uiso   1.00
N1557  N     0.45069   0.50001   0.74999   0.00000  Uiso   1.00
N1558  N     0.54931   0.49999   0.75001   0.00000  Uiso   1.00
O1559  O     0.37291   0.43989   0.75000   0.00000  Uiso   1.00
O1560  O     0.48331   0.51315   0.90724   0.00000  Uiso   1.00
O1561  O     0.62709   0.56011   0.75000   0.00000  Uiso   1.00
O1562  O     0.62706   0.43988   0.75000   0.00000  Uiso   1.00
O1563  O     0.37294   0.56012   0.74999   0.00000  Uiso   1.00
O1564  O     0.35186   0.50001   0.81491   0.00000  Uiso   1.00
O1565  O     0.64814   0.49999   0.68508   0.00000  Uiso   1.00
O1566  O     0.60600   0.50000   0.81492   0.00000  Uiso   1.00
O1567  O     0.39400   0.50000   0.68508   0.00000  Uiso   1.00
O1568  O     0.51669   0.48685   0.59276   0.00000  Uiso   1.00
C1569  C     0.66724   0.42094   0.74799   0.00000  Uiso   1.00
C1570  C     0.70722   0.35445   0.72132   0.00000  Uiso   1.00
C1571  C     0.99897   0.62371   0.75253   0.00000  Uiso   1.00
C1572  C     0.66770   0.37629   0.74747   0.00000  Uiso   1.00
C1573  C     0.84963   0.46967   0.77335   0.00000  Uiso   1.00
C1574  C     0.81703   0.53033   0.72664   0.00000  Uiso   1.00
C1575  C     0.80086   0.46953   0.77156   0.00000  Uiso   1.00
C1576  C     0.86580   0.53047   0.72844   0.00000  Uiso   1.00
C1577  C     0.97270   0.49741   0.83593   0.00000  Uiso   1.00
C1578  C     0.69396   0.50259   0.66407   0.00000  Uiso   1.00
C1579  C     0.95733   0.48969   0.88486   0.00000  Uiso   1.00
C1580  C     0.99942   0.57906   0.75201   0.00000  Uiso   1.00
C1581  C     0.70933   0.51031   0.61514   0.00000  Uiso   1.00
C1582  C     0.96453   0.45809   0.95409   0.00000  Uiso   1.00
C1583  C     0.70214   0.54191   0.54591   0.00000  Uiso   1.00
C1584  C     0.98295   0.46417   0.90784   0.00000  Uiso   1.00
C1585  C     0.68371   0.53583   0.59216   0.00000  Uiso   1.00
C1586  C     0.91272   0.50528   0.90841   0.00000  Uiso   1.00
C1587  C     0.75394   0.49472   0.59159   0.00000  Uiso   1.00
C1588  C     0.89034   0.49345   0.95331   0.00000  Uiso   1.00
C1589  C     0.77633   0.50655   0.54669   0.00000  Uiso   1.00
C1590  C     0.91898   0.47255   0.97666   0.00000  Uiso   1.00
C1591  C     0.85815   0.48140   0.54713   0.00000  Uiso   1.00
C1592  C     0.74769   0.52745   0.52334   0.00000  Uiso   1.00
C1593  C     0.84156   0.50324   0.97611   0.00000  Uiso   1.00
C1594  C     0.82511   0.49676   0.52389   0.00000  Uiso   1.00
C1595  C     0.97264   0.55952   0.61535   0.00000  Uiso   1.00
C1596  C     0.98650   0.59632   0.63905   0.00000  Uiso   1.00
C1597  C     0.69403   0.44048   0.88465   0.00000  Uiso   1.00
C1598  C     0.68016   0.40368   0.86095   0.00000  Uiso   1.00
C1599  C     0.85673   0.45011   0.61598   0.00000  Uiso   1.00
C1600  C     0.89915   0.45527   0.63591   0.00000  Uiso   1.00
C1601  C     0.80994   0.54989   0.88402   0.00000  Uiso   1.00
C1602  C     0.80851   0.51860   0.95287   0.00000  Uiso   1.00
C1603  C     0.76752   0.54473   0.86409   0.00000  Uiso   1.00
C1604  C     0.91462   0.62537   0.81000   0.00000  Uiso   1.00
C1605  C     0.87177   0.62938   0.79017   0.00000  Uiso   1.00
C1606  C     0.75204   0.37463   0.69000   0.00000  Uiso   1.00
C1607  C     0.79489   0.37062   0.70984   0.00000  Uiso   1.00
C1608  C     0.86381   0.43431   0.79984   0.00000  Uiso   1.00
C1609  C     0.82558   0.42099   0.84310   0.00000  Uiso   1.00
C1610  C     0.80285   0.56569   0.70016   0.00000  Uiso   1.00
C1611  C     0.84109   0.57901   0.65690   0.00000  Uiso   1.00
C1612  C     0.90327   0.46760   0.52274   0.00000  Uiso   1.00
C1613  C     0.76340   0.53240   0.97726   0.00000  Uiso   1.00
C1614  C     0.96152   0.35504   0.77595   0.00000  Uiso   1.00
C1615  C     0.70515   0.64496   0.72405   0.00000  Uiso   1.00
C1616  C     0.95945   0.64555   0.77868   0.00000  Uiso   1.00
Cu1617 Cu    0.71355   0.50001   0.75000   0.00000  Uiso   1.00
Cu1618 Cu    0.95311   0.49999   0.75000   0.00000  Uiso   1.00
H1619  H     0.92797   0.45510   0.54007   0.00000  Uiso   1.00
H1620  H     0.89098   0.55453   0.71175   0.00000  Uiso   1.00
H1621  H     0.67494   0.58645   0.66164   0.00000  Uiso   1.00
H1622  H     0.67483   0.61917   0.61403   0.00000  Uiso   1.00
H1623  H     0.95356   0.61140   0.65906   0.00000  Uiso   1.00
H1624  H     0.95403   0.57152   0.59080   0.00000  Uiso   1.00
H1625  H     0.94553   0.53939   0.63885   0.00000  Uiso   1.00
H1626  H     0.99184   0.38083   0.88597   0.00000  Uiso   1.00
H1627  H     0.99173   0.41355   0.83836   0.00000  Uiso   1.00
H1628  H     0.71311   0.38860   0.84094   0.00000  Uiso   1.00
H1629  H     0.72114   0.46061   0.86114   0.00000  Uiso   1.00
H1630  H     0.73870   0.54490   0.95993   0.00000  Uiso   1.00
H1631  H     0.71263   0.42848   0.90920   0.00000  Uiso   1.00
H1632  H     0.86109   0.42187   0.59575   0.00000  Uiso   1.00
H1633  H     0.82389   0.44470   0.64426   0.00000  Uiso   1.00
H1634  H     0.89160   0.48021   0.66012   0.00000  Uiso   1.00
H1635  H     0.90426   0.42631   0.65372   0.00000  Uiso   1.00
H1636  H     0.93311   0.46318   0.60977   0.00000  Uiso   1.00
H1637  H     0.84278   0.55529   0.85574   0.00000  Uiso   1.00
H1638  H     0.80558   0.57813   0.90425   0.00000  Uiso   1.00
H1639  H     0.76240   0.57369   0.84628   0.00000  Uiso   1.00
H1640  H     0.73356   0.53681   0.89023   0.00000  Uiso   1.00
H1641  H     0.76970   0.47225   0.60892   0.00000  Uiso   1.00
H1642  H     0.77507   0.51980   0.83988   0.00000  Uiso   1.00
H1643  H     0.87961   0.61427   0.75750   0.00000  Uiso   1.00
H1644  H     0.83895   0.61481   0.81312   0.00000  Uiso   1.00
H1645  H     0.86401   0.66230   0.78514   0.00000  Uiso   1.00
H1646  H     0.91985   0.59257   0.81782   0.00000  Uiso   1.00
H1647  H     0.90592   0.64078   0.84265   0.00000  Uiso   1.00
H1648  H     0.80266   0.33770   0.71486   0.00000  Uiso   1.00
H1649  H     0.82771   0.38520   0.68689   0.00000  Uiso   1.00
H1650  H     0.78705   0.38572   0.74251   0.00000  Uiso   1.00
H1651  H     0.76075   0.35922   0.65735   0.00000  Uiso   1.00
H1652  H     0.89696   0.52775   0.89108   0.00000  Uiso   1.00
H1653  H     0.74682   0.40743   0.68218   0.00000  Uiso   1.00
H1654  H     0.80916   0.44820   0.86176   0.00000  Uiso   1.00
H1655  H     0.79714   0.40132   0.83580   0.00000  Uiso   1.00
H1656  H     0.84263   0.40224   0.86481   0.00000  Uiso   1.00
H1657  H     0.87213   0.40747   0.77791   0.00000  Uiso   1.00
H1658  H     0.89536   0.44246   0.81101   0.00000  Uiso   1.00
H1659  H     0.86953   0.59868   0.66420   0.00000  Uiso   1.00
H1660  H     0.85750   0.55180   0.63824   0.00000  Uiso   1.00
H1661  H     0.82404   0.59776   0.63519   0.00000  Uiso   1.00
H1662  H     0.77130   0.55754   0.68898   0.00000  Uiso   1.00
H1663  H     0.98493   0.44042   0.97249   0.00000  Uiso   1.00
H1664  H     0.79454   0.59253   0.72209   0.00000  Uiso   1.00
H1665  H     0.68174   0.55958   0.52751   0.00000  Uiso   1.00
H1666  H     0.93253   0.37195   0.79742   0.00000  Uiso   1.00
H1667  H     0.73413   0.62805   0.70258   0.00000  Uiso   1.00
H1668  H     0.77569   0.44547   0.78825   0.00000  Uiso   1.00
N1669  N     0.78403   0.50001   0.74999   0.00000  Uiso   1.00
N1670  N     0.88264   0.49999   0.75001   0.00000  Uiso   1.00
O1671  O     0.70625   0.43989   0.75000   0.00000  Uiso   1.00
O1672  O     0.81664   0.51315   0.90724   0.00000  Uiso   1.00
O1673  O     0.96042   0.56011   0.75000   0.00000  Uiso   1.00
O1674  O     0.96039   0.43988   0.75000   0.00000  Uiso   1.00
O1675  O     0.70628   0.56012   0.74999   0.00000  Uiso   1.00
O1676  O     0.68519   0.50001   0.81491   0.00000  Uiso   1.00
O1677  O     0.98148   0.49999   0.68508   0.00000  Uiso   1.00
O1678  O     0.93933   0.50000   0.81492   0.00000  Uiso   1.00
O1679  O     0.72733   0.50000   0.68508   0.00000  Uiso   1.00
O1680  O     0.85002   0.48685   0.59276   0.00000  Uiso   1.00
C1681  C     0.00058   0.75427   0.74799   0.00000  Uiso   1.00
C1682  C     0.04055   0.68778   0.72132   0.00000  Uiso   1.00
C1683  C     0.33230   0.95705   0.75253   0.00000  Uiso   1.00
C1684  C     0.00103   0.70962   0.74747   0.00000  Uiso   1.00
C1685  C     0.18297   0.80300   0.77335   0.00000  Uiso   1.00
C1686  C     0.15037   0.86366   0.72664   0.00000  Uiso   1.00
C1687  C     0.13420   0.80287   0.77156   0.00000  Uiso   1.00
C1688  C     0.19914   0.86380   0.72844   0.00000  Uiso   1.00
C1689  C     0.30604   0.83074   0.83593   0.00000  Uiso   1.00
C1690  C     0.02729   0.83593   0.66407   0.00000  Uiso   1.00
C1691  C     0.29067   0.82303   0.88486   0.00000  Uiso   1.00
C1692  C     0.33276   0.91239   0.75201   0.00000  Uiso   1.00
C1693  C     0.04267   0.84364   0.61514   0.00000  Uiso   1.00
C1694  C     0.29786   0.79142   0.95409   0.00000  Uiso   1.00
C1695  C     0.03547   0.87524   0.54591   0.00000  Uiso   1.00
C1696  C     0.31629   0.79751   0.90784   0.00000  Uiso   1.00
C1697  C     0.01705   0.86916   0.59216   0.00000  Uiso   1.00
C1698  C     0.24606   0.83861   0.90841   0.00000  Uiso   1.00
C1699  C     0.08728   0.82806   0.59159   0.00000  Uiso   1.00
C1700  C     0.22367   0.82678   0.95331   0.00000  Uiso   1.00
C1701  C     0.10966   0.83989   0.54669   0.00000  Uiso   1.00
C1702  C     0.25231   0.80588   0.97666   0.00000  Uiso   1.00
C1703  C     0.19149   0.81473   0.54713   0.00000  Uiso   1.00
C1704  C     0.08102   0.86079   0.52334   0.00000  Uiso   1.00
C1705  C     0.17489   0.83657   0.97611   0.00000  Uiso   1.00
C1706  C     0.15844   0.83009   0.52389   0.00000  Uiso   1.00
C1707  C     0.30597   0.89285   0.61535   0.00000  Uiso   1.00
C1708  C     0.31984   0.92965   0.63905   0.00000  Uiso   1.00
C1709  C     0.02736   0.77381   0.88465   0.00000  Uiso   1.00
C1710  C     0.01349   0.73701   0.86095   0.00000  Uiso   1.00
C1711  C     0.19006   0.78344   0.61598   0.00000  Uiso   1.00
C1712  C     0.23248   0.78861   0.63591   0.00000  Uiso   1.00
C1713  C     0.14327   0.88322   0.88402   0.00000  Uiso   1.00
C1714  C     0.14185   0.85193   0.95287   0.00000  Uiso   1.00
C1715  C     0.10085   0.87806   0.86409   0.00000  Uiso   1.00
C1716  C     0.24796   0.95871   0.81000   0.00000  Uiso   1.00
C1717  C     0.20511   0.96271   0.79017   0.00000  Uiso   1.00
C1718  C     0.08538   0.70796   0.69000   0.00000  Uiso   1.00
C1719  C     0.12822   0.70395   0.70984   0.00000  Uiso   1.00
C1720  C     0.19714   0.76765   0.79984   0.00000  Uiso   1.00
C1721  C     0.15891   0.75432   0.84310   0.00000  Uiso   1.00
C1722  C     0.13619   0.89902   0.70016   0.00000  Uiso   1.00
C1723  C     0.17442   0.91235   0.65690   0.00000  Uiso   1.00
C1724  C     0.23660   0.80094   0.52274   0.00000  Uiso   1.00
C1725  C     0.09673   0.86573   0.97726   0.00000  Uiso   1.00
C1726  C     0.29485   0.68837   0.77595   0.00000  Uiso   1.00
C1727  C     0.03848   0.97829   0.72405   0.00000  Uiso   1.00
C1728  C     0.29278   0.97889   0.77868   0.00000  Uiso   1.00
Cu1729 Cu    0.04689   0.83334   0.75000   0.00000  Uiso   1.00
Cu1730 Cu    0.28645   0.83333   0.75000   0.00000  Uiso   1.00
H1731  H     0.26130   0.78843   0.54007   0.00000  Uiso   1.00
H1732  H     0.22431   0.88786   0.71175   0.00000  Uiso   1.00
H1733  H     0.00827   0.91979   0.66164   0.00000  Uiso   1.00
H1734  H     0.00816   0.95250   0.61403   0.00000  Uiso   1.00
H1735  H     0.28689   0.94473   0.65906   0.00000  Uiso   1.00
H1736  H     0.28737   0.90486   0.59080   0.00000  Uiso   1.00
H1737  H     0.27886   0.87272   0.63885   0.00000  Uiso   1.00
H1738  H     0.32517   0.71416   0.88597   0.00000  Uiso   1.00
H1739  H     0.32506   0.74688   0.83836   0.00000  Uiso   1.00
H1740  H     0.04644   0.72193   0.84094   0.00000  Uiso   1.00
H1741  H     0.05447   0.79394   0.86114   0.00000  Uiso   1.00
H1742  H     0.07203   0.87824   0.95993   0.00000  Uiso   1.00
H1743  H     0.04597   0.76181   0.90920   0.00000  Uiso   1.00
H1744  H     0.19442   0.75520   0.59575   0.00000  Uiso   1.00
H1745  H     0.15722   0.77804   0.64426   0.00000  Uiso   1.00
H1746  H     0.22493   0.81354   0.66012   0.00000  Uiso   1.00
H1747  H     0.23760   0.75965   0.65372   0.00000  Uiso   1.00
H1748  H     0.26644   0.79652   0.60977   0.00000  Uiso   1.00
H1749  H     0.17611   0.88863   0.85574   0.00000  Uiso   1.00
H1750  H     0.13892   0.91147   0.90425   0.00000  Uiso   1.00
H1751  H     0.09573   0.90702   0.84628   0.00000  Uiso   1.00
H1752  H     0.06689   0.87015   0.89023   0.00000  Uiso   1.00
H1753  H     0.10304   0.80558   0.60892   0.00000  Uiso   1.00
H1754  H     0.10840   0.85313   0.83988   0.00000  Uiso   1.00
H1755  H     0.21295   0.94760   0.75750   0.00000  Uiso   1.00
H1756  H     0.17228   0.94814   0.81312   0.00000  Uiso   1.00
H1757  H     0.19734   0.99563   0.78514   0.00000  Uiso   1.00
H1758  H     0.25318   0.92590   0.81782   0.00000  Uiso   1.00
H1759  H     0.23925   0.97411   0.84265   0.00000  Uiso   1.00
H1760  H     0.13599   0.67104   0.71486   0.00000  Uiso   1.00
H1761  H     0.16105   0.71853   0.68689   0.00000  Uiso   1.00
H1762  H     0.12038   0.71906   0.74251   0.00000  Uiso   1.00
H1763  H     0.09409   0.69255   0.65735   0.00000  Uiso   1.00
H1764  H     0.23030   0.86108   0.89108   0.00000  Uiso   1.00
H1765  H     0.08015   0.74076   0.68218   0.00000  Uiso   1.00
H1766  H     0.14250   0.78153   0.86176   0.00000  Uiso   1.00
H1767  H     0.13047   0.73466   0.83580   0.00000  Uiso   1.00
H1768  H     0.17596   0.73557   0.86481   0.00000  Uiso   1.00
H1769  H     0.20546   0.74081   0.77791   0.00000  Uiso   1.00
H1770  H     0.22870   0.77580   0.81101   0.00000  Uiso   1.00
H1771  H     0.20286   0.93201   0.66420   0.00000  Uiso   1.00
H1772  H     0.19083   0.88514   0.63824   0.00000  Uiso   1.00
H1773  H     0.15737   0.93109   0.63519   0.00000  Uiso   1.00
H1774  H     0.10464   0.89087   0.68898   0.00000  Uiso   1.00
H1775  H     0.31826   0.77375   0.97249   0.00000  Uiso   1.00
H1776  H     0.12787   0.92586   0.72209   0.00000  Uiso   1.00
H1777  H     0.01507   0.89291   0.52751   0.00000  Uiso   1.00
H1778  H     0.26587   0.70528   0.79742   0.00000  Uiso   1.00
H1779  H     0.06747   0.96138   0.70258   0.00000  Uiso   1.00
H1780  H     0.10902   0.77881   0.78825   0.00000  Uiso   1.00
N1781  N     0.11736   0.83334   0.74999   0.00000  Uiso   1.00
N1782  N     0.21597   0.83332   0.75001   0.00000  Uiso   1.00
O1783  O     0.03958   0.77322   0.75000   0.00000  Uiso   1.00
O1784  O     0.14998   0.84648   0.90724   0.00000  Uiso   1.00
O1785  O     0.29375   0.89345   0.75000   0.00000  Uiso   1.00
O1786  O     0.29372   0.77321   0.75000   0.00000  Uiso   1.00
O1787  O     0.03961   0.89346   0.74999   0.00000  Uiso   1.00
O1788  O     0.01852   0.83334   0.81491   0.00000  Uiso   1.00
O1789  O     0.31481   0.83332   0.68508   0.00000  Uiso   1.00
O1790  O     0.27267   0.83333   0.81492   0.00000  Uiso   1.00
O1791  O     0.06067   0.83333   0.68508   0.00000  Uiso   1.00
O1792  O     0.18336   0.82019   0.59276   0.00000  Uiso   1.00
C1793  C     0.33391   0.75427   0.74799   0.00000  Uiso   1.00
C1794  C     0.37389   0.68778   0.72132   0.00000  Uiso   1.00
C1795  C     0.66564   0.95705   0.75253   0.00000  Uiso   1.00
C1796  C     0.33436   0.70962   0.74747   0.00000  Uiso   1.00
C1797  C     0.51630   0.80300   0.77335   0.00000  Uiso   1.00
C1798  C     0.48370   0.86366   0.72664   0.00000  Uiso   1.00
C1799  C     0.46753   0.80287   0.77156   0.00000  Uiso   1.00
C1800  C     0.53247   0.86380   0.72844   0.00000  Uiso   1.00
C1801  C     0.63937   0.83074   0.83593   0.00000  Uiso   1.00
C1802  C     0.36063   0.83593   0.66407   0.00000  Uiso   1.00
C1803  C     0.62400   0.82303   0.88486   0.00000  Uiso   1.00
C1804  C     0.66609   0.91239   0.75201   0.00000  Uiso   1.00
C1805  C     0.37600   0.84364   0.61514   0.00000  Uiso   1.00
C1806  C     0.63119   0.79142   0.95409   0.00000  Uiso   1.00
C1807  C     0.36881   0.87524   0.54591   0.00000  Uiso   1.00
C1808  C     0.64962   0.79751   0.90784   0.00000  Uiso   1.00
C1809  C     0.35038   0.86916   0.59216   0.00000  Uiso   1.00
C1810  C     0.57939   0.83861   0.90841   0.00000  Uiso   1.00
C1811  C     0.42061   0.82806   0.59159   0.00000  Uiso   1.00
C1812  C     0.55700   0.82678   0.95331   0.00000  Uiso   1.00
C1813  C     0.44300   0.83989   0.54669   0.00000  Uiso   1.00
C1814  C     0.58564   0.80588   0.97666   0.00000  Uiso   1.00
C1815  C     0.52482   0.81473   0.54713   0.00000  Uiso   1.00
C1816  C     0.41436   0.86079   0.52334   0.00000  Uiso   1.00
C1817  C     0.50823   0.83657   0.97611   0.00000  Uiso   1.00
C1818  C     0.49177   0.83009   0.52389   0.00000  Uiso   1.00
C1819  C     0.63930   0.89285   0.61535   0.00000  Uiso   1.00
C1820  C     0.65317   0.92965   0.63905   0.00000  Uiso   1.00
C1821  C     0.36069   0.77381   0.88465   0.00000  Uiso   1.00
C1822  C     0.34683   0.73701   0.86095   0.00000  Uiso   1.00
C1823  C     0.52340   0.78344   0.61598   0.00000  Uiso   1.00
C1824  C     0.56581   0.78861   0.63591   0.00000  Uiso   1.00
C1825  C     0.47660   0.88322   0.88402   0.00000  Uiso   1.00
C1826  C     0.47518   0.85193   0.95287   0.00000  Uiso   1.00
C1827  C     0.43419   0.87806   0.86409   0.00000  Uiso   1.00
C1828  C     0.58129   0.95871   0.81000   0.00000  Uiso   1.00
C1829  C     0.53844   0.96271   0.79017   0.00000  Uiso   1.00
C1830  C     0.41871   0.70796   0.69000   0.00000  Uiso   1.00
C1831  C     0.46156   0.70395   0.70984   0.00000  Uiso   1.00
C1832  C     0.53048   0.76765   0.79984   0.00000  Uiso   1.00
C1833  C     0.49224   0.75432   0.84310   0.00000  Uiso   1.00
C1834  C     0.46952   0.89902   0.70016   0.00000  Uiso   1.00
C1835  C     0.50776   0.91235   0.65690   0.00000  Uiso   1.00
C1836  C     0.56994   0.80094   0.52274   0.00000  Uiso   1.00
C1837  C     0.43006   0.86573   0.97726   0.00000  Uiso   1.00
C1838  C     0.62819   0.68837   0.77595   0.00000  Uiso   1.00
C1839  C     0.37181   0.97829   0.72405   0.00000  Uiso   1.00
C1840  C     0.62611   0.97889   0.77868   0.00000  Uiso   1.00
Cu1841 Cu    0.38022   0.83334   0.75000   0.00000  Uiso   1.00
Cu1842 Cu    0.61978   0.83333   0.75000   0.00000  Uiso   1.00
H1843  H     0.59463   0.78843   0.54007   0.00000  Uiso   1.00
H1844  H     0.55764   0.88786   0.71175   0.00000  Uiso   1.00
H1845  H     0.34160   0.91979   0.66164   0.00000  Uiso   1.00
H1846  H     0.34149   0.95250   0.61403   0.00000  Uiso   1.00
H1847  H     0.62023   0.94473   0.65906   0.00000  Uiso   1.00
H1848  H     0.62070   0.90486   0.59080   0.00000  Uiso   1.00
H1849  H     0.61219   0.87272   0.63885   0.00000  Uiso   1.00
H1850  H     0.65851   0.71416   0.88597   0.00000  Uiso   1.00
H1851  H     0.65840   0.74688   0.83836   0.00000  Uiso   1.00
H1852  H     0.37977   0.72193   0.84094   0.00000  Uiso   1.00
H1853  H     0.38781   0.79394   0.86114   0.00000  Uiso   1.00
H1854  H     0.40537   0.87824   0.95993   0.00000  Uiso   1.00
H1855  H     0.37930   0.76181   0.90920   0.00000  Uiso   1.00
H1856  H     0.52775   0.75520   0.59575   0.00000  Uiso   1.00
H1857  H     0.49055   0.77804   0.64426   0.00000  Uiso   1.00
H1858  H     0.55826   0.81354   0.66012   0.00000  Uiso   1.00
H1859  H     0.57093   0.75965   0.65372   0.00000  Uiso   1.00
H1860  H     0.59978   0.79652   0.60977   0.00000  Uiso   1.00
H1861  H     0.50945   0.88863   0.85574   0.00000  Uiso   1.00
H1862  H     0.47225   0.91147   0.90425   0.00000  Uiso   1.00
H1863  H     0.42907   0.90702   0.84628   0.00000  Uiso   1.00
H1864  H     0.40022   0.87015   0.89023   0.00000  Uiso   1.00
H1865  H     0.43637   0.80558   0.60892   0.00000  Uiso   1.00
H1866  H     0.44173   0.85313   0.83988   0.00000  Uiso   1.00
H1867  H     0.54628   0.94760   0.75750   0.00000  Uiso   1.00
H1868  H     0.50562   0.94814   0.81312   0.00000  Uiso   1.00
H1869  H     0.53068   0.99563   0.78514   0.00000  Uiso   1.00
H1870  H     0.58651   0.92590   0.81782   0.00000  Uiso   1.00
H1871  H     0.57258   0.97411   0.84265   0.00000  Uiso   1.00
H1872  H     0.46933   0.67104   0.71486   0.00000  Uiso   1.00
H1873  H     0.49438   0.71853   0.68689   0.00000  Uiso   1.00
H1874  H     0.45371   0.71906   0.74251   0.00000  Uiso   1.00
H1875  H     0.42742   0.69255   0.65735   0.00000  Uiso   1.00
H1876  H     0.56363   0.86108   0.89108   0.00000  Uiso   1.00
H1877  H     0.41349   0.74076   0.68218   0.00000  Uiso   1.00
H1878  H     0.47583   0.78153   0.86176   0.00000  Uiso   1.00
H1879  H     0.46380   0.73466   0.83580   0.00000  Uiso   1.00
H1880  H     0.50929   0.73557   0.86481   0.00000  Uiso   1.00
H1881  H     0.53879   0.74081   0.77791   0.00000  Uiso   1.00
H1882  H     0.56203   0.77580   0.81101   0.00000  Uiso   1.00
H1883  H     0.53620   0.93201   0.66420   0.00000  Uiso   1.00
H1884  H     0.52417   0.88514   0.63824   0.00000  Uiso   1.00
H1885  H     0.49071   0.93109   0.63519   0.00000  Uiso   1.00
H1886  H     0.43797   0.89087   0.68898   0.00000  Uiso   1.00
H1887  H     0.65160   0.77375   0.97249   0.00000  Uiso   1.00
H1888  H     0.46121   0.92586   0.72209   0.00000  Uiso   1.00
H1889  H     0.34840   0.89291   0.52751   0.00000  Uiso   1.00
H1890  H     0.59920   0.70528   0.79742   0.00000  Uiso   1.00
H1891  H     0.40080   0.96138   0.70258   0.00000  Uiso   1.00
H1892  H     0.44236   0.77881   0.78825   0.00000  Uiso   1.00
N1893  N     0.45069   0.83334   0.74999   0.00000  Uiso   1.00
N1894  N     0.54931   0.83332   0.75001   0.00000  Uiso   1.00
O1895  O     0.37291   0.77322   0.75000   0.00000  Uiso   1.00
O1896  O     0.48331   0.84648   0.90724   0.00000  Uiso   1.00
O1897  O     0.62709   0.89345   0.75000   0.00000  Uiso   1.00
O1898  O     0.62706   0.77321   0.75000   0.00000  Uiso   1.00
O1899  O     0.37294   0.89346   0.74999   0.00000  Uiso   1.00
O1900  O     0.35186   0.83334   0.81491   0.00000  Uiso   1.00
O1901  O     0.64814   0.83332   0.68508   0.00000  Uiso   1.00
O1902  O     0.60600   0.83333   0.81492   0.00000  Uiso   1.00
O1903  O     0.39400   0.83333   0.68508   0.00000  Uiso   1.00
O1904  O     0.51669   0.82019   0.59276   0.00000  Uiso   1.00
C1905  C     0.66724   0.75427   0.74799   0.00000  Uiso   1.00
C1906  C     0.70722   0.68778   0.72132   0.00000  Uiso   1.00
C1907  C     0.99897   0.95705   0.75253   0.00000  Uiso   1.00
C1908  C     0.66770   0.70962   0.74747   0.00000  Uiso   1.00
C1909  C     0.84963   0.80300   0.77335   0.00000  Uiso   1.00
C1910  C     0.81703   0.86366   0.72664   0.00000  Uiso   1.00
C1911  C     0.80086   0.80287   0.77156   0.00000  Uiso   1.00
C1912  C     0.86580   0.86380   0.72844   0.00000  Uiso   1.00
C1913  C     0.97270   0.83074   0.83593   0.00000  Uiso   1.00
C1914  C     0.69396   0.83593   0.66407   0.00000  Uiso   1.00
C1915  C     0.95733   0.82303   0.88486   0.00000  Uiso   1.00
C1916  C     0.99942   0.91239   0.75201   0.00000  Uiso   1.00
C1917  C     0.70933   0.84364   0.61514   0.00000  Uiso   1.00
C1918  C     0.96453   0.79142   0.95409   0.00000  Uiso   1.00
C1919  C     0.70214   0.87524   0.54591   0.00000  Uiso   1.00
C1920  C     0.98295   0.79751   0.90784   0.00000  Uiso   1.00
C1921  C     0.68371   0.86916   0.59216   0.00000  Uiso   1.00
C1922  C     0.91272   0.83861   0.90841   0.00000  Uiso   1.00
C1923  C     0.75394   0.82806   0.59159   0.00000  Uiso   1.00
C1924  C     0.89034   0.82678   0.95331   0.00000  Uiso   1.00
C1925  C     0.77633   0.83989   0.54669   0.00000  Uiso   1.00
C1926  C     0.91898   0.80588   0.97666   0.00000  Uiso   1.00
C1927  C     0.85815   0.81473   0.54713   0.00000  Uiso   1.00
C1928  C     0.74769   0.86079   0.52334   0.00000  Uiso   1.00
C1929  C     0.84156   0.83657   0.97611   0.00000  Uiso   1.00
C1930  C     0.82511   0.83009   0.52389   0.00000  Uiso   1.00
C1931  C     0.97264   0.89285   0.61535   0.00000  Uiso   1.00
C1932  C     0.98650   0.92965   0.63905   0.00000  Uiso   1.00
C1933  C     0.69403   0.77381   0.88465   0.00000  Uiso   1.00
C1934  C     0.68016   0.73701   0.86095   0.00000  Uiso   1.00
C1935  C     0.85673   0.78344   0.61598   0.00000  Uiso   1.00
C1936  C     0.89915   0.78861   0.63591   0.00000  Uiso   1.00
C1937  C     0.80994   0.88322   0.88402   0.00000  Uiso   1.00
C1938  C     0.80851   0.85193   0.95287   0.00000  Uiso   1.00
C1939  C     0.76752   0.87806   0.86409   0.00000  Uiso   1.00
C1940  C     0.91462   0.95871   0.81000   0.00000  Uiso   1.00
C1941  C     0.87177   0.96271   0.79017   0.00000  Uiso   1.00
C1942  C     0.75204   0.70796   0.69000   0.00000  Uiso   1.00
C1943  C     0.79489   0.70395   0.70984   0.00000  Uiso   1.00
C1944  C     0.86381   0.76765   0.79984   0.00000  Uiso   1.00
C1945  C     0.82558   0.75432   0.84310   0.00000  Uiso   1.00
C1946  C     0.80285   0.89902   0.70016   0.00000  Uiso   1.00
C1947  C     0.84109   0.91235   0.65690   0.00000  Uiso   1.00
C1948  C     0.90327   0.80094   0.52274   0.00000  Uiso   1.00
C1949  C     0.76340   0.86573   0.97726   0.00000  Uiso   1.00
C1950  C     0.96152   0.68837   0.77595   0.00000  Uiso   1.00
C1951  C     0.70515   0.97829   0.72405   0.00000  Uiso   1.00
C1952  C     0.95945   0.97889   0.77868   0.00000  Uiso   1.00
Cu1953 Cu    0.71355   0.83334   0.75000   0.00000  Uiso   1.00
Cu1954 Cu    0.95311   0.83333   0.75000   0.00000  Uiso   1.00
H1955  H     0.92797   0.78843   0.54007   0.00000  Uiso   1.00
H1956  H     0.89098   0.88786   0.71175   0.00000  Uiso   1.00
H1957  H     0.67494   0.91979   0.66164   0.00000  Uiso   1.00
H1958  H     0.67483   0.95250   0.61403   0.00000  Uiso   1.00
H1959  H     0.95356   0.94473   0.65906   0.00000  Uiso   1.00
H1960  H     0.95403   0.90486   0.59080   0.00000  Uiso   1.00
H1961  H     0.94553   0.87272   0.63885   0.00000  Uiso   1.00
H1962  H     0.99184   0.71416   0.88597   0.00000  Uiso   1.00
H1963  H     0.99173   0.74688   0.83836   0.00000  Uiso   1.00
H1964  H     0.71311   0.72193   0.84094   0.00000  Uiso   1.00
H1965  H     0.72114   0.79394   0.86114   0.00000  Uiso   1.00
H1966  H     0.73870   0.87824   0.95993   0.00000  Uiso   1.00
H1967  H     0.71263   0.76181   0.90920   0.00000  Uiso   1.00
H1968  H     0.86109   0.75520   0.59575   0.00000  Uiso   1.00
H1969  H     0.82389   0.77804   0.64426   0.00000  Uiso   1.00
H1970  H     0.89160   0.81354   0.66012   0.00000  Uiso   1.00
H1971  H     0.90426   0.75965   0.65372   0.00000  Uiso   1.00
H1972  H     0.93311   0.79652   0.60977   0.00000  Uiso   1.00
H1973  H     0.84278   0.88863   0.85574   0.00000  Uiso   1.00
H1974  H     0.80558   0.91147   0.90425   0.00000  Uiso   1.00
H1975  H     0.76240   0.90702   0.84628   0.00000  Uiso   1.00
H1976  H     0.73356   0.87015   0.89023   0.00000  Uiso   1.00
H1977  H     0.76970   0.80558   0.60892   0.00000  Uiso   1.00
H1978  H     0.77507   0.85313   0.83988   0.00000  Uiso   1.00
H1979  H     0.87961   0.94760   0.75750   0.00000  Uiso   1.00
H1980  H     0.83895   0.94814   0.81312   0.00000  Uiso   1.00
H1981  H     0.86401   0.99563   0.78514   0.00000  Uiso   1.00
H1982  H     0.91985   0.92590   0.81782   0.00000  Uiso   1.00
H1983  H     0.90592   0.97411   0.84265   0.00000  Uiso   1.00
H1984  H     0.80266   0.67104   0.71486   0.00000  Uiso   1.00
H1985  H     0.82771   0.71853   0.68689   0.00000  Uiso   1.00
H1986  H     0.78705   0.71906   0.74251   0.00000  Uiso   1.00
H1987  H     0.76075   0.69255   0.65735   0.00000  Uiso   1.00
H1988  H     0.89696   0.86108   0.89108   0.00000  Uiso   1.00
H1989  H     0.74682   0.74076   0.68218   0.00000  Uiso   1.00
H1990  H     0.80916   0.78153   0.86176   0.00000  Uiso   1.00
H1991  H     0.79714   0.73466   0.83580   0.00000  Uiso   1.00
H1992  H     0.84263   0.73557   0.86481   0.00000  Uiso   1.00
H1993  H     0.87213   0.74081   0.77791   0.00000  Uiso   1.00
H1994  H     0.89536   0.77580   0.81101   0.00000  Uiso   1.00
H1995  H     0.86953   0.93201   0.66420   0.00000  Uiso   1.00
H1996  H     0.85750   0.88514   0.63824   0.00000  Uiso   1.00
H1997  H     0.82404   0.93109   0.63519   0.00000  Uiso   1.00
H1998  H     0.77130   0.89087   0.68898   0.00000  Uiso   1.00
H1999  H     0.98493   0.77375   0.97249   0.00000  Uiso   1.00
H2000  H     0.79454   0.92586   0.72209   0.00000  Uiso   1.00
H2001  H     0.68174   0.89291   0.52751   0.00000  Uiso   1.00
H2002  H     0.93253   0.70528   0.79742   0.00000  Uiso   1.00
H2003  H     0.73413   0.96138   0.70258   0.00000  Uiso   1.00
H2004  H     0.77569   0.77881   0.78825   0.00000  Uiso   1.00
N2005  N     0.78403   0.83334   0.74999   0.00000  Uiso   1.00
N2006  N     0.88264   0.83332   0.75001   0.00000  Uiso   1.00
O2007  O     0.70625   0.77322   0.75000   0.00000  Uiso   1.00
O2008  O     0.81664   0.84648   0.90724   0.00000  Uiso   1.00
O2009  O     0.96042   0.89345   0.75000   0.00000  Uiso   1.00
O2010  O     0.96039   0.77321   0.75000   0.00000  Uiso   1.00
O2011  O     0.70628   0.89346   0.74999   0.00000  Uiso   1.00
O2012  O     0.68519   0.83334   0.81491   0.00000  Uiso   1.00
O2013  O     0.98148   0.83332   0.68508   0.00000  Uiso   1.00
O2014  O     0.93933   0.83333   0.81492   0.00000  Uiso   1.00
O2015  O     0.72733   0.83333   0.68508   0.00000  Uiso   1.00
O2016  O     0.85002   0.82019   0.59276   0.00000  Uiso   1.00
loop_
_geom_bond_atom_site_label_1
_geom_bond_atom_site_label_2
_geom_bond_distance
_geom_bond_site_symmetry_2
_ccdc_geom_bond_type
C1     O103    1.292   .     A
C1     C4      1.451   .     S
C1     O330    1.304   1_455 S
C2     C4      1.415   .     A
C2     C38     1.515   .     S
C2     C719    1.390   1_545 S
C3     C48     1.415   .     A
C3     C12     1.451   .     S
C3     C159    1.395   .     S
C4     C270    1.395   1_455 S
C5     C7      1.421   .     A
C5     N102    1.399   .     A
C5     C40     1.519   .     S
C6     N101    1.399   .     A
C6     C8      1.421   .     A
C6     C42     1.519   .     S
C7     H100    1.077   .     S
C7     N101    1.349   .     A
C8     H52     1.077   .     S
C8     N102    1.349   .     A
C9     C11     1.477   .     S
C9     O110    1.305   .     A
C9     O220    1.301   .     S
C10    O111    1.305   .     A
C10    C13     1.477   .     S
C10    O333    1.301   1_455 S
C11    C18     1.400   .     A
C11    C16     1.419   .     A
C12    O105    1.292   .     A
C12    O219    1.304   .     S
C13    C19     1.400   .     A
C13    C17     1.419   .     A
C14    C16     1.397   .     A
C14    H95     1.085   .     S
C14    C22     1.400   .     A
C15    C17     1.397   .     A
C15    H97     1.085   .     S
C15    C24     1.400   .     A
C16    C141    1.515   .     S
C17    C251    1.515   1_455 S
C18    H84     1.072   .     S
C18    C20     1.408   .     A
C19    C21     1.408   .     A
C19    H73     1.073   .     S
C20    C25     1.432   .     A
C20    C22     1.409   .     A
C21    C26     1.432   .     A
C21    C24     1.409   .     A
C22    C1052   1.383   .     S
C23    C26     1.431   .     A
C23    C44     1.398   .     A
C23    O112    1.391   .     S
C24    C1053   1.383   1_554 S
C25    C34     1.431   .     A
C25    C1034   1.439   .     S
C26    C1033   1.439   1_554 S
C27    H57     1.103   .     S
C27    H56     1.112   .     S
C27    C28     1.527   .     S
C27    C129    1.515   .     S
C28    H55     1.109   .     S
C28    H165    1.107   .     S
C28    H166    1.111   .     S
C29    H63     1.112   .     S
C29    H61     1.103   .     S
C29    C30     1.527   .     S
C29    C240    1.515   1_455 S
C30    H60     1.109   .     S
C30    H282    1.111   1_455 S
C30    H283    1.107   1_455 S
C31    O112    1.420   .     S
C31    C32     1.524   .     S
C31    H65     1.108   .     S
C31    H64     1.116   .     S
C32    H68     1.108   .     S
C32    H67     1.110   .     S
C32    H66     1.104   .     S
C33    O104    1.420   .     S
C33    H69     1.108   .     S
C33    H70     1.116   .     S
C33    C35     1.524   .     S
C34    O104    1.391   .     S
C34    C45     1.398   .     A
C35    H74     1.104   .     S
C35    H71     1.110   .     S
C35    H72     1.108   .     S
C36    C37     1.530   .     S
C36    H79     1.112   .     S
C36    H78     1.107   .     S
C36    C48     1.515   .     S
C37    H77     1.110   .     S
C37    H76     1.107   .     S
C37    H75     1.109   .     S
C38    H83     1.112   .     S
C38    C39     1.530   .     S
C38    H85     1.107   .     S
C39    H81     1.107   .     S
C39    H82     1.109   .     S
C39    H80     1.110   .     S
C40    H89     1.110   .     S
C40    C41     1.533   .     S
C40    H90     1.091   .     S
C41    H86     1.109   .     S
C41    H87     1.108   .     S
C41    H88     1.111   .     S
C42    H96     1.110   .     S
C42    C43     1.533   .     S
C42    H94     1.091   .     S
C43    H93     1.111   .     S
C43    H92     1.109   .     S
C43    H91     1.108   .     S
C44    H51     1.081   .     S
C44    C1030   1.383   1_554 S
C45    H62     1.081   .     S
C45    C1032   1.383   .     S
C46    H98     1.081   .     S
C46    C116    1.395   .     S
C46    C720    1.390   1_545 S
C47    H99     1.081   .     S
C47    C227    1.395   1_455 S
C47    C338    1.390   .     S
C48    C382    1.390   .     S
Cu49   N101    2.029   .     S
Cu49   O111    1.948   .     S
Cu49   O108    1.959   .     S
Cu49   O107    1.966   .     S
Cu49   O103    1.961   .     S
Cu49   Cu274   2.700   1_455 S
Cu50   O110    1.948   .     S
Cu50   O105    1.961   .     S
Cu50   O109    1.959   .     S
Cu50   N102    2.029   .     S
Cu50   O106    1.966   .     S
Cu50   Cu161   2.700   .     S
H53    C252    1.107   1_455 S
H54    C252    1.111   1_455 S
H58    C142    1.111   .     S
H59    C142    1.107   .     S
O106   C113    1.304   .     S
O107   C236    1.304   1_455 S
O108   C233    1.301   1_455 S
O109   C122    1.301   .     S
C113   O215    1.292   .     A
C113   C116    1.451   .     S
C114   C116    1.415   .     A
C114   C150    1.515   .     S
C114   C831    1.390   1_545 S
C115   C160    1.415   .     A
C115   C124    1.451   .     S
C115   C271    1.395   .     S
C117   C119    1.421   .     A
C117   N214    1.399   .     A
C117   C152    1.519   .     S
C118   N213    1.399   .     A
C118   C120    1.421   .     A
C118   C154    1.519   .     S
C119   H212    1.077   .     S
C119   N213    1.349   .     A
C120   H164    1.077   .     S
C120   N214    1.349   .     A
C121   C123    1.477   .     S
C121   O222    1.305   .     A
C121   O332    1.301   .     S
C122   O223    1.305   .     A
C122   C125    1.477   .     S
C123   C130    1.400   .     A
C123   C128    1.419   .     A
C124   O217    1.292   .     A
C124   O331    1.304   .     S
C125   C131    1.400   .     A
C125   C129    1.419   .     A
C126   C128    1.397   .     A
C126   H207    1.085   .     S
C126   C134    1.400   .     A
C127   C129    1.397   .     A
C127   H209    1.085   .     S
C127   C136    1.400   .     A
C128   C253    1.515   .     S
C130   H196    1.072   .     S
C130   C132    1.408   .     A
C131   C133    1.408   .     A
C131   H185    1.073   .     S
C132   C137    1.432   .     A
C132   C134    1.409   .     A
C133   C138    1.432   .     A
C133   C136    1.409   .     A
C134   C1164   1.383   .     S
C135   C138    1.431   .     A
C135   C156    1.398   .     A
C135   O224    1.391   .     S
C136   C1165   1.383   1_554 S
C137   C146    1.431   .     A
C137   C1146   1.439   .     S
C138   C1145   1.439   1_554 S
C139   H169    1.103   .     S
C139   H168    1.112   .     S
C139   C140    1.527   .     S
C139   C241    1.515   .     S
C140   H167    1.109   .     S
C140   H277    1.107   .     S
C140   H278    1.111   .     S
C141   H175    1.112   .     S
C141   H173    1.103   .     S
C141   C142    1.527   .     S
C142   H172    1.109   .     S
C143   O224    1.420   .     S
C143   C144    1.524   .     S
C143   H177    1.108   .     S
C143   H176    1.116   .     S
C144   H180    1.108   .     S
C144   H179    1.110   .     S
C144   H178    1.104   .     S
C145   O216    1.420   .     S
C145   H181    1.108   .     S
C145   H182    1.116   .     S
C145   C147    1.524   .     S
C146   O216    1.391   .     S
C146   C157    1.398   .     A
C147   H186    1.104   .     S
C147   H183    1.110   .     S
C147   H184    1.108   .     S
C148   C149    1.530   .     S
C148   H191    1.112   .     S
C148   H190    1.107   .     S
C148   C160    1.515   .     S
C149   H189    1.110   .     S
C149   H188    1.107   .     S
C149   H187    1.109   .     S
C150   H195    1.112   .     S
C150   C151    1.530   .     S
C150   H197    1.107   .     S
C151   H193    1.107   .     S
C151   H194    1.109   .     S
C151   H192    1.110   .     S
C152   H201    1.110   .     S
C152   C153    1.533   .     S
C152   H202    1.091   .     S
C153   H198    1.109   .     S
C153   H199    1.108   .     S
C153   H200    1.111   .     S
C154   H208    1.110   .     S
C154   C155    1.533   .     S
C154   H206    1.091   .     S
C155   H205    1.111   .     S
C155   H204    1.109   .     S
C155   H203    1.108   .     S
C156   H163    1.081   .     S
C156   C1142   1.383   1_554 S
C157   H174    1.081   .     S
C157   C1144   1.383   .     S
C158   H210    1.081   .     S
C158   C228    1.395   .     S
C158   C832    1.390   1_545 S
C159   H211    1.081   .     S
C159   C450    1.390   .     S
C160   C494    1.390   .     S
Cu161  N213    2.029   .     S
Cu161  O223    1.948   .     S
Cu161  O220    1.959   .     S
Cu161  O219    1.966   .     S
Cu161  O215    1.961   .     S
Cu162  O222    1.948   .     S
Cu162  O217    1.961   .     S
Cu162  O221    1.959   .     S
Cu162  N214    2.029   .     S
Cu162  O218    1.966   .     S
Cu162  Cu273   2.700   .     S
H170   C254    1.111   .     S
H171   C254    1.107   .     S
O218   C225    1.304   .     S
O221   C234    1.301   .     S
C225   O327    1.292   .     A
C225   C228    1.451   .     S
C226   C228    1.415   .     A
C226   C262    1.515   .     S
C226   C943    1.390   1_545 S
C227   C272    1.415   .     A
C227   C236    1.451   .     S
C227   C47     1.395   1_655 S
C229   C231    1.421   .     A
C229   N326    1.399   .     A
C229   C264    1.519   .     S
C230   N325    1.399   .     A
C230   C232    1.421   .     A
C230   C266    1.519   .     S
C231   H324    1.077   .     S
C231   N325    1.349   .     A
C232   H276    1.077   .     S
C232   N326    1.349   .     A
C233   C235    1.477   .     S
C233   O334    1.305   .     A
C233   O108    1.301   1_655 S
C234   O335    1.305   .     A
C234   C237    1.477   .     S
C235   C242    1.400   .     A
C235   C240    1.419   .     A
C236   O329    1.292   .     A
C236   O107    1.304   1_655 S
C237   C243    1.400   .     A
C237   C241    1.419   .     A
C238   C240    1.397   .     A
C238   H319    1.085   .     S
C238   C246    1.400   .     A
C239   C241    1.397   .     A
C239   H321    1.085   .     S
C239   C248    1.400   .     A
C240   C29     1.515   1_655 S
C242   H308    1.072   .     S
C242   C244    1.408   .     A
C243   C245    1.408   .     A
C243   H297    1.073   .     S
C244   C249    1.432   .     A
C244   C246    1.409   .     A
C245   C250    1.432   .     A
C245   C248    1.409   .     A
C246   C1276   1.383   .     S
C247   C250    1.431   .     A
C247   C268    1.398   .     A
C247   O336    1.391   .     S
C248   C1277   1.383   1_554 S
C249   C258    1.431   .     A
C249   C1258   1.439   .     S
C250   C1257   1.439   1_554 S
C251   H281    1.103   .     S
C251   H280    1.112   .     S
C251   C252    1.527   .     S
C251   C17     1.515   1_655 S
C252   H279    1.109   .     S
C252   H53     1.107   1_655 S
C252   H54     1.111   1_655 S
C253   H287    1.112   .     S
C253   H285    1.103   .     S
C253   C254    1.527   .     S
C254   H284    1.109   .     S
C255   O336    1.420   .     S
C255   C256    1.524   .     S
C255   H289    1.108   .     S
C255   H288    1.116   .     S
C256   H292    1.108   .     S
C256   H291    1.110   .     S
C256   H290    1.104   .     S
C257   O328    1.420   .     S
C257   H293    1.108   .     S
C257   H294    1.116   .     S
C257   C259    1.524   .     S
C258   O328    1.391   .     S
C258   C269    1.398   .     A
C259   H298    1.104   .     S
C259   H295    1.110   .     S
C259   H296    1.108   .     S
C260   C261    1.530   .     S
C260   H303    1.112   .     S
C260   H302    1.107   .     S
C260   C272    1.515   .     S
C261   H301    1.110   .     S
C261   H300    1.107   .     S
C261   H299    1.109   .     S
C262   H307    1.112   .     S
C262   C263    1.530   .     S
C262   H309    1.107   .     S
C263   H305    1.107   .     S
C263   H306    1.109   .     S
C263   H304    1.110   .     S
C264   H313    1.110   .     S
C264   C265    1.533   .     S
C264   H314    1.091   .     S
C265   H310    1.109   .     S
C265   H311    1.108   .     S
C265   H312    1.111   .     S
C266   H320    1.110   .     S
C266   C267    1.533   .     S
C266   H318    1.091   .     S
C267   H317    1.111   .     S
C267   H316    1.109   .     S
C267   H315    1.108   .     S
C268   H275    1.081   .     S
C268   C1254   1.383   1_554 S
C269   H286    1.081   .     S
C269   C1256   1.383   .     S
C270   H322    1.081   .     S
C270   C4      1.395   1_655 S
C270   C944    1.390   1_545 S
C271   H323    1.081   .     S
C271   C562    1.390   .     S
C272   C606    1.390   .     S
Cu273  N325    2.029   .     S
Cu273  O335    1.948   .     S
Cu273  O332    1.959   .     S
Cu273  O331    1.966   .     S
Cu273  O327    1.961   .     S
Cu274  O334    1.948   .     S
Cu274  O329    1.961   .     S
Cu274  O333    1.959   .     S
Cu274  N326    2.029   .     S
Cu274  O330    1.966   .     S
Cu274  Cu49    2.700   1_655 S
H282   C30     1.111   1_655 S
H283   C30     1.107   1_655 S
O330   C1      1.304   1_655 S
O333   C10     1.301   1_655 S
C337   O439    1.292   .     A
C337   C340    1.451   .     S
C337   O666    1.304   1_455 S
C338   C340    1.415   .     A
C338   C374    1.515   .     S
C339   C384    1.415   .     A
C339   C348    1.451   .     S
C339   C495    1.395   .     S
C340   C606    1.395   1_455 S
C341   C343    1.421   .     A
C341   N438    1.399   .     A
C341   C376    1.519   .     S
C342   N437    1.399   .     A
C342   C344    1.421   .     A
C342   C378    1.519   .     S
C343   H436    1.077   .     S
C343   N437    1.349   .     A
C344   H388    1.077   .     S
C344   N438    1.349   .     A
C345   C347    1.477   .     S
C345   O446    1.305   .     A
C345   O556    1.301   .     S
C346   O447    1.305   .     A
C346   C349    1.477   .     S
C346   O669    1.301   1_455 S
C347   C354    1.400   .     A
C347   C352    1.419   .     A
C348   O441    1.292   .     A
C348   O555    1.304   .     S
C349   C355    1.400   .     A
C349   C353    1.419   .     A
C350   C352    1.397   .     A
C350   H431    1.085   .     S
C350   C358    1.400   .     A
C351   C353    1.397   .     A
C351   H433    1.085   .     S
C351   C360    1.400   .     A
C352   C477    1.515   .     S
C353   C587    1.515   1_455 S
C354   H420    1.072   .     S
C354   C356    1.408   .     A
C355   C357    1.408   .     A
C355   H409    1.073   .     S
C356   C361    1.432   .     A
C356   C358    1.409   .     A
C357   C362    1.432   .     A
C357   C360    1.409   .     A
C358   C1388   1.383   .     S
C359   C362    1.431   .     A
C359   C380    1.398   .     A
C359   O448    1.391   .     S
C360   C1389   1.383   1_554 S
C361   C370    1.431   .     A
C361   C1370   1.439   .     S
C362   C1369   1.439   1_554 S
C363   H393    1.103   .     S
C363   H392    1.112   .     S
C363   C364    1.527   .     S
C363   C465    1.515   .     S
C364   H391    1.109   .     S
C364   H501    1.107   .     S
C364   H502    1.111   .     S
C365   H399    1.112   .     S
C365   H397    1.103   .     S
C365   C366    1.527   .     S
C365   C576    1.515   1_455 S
C366   H396    1.109   .     S
C366   H618    1.111   1_455 S
C366   H619    1.107   1_455 S
C367   O448    1.420   .     S
C367   C368    1.524   .     S
C367   H401    1.108   .     S
C367   H400    1.116   .     S
C368   H404    1.108   .     S
C368   H403    1.110   .     S
C368   H402    1.104   .     S
C369   O440    1.420   .     S
C369   H405    1.108   .     S
C369   H406    1.116   .     S
C369   C371    1.524   .     S
C370   O440    1.391   .     S
C370   C381    1.398   .     A
C371   H410    1.104   .     S
C371   H407    1.110   .     S
C371   H408    1.108   .     S
C372   C373    1.530   .     S
C372   H415    1.112   .     S
C372   H414    1.107   .     S
C372   C384    1.515   .     S
C373   H413    1.110   .     S
C373   H412    1.107   .     S
C373   H411    1.109   .     S
C374   H419    1.112   .     S
C374   C375    1.530   .     S
C374   H421    1.107   .     S
C375   H417    1.107   .     S
C375   H418    1.109   .     S
C375   H416    1.110   .     S
C376   H425    1.110   .     S
C376   C377    1.533   .     S
C376   H426    1.091   .     S
C377   H422    1.109   .     S
C377   H423    1.108   .     S
C377   H424    1.111   .     S
C378   H432    1.110   .     S
C378   C379    1.533   .     S
C378   H430    1.091   .     S
C379   H429    1.111   .     S
C379   H428    1.109   .     S
C379   H427    1.108   .     S
C380   H387    1.081   .     S
C380   C1366   1.383   1_554 S
C381   H398    1.081   .     S
C381   C1368   1.383   .     S
C382   H434    1.081   .     S
C382   C452    1.395   .     S
C383   H435    1.081   .     S
C383   C563    1.395   1_455 S
C383   C674    1.390   .     S
C384   C718    1.390   .     S
Cu385  N437    2.029   .     S
Cu385  O447    1.948   .     S
Cu385  O444    1.959   .     S
Cu385  O443    1.966   .     S
Cu385  O439    1.961   .     S
Cu385  Cu610   2.700   1_455 S
Cu386  O446    1.948   .     S
Cu386  O441    1.961   .     S
Cu386  O445    1.959   .     S
Cu386  N438    2.029   .     S
Cu386  O442    1.966   .     S
Cu386  Cu497   2.700   .     S
H389   C588    1.107   1_455 S
H390   C588    1.111   1_455 S
H394   C478    1.111   .     S
H395   C478    1.107   .     S
O442   C449    1.304   .     S
O443   C572    1.304   1_455 S
O444   C569    1.301   1_455 S
O445   C458    1.301   .     S
C449   O551    1.292   .     A
C449   C452    1.451   .     S
C450   C452    1.415   .     A
C450   C486    1.515   .     S
C451   C496    1.415   .     A
C451   C460    1.451   .     S
C451   C607    1.395   .     S
C453   C455    1.421   .     A
C453   N550    1.399   .     A
C453   C488    1.519   .     S
C454   N549    1.399   .     A
C454   C456    1.421   .     A
C454   C490    1.519   .     S
C455   H548    1.077   .     S
C455   N549    1.349   .     A
C456   H500    1.077   .     S
C456   N550    1.349   .     A
C457   C459    1.477   .     S
C457   O558    1.305   .     A
C457   O668    1.301   .     S
C458   O559    1.305   .     A
C458   C461    1.477   .     S
C459   C466    1.400   .     A
C459   C464    1.419   .     A
C460   O553    1.292   .     A
C460   O667    1.304   .     S
C461   C467    1.400   .     A
C461   C465    1.419   .     A
C462   C464    1.397   .     A
C462   H543    1.085   .     S
C462   C470    1.400   .     A
C463   C465    1.397   .     A
C463   H545    1.085   .     S
C463   C472    1.400   .     A
C464   C589    1.515   .     S
C466   H532    1.072   .     S
C466   C468    1.408   .     A
C467   C469    1.408   .     A
C467   H521    1.073   .     S
C468   C473    1.432   .     A
C468   C470    1.409   .     A
C469   C474    1.432   .     A
C469   C472    1.409   .     A
C470   C1500   1.383   .     S
C471   C474    1.431   .     A
C471   C492    1.398   .     A
C471   O560    1.391   .     S
C472   C1501   1.383   1_554 S
C473   C482    1.431   .     A
C473   C1482   1.439   .     S
C474   C1481   1.439   1_554 S
C475   H505    1.103   .     S
C475   H504    1.112   .     S
C475   C476    1.527   .     S
C475   C577    1.515   .     S
C476   H503    1.109   .     S
C476   H613    1.107   .     S
C476   H614    1.111   .     S
C477   H511    1.112   .     S
C477   H509    1.103   .     S
C477   C478    1.527   .     S
C478   H508    1.109   .     S
C479   O560    1.420   .     S
C479   C480    1.524   .     S
C479   H513    1.108   .     S
C479   H512    1.116   .     S
C480   H516    1.108   .     S
C480   H515    1.110   .     S
C480   H514    1.104   .     S
C481   O552    1.420   .     S
C481   H517    1.108   .     S
C481   H518    1.116   .     S
C481   C483    1.524   .     S
C482   O552    1.391   .     S
C482   C493    1.398   .     A
C483   H522    1.104   .     S
C483   H519    1.110   .     S
C483   H520    1.108   .     S
C484   C485    1.530   .     S
C484   H527    1.112   .     S
C484   H526    1.107   .     S
C484   C496    1.515   .     S
C485   H525    1.110   .     S
C485   H524    1.107   .     S
C485   H523    1.109   .     S
C486   H531    1.112   .     S
C486   C487    1.530   .     S
C486   H533    1.107   .     S
C487   H529    1.107   .     S
C487   H530    1.109   .     S
C487   H528    1.110   .     S
C488   H537    1.110   .     S
C488   C489    1.533   .     S
C488   H538    1.091   .     S
C489   H534    1.109   .     S
C489   H535    1.108   .     S
C489   H536    1.111   .     S
C490   H544    1.110   .     S
C490   C491    1.533   .     S
C490   H542    1.091   .     S
C491   H541    1.111   .     S
C491   H540    1.109   .     S
C491   H539    1.108   .     S
C492   H499    1.081   .     S
C492   C1478   1.383   1_554 S
C493   H510    1.081   .     S
C493   C1480   1.383   .     S
C494   H546    1.081   .     S
C494   C564    1.395   .     S
C495   H547    1.081   .     S
C495   C786    1.390   .     S
C496   C830    1.390   .     S
Cu497  N549    2.029   .     S
Cu497  O559    1.948   .     S
Cu497  O556    1.959   .     S
Cu497  O555    1.966   .     S
Cu497  O551    1.961   .     S
Cu498  O558    1.948   .     S
Cu498  O553    1.961   .     S
Cu498  O557    1.959   .     S
Cu498  N550    2.029   .     S
Cu498  O554    1.966   .     S
Cu498  Cu609   2.700   .     S
H506   C590    1.111   .     S
H507   C590    1.107   .     S
O554   C561    1.304   .     S
O557   C570    1.301   .     S
C561   O663    1.292   .     A
C561   C564    1.451   .     S
C562   C564    1.415   .     A
C562   C598    1.515   .     S
C563   C608    1.415   .     A
C563   C572    1.451   .     S
C563   C383    1.395   1_655 S
C565   C567    1.421   .     A
C565   N662    1.399   .     A
C565   C600    1.519   .     S
C566   N661    1.399   .     A
C566   C568    1.421   .     A
C566   C602    1.519   .     S
C567   H660    1.077   .     S
C567   N661    1.349   .     A
C568   H612    1.077   .     S
C568   N662    1.349   .     A
C569   C571    1.477   .     S
C569   O670    1.305   .     A
C569   O444    1.301   1_655 S
C570   O671    1.305   .     A
C570   C573    1.477   .     S
C571   C578    1.400   .     A
C571   C576    1.419   .     A
C572   O665    1.292   .     A
C572   O443    1.304   1_655 S
C573   C579    1.400   .     A
C573   C577    1.419   .     A
C574   C576    1.397   .     A
C574   H655    1.085   .     S
C574   C582    1.400   .     A
C575   C577    1.397   .     A
C575   H657    1.085   .     S
C575   C584    1.400   .     A
C576   C365    1.515   1_655 S
C578   H644    1.072   .     S
C578   C580    1.408   .     A
C579   C581    1.408   .     A
C579   H633    1.073   .     S
C580   C585    1.432   .     A
C580   C582    1.409   .     A
C581   C586    1.432   .     A
C581   C584    1.409   .     A
C582   C1612   1.383   .     S
C583   C586    1.431   .     A
C583   C604    1.398   .     A
C583   O672    1.391   .     S
C584   C1613   1.383   1_554 S
C585   C594    1.431   .     A
C585   C1594   1.439   .     S
C586   C1593   1.439   1_554 S
C587   H617    1.103   .     S
C587   H616    1.112   .     S
C587   C588    1.527   .     S
C587   C353    1.515   1_655 S
C588   H615    1.109   .     S
C588   H389    1.107   1_655 S
C588   H390    1.111   1_655 S
C589   H623    1.112   .     S
C589   H621    1.103   .     S
C589   C590    1.527   .     S
C590   H620    1.109   .     S
C591   O672    1.420   .     S
C591   C592    1.524   .     S
C591   H625    1.108   .     S
C591   H624    1.116   .     S
C592   H628    1.108   .     S
C592   H627    1.110   .     S
C592   H626    1.104   .     S
C593   O664    1.420   .     S
C593   H629    1.108   .     S
C593   H630    1.116   .     S
C593   C595    1.524   .     S
C594   O664    1.391   .     S
C594   C605    1.398   .     A
C595   H634    1.104   .     S
C595   H631    1.110   .     S
C595   H632    1.108   .     S
C596   C597    1.530   .     S
C596   H639    1.112   .     S
C596   H638    1.107   .     S
C596   C608    1.515   .     S
C597   H637    1.110   .     S
C597   H636    1.107   .     S
C597   H635    1.109   .     S
C598   H643    1.112   .     S
C598   C599    1.530   .     S
C598   H645    1.107   .     S
C599   H641    1.107   .     S
C599   H642    1.109   .     S
C599   H640    1.110   .     S
C600   H649    1.110   .     S
C600   C601    1.533   .     S
C600   H650    1.091   .     S
C601   H646    1.109   .     S
C601   H647    1.108   .     S
C601   H648    1.111   .     S
C602   H656    1.110   .     S
C602   C603    1.533   .     S
C602   H654    1.091   .     S
C603   H653    1.111   .     S
C603   H652    1.109   .     S
C603   H651    1.108   .     S
C604   H611    1.081   .     S
C604   C1590   1.383   1_554 S
C605   H622    1.081   .     S
C605   C1592   1.383   .     S
C606   H658    1.081   .     S
C606   C340    1.395   1_655 S
C607   H659    1.081   .     S
C607   C898    1.390   .     S
C608   C942    1.390   .     S
Cu609  N661    2.029   .     S
Cu609  O671    1.948   .     S
Cu609  O668    1.959   .     S
Cu609  O667    1.966   .     S
Cu609  O663    1.961   .     S
Cu610  O670    1.948   .     S
Cu610  O665    1.961   .     S
Cu610  O669    1.959   .     S
Cu610  N662    2.029   .     S
Cu610  O666    1.966   .     S
Cu610  Cu385   2.700   1_655 S
H618   C366    1.111   1_655 S
H619   C366    1.107   1_655 S
O666   C337    1.304   1_655 S
O669   C346    1.301   1_655 S
C673   O775    1.292   .     A
C673   C676    1.451   .     S
C673   O1002   1.304   1_455 S
C674   C676    1.415   .     A
C674   C710    1.515   .     S
C675   C720    1.415   .     A
C675   C684    1.451   .     S
C675   C831    1.395   .     S
C676   C942    1.395   1_455 S
C677   C679    1.421   .     A
C677   N774    1.399   .     A
C677   C712    1.519   .     S
C678   N773    1.399   .     A
C678   C680    1.421   .     A
C678   C714    1.519   .     S
C679   H772    1.077   .     S
C679   N773    1.349   .     A
C680   H724    1.077   .     S
C680   N774    1.349   .     A
C681   C683    1.477   .     S
C681   O782    1.305   .     A
C681   O892    1.301   .     S
C682   O783    1.305   .     A
C682   C685    1.477   .     S
C682   O1005   1.301   1_455 S
C683   C690    1.400   .     A
C683   C688    1.419   .     A
C684   O777    1.292   .     A
C684   O891    1.304   .     S
C685   C691    1.400   .     A
C685   C689    1.419   .     A
C686   C688    1.397   .     A
C686   H767    1.085   .     S
C686   C694    1.400   .     A
C687   C689    1.397   .     A
C687   H769    1.085   .     S
C687   C696    1.400   .     A
C688   C813    1.515   .     S
C689   C923    1.515   1_455 S
C690   H756    1.072   .     S
C690   C692    1.408   .     A
C691   C693    1.408   .     A
C691   H745    1.073   .     S
C692   C697    1.432   .     A
C692   C694    1.409   .     A
C693   C698    1.432   .     A
C693   C696    1.409   .     A
C694   C1724   1.383   .     S
C695   C698    1.431   .     A
C695   C716    1.398   .     A
C695   O784    1.391   .     S
C696   C1725   1.383   1_554 S
C697   C706    1.431   .     A
C697   C1706   1.439   .     S
C698   C1705   1.439   1_554 S
C699   H729    1.103   .     S
C699   H728    1.112   .     S
C699   C700    1.527   .     S
C699   C801    1.515   .     S
C700   H727    1.109   .     S
C700   H837    1.107   .     S
C700   H838    1.111   .     S
C701   H735    1.112   .     S
C701   H733    1.103   .     S
C701   C702    1.527   .     S
C701   C912    1.515   1_455 S
C702   H732    1.109   .     S
C702   H954    1.111   1_455 S
C702   H955    1.107   1_455 S
C703   O784    1.420   .     S
C703   C704    1.524   .     S
C703   H737    1.108   .     S
C703   H736    1.116   .     S
C704   H740    1.108   .     S
C704   H739    1.110   .     S
C704   H738    1.104   .     S
C705   O776    1.420   .     S
C705   H741    1.108   .     S
C705   H742    1.116   .     S
C705   C707    1.524   .     S
C706   O776    1.391   .     S
C706   C717    1.398   .     A
C707   H746    1.104   .     S
C707   H743    1.110   .     S
C707   H744    1.108   .     S
C708   C709    1.530   .     S
C708   H751    1.112   .     S
C708   H750    1.107   .     S
C708   C720    1.515   .     S
C709   H749    1.110   .     S
C709   H748    1.107   .     S
C709   H747    1.109   .     S
C710   H755    1.112   .     S
C710   C711    1.530   .     S
C710   H757    1.107   .     S
C711   H753    1.107   .     S
C711   H754    1.109   .     S
C711   H752    1.110   .     S
C712   H761    1.110   .     S
C712   C713    1.533   .     S
C712   H762    1.091   .     S
C713   H758    1.109   .     S
C713   H759    1.108   .     S
C713   H760    1.111   .     S
C714   H768    1.110   .     S
C714   C715    1.533   .     S
C714   H766    1.091   .     S
C715   H765    1.111   .     S
C715   H764    1.109   .     S
C715   H763    1.108   .     S
C716   H723    1.081   .     S
C716   C1702   1.383   1_554 S
C717   H734    1.081   .     S
C717   C1704   1.383   .     S
C718   H770    1.081   .     S
C718   C788    1.395   .     S
C719   H771    1.081   .     S
C719   C899    1.395   1_455 S
C719   C2      1.390   1_565 S
C720   C46     1.390   1_565 S
Cu721  N773    2.029   .     S
Cu721  O783    1.948   .     S
Cu721  O780    1.959   .     S
Cu721  O779    1.966   .     S
Cu721  O775    1.961   .     S
Cu721  Cu946   2.700   1_455 S
Cu722  O782    1.948   .     S
Cu722  O777    1.961   .     S
Cu722  O781    1.959   .     S
Cu722  N774    2.029   .     S
Cu722  O778    1.966   .     S
Cu722  Cu833   2.700   .     S
H725   C924    1.107   1_455 S
H726   C924    1.111   1_455 S
H730   C814    1.111   .     S
H731   C814    1.107   .     S
O778   C785    1.304   .     S
O779   C908    1.304   1_455 S
O780   C905    1.301   1_455 S
O781   C794    1.301   .     S
C785   O887    1.292   .     A
C785   C788    1.451   .     S
C786   C788    1.415   .     A
C786   C822    1.515   .     S
C787   C832    1.415   .     A
C787   C796    1.451   .     S
C787   C943    1.395   .     S
C789   C791    1.421   .     A
C789   N886    1.399   .     A
C789   C824    1.519   .     S
C790   N885    1.399   .     A
C790   C792    1.421   .     A
C790   C826    1.519   .     S
C791   H884    1.077   .     S
C791   N885    1.349   .     A
C792   H836    1.077   .     S
C792   N886    1.349   .     A
C793   C795    1.477   .     S
C793   O894    1.305   .     A
C793   O1004   1.301   .     S
C794   O895    1.305   .     A
C794   C797    1.477   .     S
C795   C802    1.400   .     A
C795   C800    1.419   .     A
C796   O889    1.292   .     A
C796   O1003   1.304   .     S
C797   C803    1.400   .     A
C797   C801    1.419   .     A
C798   C800    1.397   .     A
C798   H879    1.085   .     S
C798   C806    1.400   .     A
C799   C801    1.397   .     A
C799   H881    1.085   .     S
C799   C808    1.400   .     A
C800   C925    1.515   .     S
C802   H868    1.072   .     S
C802   C804    1.408   .     A
C803   C805    1.408   .     A
C803   H857    1.073   .     S
C804   C809    1.432   .     A
C804   C806    1.409   .     A
C805   C810    1.432   .     A
C805   C808    1.409   .     A
C806   C1836   1.383   .     S
C807   C810    1.431   .     A
C807   C828    1.398   .     A
C807   O896    1.391   .     S
C808   C1837   1.383   1_554 S
C809   C818    1.431   .     A
C809   C1818   1.439   .     S
C810   C1817   1.439   1_554 S
C811   H841    1.103   .     S
C811   H840    1.112   .     S
C811   C812    1.527   .     S
C811   C913    1.515   .     S
C812   H839    1.109   .     S
C812   H949    1.107   .     S
C812   H950    1.111   .     S
C813   H847    1.112   .     S
C813   H845    1.103   .     S
C813   C814    1.527   .     S
C814   H844    1.109   .     S
C815   O896    1.420   .     S
C815   C816    1.524   .     S
C815   H849    1.108   .     S
C815   H848    1.116   .     S
C816   H852    1.108   .     S
C816   H851    1.110   .     S
C816   H850    1.104   .     S
C817   O888    1.420   .     S
C817   H853    1.108   .     S
C817   H854    1.116   .     S
C817   C819    1.524   .     S
C818   O888    1.391   .     S
C818   C829    1.398   .     A
C819   H858    1.104   .     S
C819   H855    1.110   .     S
C819   H856    1.108   .     S
C820   C821    1.530   .     S
C820   H863    1.112   .     S
C820   H862    1.107   .     S
C820   C832    1.515   .     S
C821   H861    1.110   .     S
C821   H860    1.107   .     S
C821   H859    1.109   .     S
C822   H867    1.112   .     S
C822   C823    1.530   .     S
C822   H869    1.107   .     S
C823   H865    1.107   .     S
C823   H866    1.109   .     S
C823   H864    1.110   .     S
C824   H873    1.110   .     S
C824   C825    1.533   .     S
C824   H874    1.091   .     S
C825   H870    1.109   .     S
C825   H871    1.108   .     S
C825   H872    1.111   .     S
C826   H880    1.110   .     S
C826   C827    1.533   .     S
C826   H878    1.091   .     S
C827   H877    1.111   .     S
C827   H876    1.109   .     S
C827   H875    1.108   .     S
C828   H835    1.081   .     S
C828   C1814   1.383   1_554 S
C829   H846    1.081   .     S
C829   C1816   1.383   .     S
C830   H882    1.081   .     S
C830   C900    1.395   .     S
C831   H883    1.081   .     S
C831   C114    1.390   1_565 S
C832   C158    1.390   1_565 S
Cu833  N885    2.029   .     S
Cu833  O895    1.948   .     S
Cu833  O892    1.959   .     S
Cu833  O891    1.966   .     S
Cu833  O887    1.961   .     S
Cu834  O894    1.948   .     S
Cu834  O889    1.961   .     S
Cu834  O893    1.959   .     S
Cu834  N886    2.029   .     S
Cu834  O890    1.966   .     S
Cu834  Cu945   2.700   .     S
H842   C926    1.111   .     S
H843   C926    1.107   .     S
O890   C897    1.304   .     S
O893   C906    1.301   .     S
C897   O999    1.292   .     A
C897   C900    1.451   .     S
C898   C900    1.415   .     A
C898   C934    1.515   .     S
C899   C944    1.415   .     A
C899   C908    1.451   .     S
C899   C719    1.395   1_655 S
C901   C903    1.421   .     A
C901   N998    1.399   .     A
C901   C936    1.519   .     S
C902   N997    1.399   .     A
C902   C904    1.421   .     A
C902   C938    1.519   .     S
C903   H996    1.077   .     S
C903   N997    1.349   .     A
C904   H948    1.077   .     S
C904   N998    1.349   .     A
C905   C907    1.477   .     S
C905   O1006   1.305   .     A
C905   O780    1.301   1_655 S
C906   O1007   1.305   .     A
C906   C909    1.477   .     S
C907   C914    1.400   .     A
C907   C912    1.419   .     A
C908   O1001   1.292   .     A
C908   O779    1.304   1_655 S
C909   C915    1.400   .     A
C909   C913    1.419   .     A
C910   C912    1.397   .     A
C910   H991    1.085   .     S
C910   C918    1.400   .     A
C911   C913    1.397   .     A
C911   H993    1.085   .     S
C911   C920    1.400   .     A
C912   C701    1.515   1_655 S
C914   H980    1.072   .     S
C914   C916    1.408   .     A
C915   C917    1.408   .     A
C915   H969    1.073   .     S
C916   C921    1.432   .     A
C916   C918    1.409   .     A
C917   C922    1.432   .     A
C917   C920    1.409   .     A
C918   C1948   1.383   .     S
C919   C922    1.431   .     A
C919   C940    1.398   .     A
C919   O1008   1.391   .     S
C920   C1949   1.383   1_554 S
C921   C930    1.431   .     A
C921   C1930   1.439   .     S
C922   C1929   1.439   1_554 S
C923   H953    1.103   .     S
C923   H952    1.112   .     S
C923   C924    1.527   .     S
C923   C689    1.515   1_655 S
C924   H951    1.109   .     S
C924   H725    1.107   1_655 S
C924   H726    1.111   1_655 S
C925   H959    1.112   .     S
C925   H957    1.103   .     S
C925   C926    1.527   .     S
C926   H956    1.109   .     S
C927   O1008   1.420   .     S
C927   C928    1.524   .     S
C927   H961    1.108   .     S
C927   H960    1.116   .     S
C928   H964    1.108   .     S
C928   H963    1.110   .     S
C928   H962    1.104   .     S
C929   O1000   1.420   .     S
C929   H965    1.108   .     S
C929   H966    1.116   .     S
C929   C931    1.524   .     S
C930   O1000   1.391   .     S
C930   C941    1.398   .     A
C931   H970    1.104   .     S
C931   H967    1.110   .     S
C931   H968    1.108   .     S
C932   C933    1.530   .     S
C932   H975    1.112   .     S
C932   H974    1.107   .     S
C932   C944    1.515   .     S
C933   H973    1.110   .     S
C933   H972    1.107   .     S
C933   H971    1.109   .     S
C934   H979    1.112   .     S
C934   C935    1.530   .     S
C934   H981    1.107   .     S
C935   H977    1.107   .     S
C935   H978    1.109   .     S
C935   H976    1.110   .     S
C936   H985    1.110   .     S
C936   C937    1.533   .     S
C936   H986    1.091   .     S
C937   H982    1.109   .     S
C937   H983    1.108   .     S
C937   H984    1.111   .     S
C938   H992    1.110   .     S
C938   C939    1.533   .     S
C938   H990    1.091   .     S
C939   H989    1.111   .     S
C939   H988    1.109   .     S
C939   H987    1.108   .     S
C940   H947    1.081   .     S
C940   C1926   1.383   1_554 S
C941   H958    1.081   .     S
C941   C1928   1.383   .     S
C942   H994    1.081   .     S
C942   C676    1.395   1_655 S
C943   H995    1.081   .     S
C943   C226    1.390   1_565 S
C944   C270    1.390   1_565 S
Cu945  N997    2.029   .     S
Cu945  O1007   1.948   .     S
Cu945  O1004   1.959   .     S
Cu945  O1003   1.966   .     S
Cu945  O999    1.961   .     S
Cu946  O1006   1.948   .     S
Cu946  O1001   1.961   .     S
Cu946  O1005   1.959   .     S
Cu946  N998    2.029   .     S
Cu946  O1002   1.966   .     S
Cu946  Cu721   2.700   1_655 S
H954   C702    1.111   1_655 S
H955   C702    1.107   1_655 S
O1002  C673    1.304   1_655 S
O1005  C682    1.301   1_655 S
C1009  O1111   1.292   .     A
C1009  C1012   1.451   .     S
C1009  O1338   1.304   1_455 S
C1010  C1012   1.415   .     A
C1010  C1046   1.515   .     S
C1010  C1727   1.390   1_545 S
C1011  C1056   1.415   .     A
C1011  C1020   1.451   .     S
C1011  C1167   1.395   .     S
C1012  C1278   1.395   1_455 S
C1013  C1015   1.421   .     A
C1013  N1110   1.399   .     A
C1013  C1048   1.519   .     S
C1014  N1109   1.399   .     A
C1014  C1016   1.421   .     A
C1014  C1050   1.519   .     S
C1015  H1108   1.077   .     S
C1015  N1109   1.349   .     A
C1016  H1060   1.077   .     S
C1016  N1110   1.349   .     A
C1017  C1019   1.477   .     S
C1017  O1118   1.305   .     A
C1017  O1228   1.301   .     S
C1018  O1119   1.305   .     A
C1018  C1021   1.477   .     S
C1018  O1341   1.301   1_455 S
C1019  C1026   1.400   .     A
C1019  C1024   1.419   .     A
C1020  O1113   1.292   .     A
C1020  O1227   1.304   .     S
C1021  C1027   1.400   .     A
C1021  C1025   1.419   .     A
C1022  C1024   1.397   .     A
C1022  H1103   1.085   .     S
C1022  C1030   1.400   .     A
C1023  C1025   1.397   .     A
C1023  H1105   1.085   .     S
C1023  C1032   1.400   .     A
C1024  C1149   1.515   .     S
C1025  C1259   1.515   1_455 S
C1026  H1092   1.072   .     S
C1026  C1028   1.408   .     A
C1027  C1029   1.408   .     A
C1027  H1081   1.073   .     S
C1028  C1033   1.432   .     A
C1028  C1030   1.409   .     A
C1029  C1034   1.432   .     A
C1029  C1032   1.409   .     A
C1030  C44     1.383   1_556 S
C1031  C1034   1.431   .     A
C1031  C1052   1.398   .     A
C1031  O1120   1.391   .     S
C1033  C1042   1.431   .     A
C1033  C26     1.439   1_556 S
C1035  H1065   1.103   .     S
C1035  H1064   1.112   .     S
C1035  C1036   1.527   .     S
C1035  C1137   1.515   .     S
C1036  H1063   1.109   .     S
C1036  H1173   1.107   .     S
C1036  H1174   1.111   .     S
C1037  H1071   1.112   .     S
C1037  H1069   1.103   .     S
C1037  C1038   1.527   .     S
C1037  C1248   1.515   1_455 S
C1038  H1068   1.109   .     S
C1038  H1290   1.111   1_455 S
C1038  H1291   1.107   1_455 S
C1039  O1120   1.420   .     S
C1039  C1040   1.524   .     S
C1039  H1073   1.108   .     S
C1039  H1072   1.116   .     S
C1040  H1076   1.108   .     S
C1040  H1075   1.110   .     S
C1040  H1074   1.104   .     S
C1041  O1112   1.420   .     S
C1041  H1077   1.108   .     S
C1041  H1078   1.116   .     S
C1041  C1043   1.524   .     S
C1042  O1112   1.391   .     S
C1042  C1053   1.398   .     A
C1043  H1082   1.104   .     S
C1043  H1079   1.110   .     S
C1043  H1080   1.108   .     S
C1044  C1045   1.530   .     S
C1044  H1087   1.112   .     S
C1044  H1086   1.107   .     S
C1044  C1056   1.515   .     S
C1045  H1085   1.110   .     S
C1045  H1084   1.107   .     S
C1045  H1083   1.109   .     S
C1046  H1091   1.112   .     S
C1046  C1047   1.530   .     S
C1046  H1093   1.107   .     S
C1047  H1089   1.107   .     S
C1047  H1090   1.109   .     S
C1047  H1088   1.110   .     S
C1048  H1097   1.110   .     S
C1048  C1049   1.533   .     S
C1048  H1098   1.091   .     S
C1049  H1094   1.109   .     S
C1049  H1095   1.108   .     S
C1049  H1096   1.111   .     S
C1050  H1104   1.110   .     S
C1050  C1051   1.533   .     S
C1050  H1102   1.091   .     S
C1051  H1101   1.111   .     S
C1051  H1100   1.109   .     S
C1051  H1099   1.108   .     S
C1052  H1059   1.081   .     S
C1053  H1070   1.081   .     S
C1053  C24     1.383   1_556 S
C1054  H1106   1.081   .     S
C1054  C1124   1.395   .     S
C1054  C1728   1.390   1_545 S
C1055  H1107   1.081   .     S
C1055  C1235   1.395   1_455 S
C1055  C1346   1.390   .     S
C1056  C1390   1.390   .     S
Cu1057 N1109   2.029   .     S
Cu1057 O1119   1.948   .     S
Cu1057 O1116   1.959   .     S
Cu1057 O1115   1.966   .     S
Cu1057 O1111   1.961   .     S
Cu1057 Cu1282  2.700   1_455 S
Cu1058 O1118   1.948   .     S
Cu1058 O1113   1.961   .     S
Cu1058 O1117   1.959   .     S
Cu1058 N1110   2.029   .     S
Cu1058 O1114   1.966   .     S
Cu1058 Cu1169  2.700   .     S
H1061  C1260   1.107   1_455 S
H1062  C1260   1.111   1_455 S
H1066  C1150   1.111   .     S
H1067  C1150   1.107   .     S
O1114  C1121   1.304   .     S
O1115  C1244   1.304   1_455 S
O1116  C1241   1.301   1_455 S
O1117  C1130   1.301   .     S
C1121  O1223   1.292   .     A
C1121  C1124   1.451   .     S
C1122  C1124   1.415   .     A
C1122  C1158   1.515   .     S
C1122  C1839   1.390   1_545 S
C1123  C1168   1.415   .     A
C1123  C1132   1.451   .     S
C1123  C1279   1.395   .     S
C1125  C1127   1.421   .     A
C1125  N1222   1.399   .     A
C1125  C1160   1.519   .     S
C1126  N1221   1.399   .     A
C1126  C1128   1.421   .     A
C1126  C1162   1.519   .     S
C1127  H1220   1.077   .     S
C1127  N1221   1.349   .     A
C1128  H1172   1.077   .     S
C1128  N1222   1.349   .     A
C1129  C1131   1.477   .     S
C1129  O1230   1.305   .     A
C1129  O1340   1.301   .     S
C1130  O1231   1.305   .     A
C1130  C1133   1.477   .     S
C1131  C1138   1.400   .     A
C1131  C1136   1.419   .     A
C1132  O1225   1.292   .     A
C1132  O1339   1.304   .     S
C1133  C1139   1.400   .     A
C1133  C1137   1.419   .     A
C1134  C1136   1.397   .     A
C1134  H1215   1.085   .     S
C1134  C1142   1.400   .     A
C1135  C1137   1.397   .     A
C1135  H1217   1.085   .     S
C1135  C1144   1.400   .     A
C1136  C1261   1.515   .     S
C1138  H1204   1.072   .     S
C1138  C1140   1.408   .     A
C1139  C1141   1.408   .     A
C1139  H1193   1.073   .     S
C1140  C1145   1.432   .     A
C1140  C1142   1.409   .     A
C1141  C1146   1.432   .     A
C1141  C1144   1.409   .     A
C1142  C156    1.383   1_556 S
C1143  C1146   1.431   .     A
C1143  C1164   1.398   .     A
C1143  O1232   1.391   .     S
C1145  C1154   1.431   .     A
C1145  C138    1.439   1_556 S
C1147  H1177   1.103   .     S
C1147  H1176   1.112   .     S
C1147  C1148   1.527   .     S
C1147  C1249   1.515   .     S
C1148  H1175   1.109   .     S
C1148  H1285   1.107   .     S
C1148  H1286   1.111   .     S
C1149  H1183   1.112   .     S
C1149  H1181   1.103   .     S
C1149  C1150   1.527   .     S
C1150  H1180   1.109   .     S
C1151  O1232   1.420   .     S
C1151  C1152   1.524   .     S
C1151  H1185   1.108   .     S
C1151  H1184   1.116   .     S
C1152  H1188   1.108   .     S
C1152  H1187   1.110   .     S
C1152  H1186   1.104   .     S
C1153  O1224   1.420   .     S
C1153  H1189   1.108   .     S
C1153  H1190   1.116   .     S
C1153  C1155   1.524   .     S
C1154  O1224   1.391   .     S
C1154  C1165   1.398   .     A
C1155  H1194   1.104   .     S
C1155  H1191   1.110   .     S
C1155  H1192   1.108   .     S
C1156  C1157   1.530   .     S
C1156  H1199   1.112   .     S
C1156  H1198   1.107   .     S
C1156  C1168   1.515   .     S
C1157  H1197   1.110   .     S
C1157  H1196   1.107   .     S
C1157  H1195   1.109   .     S
C1158  H1203   1.112   .     S
C1158  C1159   1.530   .     S
C1158  H1205   1.107   .     S
C1159  H1201   1.107   .     S
C1159  H1202   1.109   .     S
C1159  H1200   1.110   .     S
C1160  H1209   1.110   .     S
C1160  C1161   1.533   .     S
C1160  H1210   1.091   .     S
C1161  H1206   1.109   .     S
C1161  H1207   1.108   .     S
C1161  H1208   1.111   .     S
C1162  H1216   1.110   .     S
C1162  C1163   1.533   .     S
C1162  H1214   1.091   .     S
C1163  H1213   1.111   .     S
C1163  H1212   1.109   .     S
C1163  H1211   1.108   .     S
C1164  H1171   1.081   .     S
C1165  H1182   1.081   .     S
C1165  C136    1.383   1_556 S
C1166  H1218   1.081   .     S
C1166  C1236   1.395   .     S
C1166  C1840   1.390   1_545 S
C1167  H1219   1.081   .     S
C1167  C1458   1.390   .     S
C1168  C1502   1.390   .     S
Cu1169 N1221   2.029   .     S
Cu1169 O1231   1.948   .     S
Cu1169 O1228   1.959   .     S
Cu1169 O1227   1.966   .     S
Cu1169 O1223   1.961   .     S
Cu1170 O1230   1.948   .     S
Cu1170 O1225   1.961   .     S
Cu1170 O1229   1.959   .     S
Cu1170 N1222   2.029   .     S
Cu1170 O1226   1.966   .     S
Cu1170 Cu1281  2.700   .     S
H1178  C1262   1.111   .     S
H1179  C1262   1.107   .     S
O1226  C1233   1.304   .     S
O1229  C1242   1.301   .     S
C1233  O1335   1.292   .     A
C1233  C1236   1.451   .     S
C1234  C1236   1.415   .     A
C1234  C1270   1.515   .     S
C1234  C1951   1.390   1_545 S
C1235  C1280   1.415   .     A
C1235  C1244   1.451   .     S
C1235  C1055   1.395   1_655 S
C1237  C1239   1.421   .     A
C1237  N1334   1.399   .     A
C1237  C1272   1.519   .     S
C1238  N1333   1.399   .     A
C1238  C1240   1.421   .     A
C1238  C1274   1.519   .     S
C1239  H1332   1.077   .     S
C1239  N1333   1.349   .     A
C1240  H1284   1.077   .     S
C1240  N1334   1.349   .     A
C1241  C1243   1.477   .     S
C1241  O1342   1.305   .     A
C1241  O1116   1.301   1_655 S
C1242  O1343   1.305   .     A
C1242  C1245   1.477   .     S
C1243  C1250   1.400   .     A
C1243  C1248   1.419   .     A
C1244  O1337   1.292   .     A
C1244  O1115   1.304   1_655 S
C1245  C1251   1.400   .     A
C1245  C1249   1.419   .     A
C1246  C1248   1.397   .     A
C1246  H1327   1.085   .     S
C1246  C1254   1.400   .     A
C1247  C1249   1.397   .     A
C1247  H1329   1.085   .     S
C1247  C1256   1.400   .     A
C1248  C1037   1.515   1_655 S
C1250  H1316   1.072   .     S
C1250  C1252   1.408   .     A
C1251  C1253   1.408   .     A
C1251  H1305   1.073   .     S
C1252  C1257   1.432   .     A
C1252  C1254   1.409   .     A
C1253  C1258   1.432   .     A
C1253  C1256   1.409   .     A
C1254  C268    1.383   1_556 S
C1255  C1258   1.431   .     A
C1255  C1276   1.398   .     A
C1255  O1344   1.391   .     S
C1257  C1266   1.431   .     A
C1257  C250    1.439   1_556 S
C1259  H1289   1.103   .     S
C1259  H1288   1.112   .     S
C1259  C1260   1.527   .     S
C1259  C1025   1.515   1_655 S
C1260  H1287   1.109   .     S
C1260  H1061   1.107   1_655 S
C1260  H1062   1.111   1_655 S
C1261  H1295   1.112   .     S
C1261  H1293   1.103   .     S
C1261  C1262   1.527   .     S
C1262  H1292   1.109   .     S
C1263  O1344   1.420   .     S
C1263  C1264   1.524   .     S
C1263  H1297   1.108   .     S
C1263  H1296   1.116   .     S
C1264  H1300   1.108   .     S
C1264  H1299   1.110   .     S
C1264  H1298   1.104   .     S
C1265  O1336   1.420   .     S
C1265  H1301   1.108   .     S
C1265  H1302   1.116   .     S
C1265  C1267   1.524   .     S
C1266  O1336   1.391   .     S
C1266  C1277   1.398   .     A
C1267  H1306   1.104   .     S
C1267  H1303   1.110   .     S
C1267  H1304   1.108   .     S
C1268  C1269   1.530   .     S
C1268  H1311   1.112   .     S
C1268  H1310   1.107   .     S
C1268  C1280   1.515   .     S
C1269  H1309   1.110   .     S
C1269  H1308   1.107   .     S
C1269  H1307   1.109   .     S
C1270  H1315   1.112   .     S
C1270  C1271   1.530   .     S
C1270  H1317   1.107   .     S
C1271  H1313   1.107   .     S
C1271  H1314   1.109   .     S
C1271  H1312   1.110   .     S
C1272  H1321   1.110   .     S
C1272  C1273   1.533   .     S
C1272  H1322   1.091   .     S
C1273  H1318   1.109   .     S
C1273  H1319   1.108   .     S
C1273  H1320   1.111   .     S
C1274  H1328   1.110   .     S
C1274  C1275   1.533   .     S
C1274  H1326   1.091   .     S
C1275  H1325   1.111   .     S
C1275  H1324   1.109   .     S
C1275  H1323   1.108   .     S
C1276  H1283   1.081   .     S
C1277  H1294   1.081   .     S
C1277  C248    1.383   1_556 S
C1278  H1330   1.081   .     S
C1278  C1012   1.395   1_655 S
C1278  C1952   1.390   1_545 S
C1279  H1331   1.081   .     S
C1279  C1570   1.390   .     S
C1280  C1614   1.390   .     S
Cu1281 N1333   2.029   .     S
Cu1281 O1343   1.948   .     S
Cu1281 O1340   1.959   .     S
Cu1281 O1339   1.966   .     S
Cu1281 O1335   1.961   .     S
Cu1282 O1342   1.948   .     S
Cu1282 O1337   1.961   .     S
Cu1282 O1341   1.959   .     S
Cu1282 N1334   2.029   .     S
Cu1282 O1338   1.966   .     S
Cu1282 Cu1057  2.700   1_655 S
H1290  C1038   1.111   1_655 S
H1291  C1038   1.107   1_655 S
O1338  C1009   1.304   1_655 S
O1341  C1018   1.301   1_655 S
C1345  O1447   1.292   .     A
C1345  C1348   1.451   .     S
C1345  O1674   1.304   1_455 S
C1346  C1348   1.415   .     A
C1346  C1382   1.515   .     S
C1347  C1392   1.415   .     A
C1347  C1356   1.451   .     S
C1347  C1503   1.395   .     S
C1348  C1614   1.395   1_455 S
C1349  C1351   1.421   .     A
C1349  N1446   1.399   .     A
C1349  C1384   1.519   .     S
C1350  N1445   1.399   .     A
C1350  C1352   1.421   .     A
C1350  C1386   1.519   .     S
C1351  H1444   1.077   .     S
C1351  N1445   1.349   .     A
C1352  H1396   1.077   .     S
C1352  N1446   1.349   .     A
C1353  C1355   1.477   .     S
C1353  O1454   1.305   .     A
C1353  O1564   1.301   .     S
C1354  O1455   1.305   .     A
C1354  C1357   1.477   .     S
C1354  O1677   1.301   1_455 S
C1355  C1362   1.400   .     A
C1355  C1360   1.419   .     A
C1356  O1449   1.292   .     A
C1356  O1563   1.304   .     S
C1357  C1363   1.400   .     A
C1357  C1361   1.419   .     A
C1358  C1360   1.397   .     A
C1358  H1439   1.085   .     S
C1358  C1366   1.400   .     A
C1359  C1361   1.397   .     A
C1359  H1441   1.085   .     S
C1359  C1368   1.400   .     A
C1360  C1485   1.515   .     S
C1361  C1595   1.515   1_455 S
C1362  H1428   1.072   .     S
C1362  C1364   1.408   .     A
C1363  C1365   1.408   .     A
C1363  H1417   1.073   .     S
C1364  C1369   1.432   .     A
C1364  C1366   1.409   .     A
C1365  C1370   1.432   .     A
C1365  C1368   1.409   .     A
C1366  C380    1.383   1_556 S
C1367  C1370   1.431   .     A
C1367  C1388   1.398   .     A
C1367  O1456   1.391   .     S
C1369  C1378   1.431   .     A
C1369  C362    1.439   1_556 S
C1371  H1401   1.103   .     S
C1371  H1400   1.112   .     S
C1371  C1372   1.527   .     S
C1371  C1473   1.515   .     S
C1372  H1399   1.109   .     S
C1372  H1509   1.107   .     S
C1372  H1510   1.111   .     S
C1373  H1407   1.112   .     S
C1373  H1405   1.103   .     S
C1373  C1374   1.527   .     S
C1373  C1584   1.515   1_455 S
C1374  H1404   1.109   .     S
C1374  H1626   1.111   1_455 S
C1374  H1627   1.107   1_455 S
C1375  O1456   1.420   .     S
C1375  C1376   1.524   .     S
C1375  H1409   1.108   .     S
C1375  H1408   1.116   .     S
C1376  H1412   1.108   .     S
C1376  H1411   1.110   .     S
C1376  H1410   1.104   .     S
C1377  O1448   1.420   .     S
C1377  H1413   1.108   .     S
C1377  H1414   1.116   .     S
C1377  C1379   1.524   .     S
C1378  O1448   1.391   .     S
C1378  C1389   1.398   .     A
C1379  H1418   1.104   .     S
C1379  H1415   1.110   .     S
C1379  H1416   1.108   .     S
C1380  C1381   1.530   .     S
C1380  H1423   1.112   .     S
C1380  H1422   1.107   .     S
C1380  C1392   1.515   .     S
C1381  H1421   1.110   .     S
C1381  H1420   1.107   .     S
C1381  H1419   1.109   .     S
C1382  H1427   1.112   .     S
C1382  C1383   1.530   .     S
C1382  H1429   1.107   .     S
C1383  H1425   1.107   .     S
C1383  H1426   1.109   .     S
C1383  H1424   1.110   .     S
C1384  H1433   1.110   .     S
C1384  C1385   1.533   .     S
C1384  H1434   1.091   .     S
C1385  H1430   1.109   .     S
C1385  H1431   1.108   .     S
C1385  H1432   1.111   .     S
C1386  H1440   1.110   .     S
C1386  C1387   1.533   .     S
C1386  H1438   1.091   .     S
C1387  H1437   1.111   .     S
C1387  H1436   1.109   .     S
C1387  H1435   1.108   .     S
C1388  H1395   1.081   .     S
C1389  H1406   1.081   .     S
C1389  C360    1.383   1_556 S
C1390  H1442   1.081   .     S
C1390  C1460   1.395   .     S
C1391  H1443   1.081   .     S
C1391  C1571   1.395   1_455 S
C1391  C1682   1.390   .     S
C1392  C1726   1.390   .     S
Cu1393 N1445   2.029   .     S
Cu1393 O1455   1.948   .     S
Cu1393 O1452   1.959   .     S
Cu1393 O1451   1.966   .     S
Cu1393 O1447   1.961   .     S
Cu1393 Cu1618  2.700   1_455 S
Cu1394 O1454   1.948   .     S
Cu1394 O1449   1.961   .     S
Cu1394 O1453   1.959   .     S
Cu1394 N1446   2.029   .     S
Cu1394 O1450   1.966   .     S
Cu1394 Cu1505  2.700   .     S
H1397  C1596   1.107   1_455 S
H1398  C1596   1.111   1_455 S
H1402  C1486   1.111   .     S
H1403  C1486   1.107   .     S
O1450  C1457   1.304   .     S
O1451  C1580   1.304   1_455 S
O1452  C1577   1.301   1_455 S
O1453  C1466   1.301   .     S
C1457  O1559   1.292   .     A
C1457  C1460   1.451   .     S
C1458  C1460   1.415   .     A
C1458  C1494   1.515   .     S
C1459  C1504   1.415   .     A
C1459  C1468   1.451   .     S
C1459  C1615   1.395   .     S
C1461  C1463   1.421   .     A
C1461  N1558   1.399   .     A
C1461  C1496   1.519   .     S
C1462  N1557   1.399   .     A
C1462  C1464   1.421   .     A
C1462  C1498   1.519   .     S
C1463  H1556   1.077   .     S
C1463  N1557   1.349   .     A
C1464  H1508   1.077   .     S
C1464  N1558   1.349   .     A
C1465  C1467   1.477   .     S
C1465  O1566   1.305   .     A
C1465  O1676   1.301   .     S
C1466  O1567   1.305   .     A
C1466  C1469   1.477   .     S
C1467  C1474   1.400   .     A
C1467  C1472   1.419   .     A
C1468  O1561   1.292   .     A
C1468  O1675   1.304   .     S
C1469  C1475   1.400   .     A
C1469  C1473   1.419   .     A
C1470  C1472   1.397   .     A
C1470  H1551   1.085   .     S
C1470  C1478   1.400   .     A
C1471  C1473   1.397   .     A
C1471  H1553   1.085   .     S
C1471  C1480   1.400   .     A
C1472  C1597   1.515   .     S
C1474  H1540   1.072   .     S
C1474  C1476   1.408   .     A
C1475  C1477   1.408   .     A
C1475  H1529   1.073   .     S
C1476  C1481   1.432   .     A
C1476  C1478   1.409   .     A
C1477  C1482   1.432   .     A
C1477  C1480   1.409   .     A
C1478  C492    1.383   1_556 S
C1479  C1482   1.431   .     A
C1479  C1500   1.398   .     A
C1479  O1568   1.391   .     S
C1481  C1490   1.431   .     A
C1481  C474    1.439   1_556 S
C1483  H1513   1.103   .     S
C1483  H1512   1.112   .     S
C1483  C1484   1.527   .     S
C1483  C1585   1.515   .     S
C1484  H1511   1.109   .     S
C1484  H1621   1.107   .     S
C1484  H1622   1.111   .     S
C1485  H1519   1.112   .     S
C1485  H1517   1.103   .     S
C1485  C1486   1.527   .     S
C1486  H1516   1.109   .     S
C1487  O1568   1.420   .     S
C1487  C1488   1.524   .     S
C1487  H1521   1.108   .     S
C1487  H1520   1.116   .     S
C1488  H1524   1.108   .     S
C1488  H1523   1.110   .     S
C1488  H1522   1.104   .     S
C1489  O1560   1.420   .     S
C1489  H1525   1.108   .     S
C1489  H1526   1.116   .     S
C1489  C1491   1.524   .     S
C1490  O1560   1.391   .     S
C1490  C1501   1.398   .     A
C1491  H1530   1.104   .     S
C1491  H1527   1.110   .     S
C1491  H1528   1.108   .     S
C1492  C1493   1.530   .     S
C1492  H1535   1.112   .     S
C1492  H1534   1.107   .     S
C1492  C1504   1.515   .     S
C1493  H1533   1.110   .     S
C1493  H1532   1.107   .     S
C1493  H1531   1.109   .     S
C1494  H1539   1.112   .     S
C1494  C1495   1.530   .     S
C1494  H1541   1.107   .     S
C1495  H1537   1.107   .     S
C1495  H1538   1.109   .     S
C1495  H1536   1.110   .     S
C1496  H1545   1.110   .     S
C1496  C1497   1.533   .     S
C1496  H1546   1.091   .     S
C1497  H1542   1.109   .     S
C1497  H1543   1.108   .     S
C1497  H1544   1.111   .     S
C1498  H1552   1.110   .     S
C1498  C1499   1.533   .     S
C1498  H1550   1.091   .     S
C1499  H1549   1.111   .     S
C1499  H1548   1.109   .     S
C1499  H1547   1.108   .     S
C1500  H1507   1.081   .     S
C1501  H1518   1.081   .     S
C1501  C472    1.383   1_556 S
C1502  H1554   1.081   .     S
C1502  C1572   1.395   .     S
C1503  H1555   1.081   .     S
C1503  C1794   1.390   .     S
C1504  C1838   1.390   .     S
Cu1505 N1557   2.029   .     S
Cu1505 O1567   1.948   .     S
Cu1505 O1564   1.959   .     S
Cu1505 O1563   1.966   .     S
Cu1505 O1559   1.961   .     S
Cu1506 O1566   1.948   .     S
Cu1506 O1561   1.961   .     S
Cu1506 O1565   1.959   .     S
Cu1506 N1558   2.029   .     S
Cu1506 O1562   1.966   .     S
Cu1506 Cu1617  2.700   .     S
H1514  C1598   1.111   .     S
H1515  C1598   1.107   .     S
O1562  C1569   1.304   .     S
O1565  C1578   1.301   .     S
C1569  O1671   1.292   .     A
C1569  C1572   1.451   .     S
C1570  C1572   1.415   .     A
C1570  C1606   1.515   .     S
C1571  C1616   1.415   .     A
C1571  C1580   1.451   .     S
C1571  C1391   1.395   1_655 S
C1573  C1575   1.421   .     A
C1573  N1670   1.399   .     A
C1573  C1608   1.519   .     S
C1574  N1669   1.399   .     A
C1574  C1576   1.421   .     A
C1574  C1610   1.519   .     S
C1575  H1668   1.077   .     S
C1575  N1669   1.349   .     A
C1576  H1620   1.077   .     S
C1576  N1670   1.349   .     A
C1577  C1579   1.477   .     S
C1577  O1678   1.305   .     A
C1577  O1452   1.301   1_655 S
C1578  O1679   1.305   .     A
C1578  C1581   1.477   .     S
C1579  C1586   1.400   .     A
C1579  C1584   1.419   .     A
C1580  O1673   1.292   .     A
C1580  O1451   1.304   1_655 S
C1581  C1587   1.400   .     A
C1581  C1585   1.419   .     A
C1582  C1584   1.397   .     A
C1582  H1663   1.085   .     S
C1582  C1590   1.400   .     A
C1583  C1585   1.397   .     A
C1583  H1665   1.085   .     S
C1583  C1592   1.400   .     A
C1584  C1373   1.515   1_655 S
C1586  H1652   1.072   .     S
C1586  C1588   1.408   .     A
C1587  C1589   1.408   .     A
C1587  H1641   1.073   .     S
C1588  C1593   1.432   .     A
C1588  C1590   1.409   .     A
C1589  C1594   1.432   .     A
C1589  C1592   1.409   .     A
C1590  C604    1.383   1_556 S
C1591  C1594   1.431   .     A
C1591  C1612   1.398   .     A
C1591  O1680   1.391   .     S
C1593  C1602   1.431   .     A
C1593  C586    1.439   1_556 S
C1595  H1625   1.103   .     S
C1595  H1624   1.112   .     S
C1595  C1596   1.527   .     S
C1595  C1361   1.515   1_655 S
C1596  H1623   1.109   .     S
C1596  H1397   1.107   1_655 S
C1596  H1398   1.111   1_655 S
C1597  H1631   1.112   .     S
C1597  H1629   1.103   .     S
C1597  C1598   1.527   .     S
C1598  H1628   1.109   .     S
C1599  O1680   1.420   .     S
C1599  C1600   1.524   .     S
C1599  H1633   1.108   .     S
C1599  H1632   1.116   .     S
C1600  H1636   1.108   .     S
C1600  H1635   1.110   .     S
C1600  H1634   1.104   .     S
C1601  O1672   1.420   .     S
C1601  H1637   1.108   .     S
C1601  H1638   1.116   .     S
C1601  C1603   1.524   .     S
C1602  O1672   1.391   .     S
C1602  C1613   1.398   .     A
C1603  H1642   1.104   .     S
C1603  H1639   1.110   .     S
C1603  H1640   1.108   .     S
C1604  C1605   1.530   .     S
C1604  H1647   1.112   .     S
C1604  H1646   1.107   .     S
C1604  C1616   1.515   .     S
C1605  H1645   1.110   .     S
C1605  H1644   1.107   .     S
C1605  H1643   1.109   .     S
C1606  H1651   1.112   .     S
C1606  C1607   1.530   .     S
C1606  H1653   1.107   .     S
C1607  H1649   1.107   .     S
C1607  H1650   1.109   .     S
C1607  H1648   1.110   .     S
C1608  H1657   1.110   .     S
C1608  C1609   1.533   .     S
C1608  H1658   1.091   .     S
C1609  H1654   1.109   .     S
C1609  H1655   1.108   .     S
C1609  H1656   1.111   .     S
C1610  H1664   1.110   .     S
C1610  C1611   1.533   .     S
C1610  H1662   1.091   .     S
C1611  H1661   1.111   .     S
C1611  H1660   1.109   .     S
C1611  H1659   1.108   .     S
C1612  H1619   1.081   .     S
C1613  H1630   1.081   .     S
C1613  C584    1.383   1_556 S
C1614  H1666   1.081   .     S
C1614  C1348   1.395   1_655 S
C1615  H1667   1.081   .     S
C1615  C1906   1.390   .     S
C1616  C1950   1.390   .     S
Cu1617 N1669   2.029   .     S
Cu1617 O1679   1.948   .     S
Cu1617 O1676   1.959   .     S
Cu1617 O1675   1.966   .     S
Cu1617 O1671   1.961   .     S
Cu1618 O1678   1.948   .     S
Cu1618 O1673   1.961   .     S
Cu1618 O1677   1.959   .     S
Cu1618 N1670   2.029   .     S
Cu1618 O1674   1.966   .     S
Cu1618 Cu1393  2.700   1_655 S
H1626  C1374   1.111   1_655 S
H1627  C1374   1.107   1_655 S
O1674  C1345   1.304   1_655 S
O1677  C1354   1.301   1_655 S
C1681  O1783   1.292   .     A
C1681  C1684   1.451   .     S
C1681  O2010   1.304   1_455 S
C1682  C1684   1.415   .     A
C1682  C1718   1.515   .     S
C1683  C1728   1.415   .     A
C1683  C1692   1.451   .     S
C1683  C1839   1.395   .     S
C1684  C1950   1.395   1_455 S
C1685  C1687   1.421   .     A
C1685  N1782   1.399   .     A
C1685  C1720   1.519   .     S
C1686  N1781   1.399   .     A
C1686  C1688   1.421   .     A
C1686  C1722   1.519   .     S
C1687  H1780   1.077   .     S
C1687  N1781   1.349   .     A
C1688  H1732   1.077   .     S
C1688  N1782   1.349   .     A
C1689  C1691   1.477   .     S
C1689  O1790   1.305   .     A
C1689  O1900   1.301   .     S
C1690  O1791   1.305   .     A
C1690  C1693   1.477   .     S
C1690  O2013   1.301   1_455 S
C1691  C1698   1.400   .     A
C1691  C1696   1.419   .     A
C1692  O1785   1.292   .     A
C1692  O1899   1.304   .     S
C1693  C1699   1.400   .     A
C1693  C1697   1.419   .     A
C1694  C1696   1.397   .     A
C1694  H1775   1.085   .     S
C1694  C1702   1.400   .     A
C1695  C1697   1.397   .     A
C1695  H1777   1.085   .     S
C1695  C1704   1.400   .     A
C1696  C1821   1.515   .     S
C1697  C1931   1.515   1_455 S
C1698  H1764   1.072   .     S
C1698  C1700   1.408   .     A
C1699  C1701   1.408   .     A
C1699  H1753   1.073   .     S
C1700  C1705   1.432   .     A
C1700  C1702   1.409   .     A
C1701  C1706   1.432   .     A
C1701  C1704   1.409   .     A
C1702  C716    1.383   1_556 S
C1703  C1706   1.431   .     A
C1703  C1724   1.398   .     A
C1703  O1792   1.391   .     S
C1705  C1714   1.431   .     A
C1705  C698    1.439   1_556 S
C1707  H1737   1.103   .     S
C1707  H1736   1.112   .     S
C1707  C1708   1.527   .     S
C1707  C1809   1.515   .     S
C1708  H1735   1.109   .     S
C1708  H1845   1.107   .     S
C1708  H1846   1.111   .     S
C1709  H1743   1.112   .     S
C1709  H1741   1.103   .     S
C1709  C1710   1.527   .     S
C1709  C1920   1.515   1_455 S
C1710  H1740   1.109   .     S
C1710  H1962   1.111   1_455 S
C1710  H1963   1.107   1_455 S
C1711  O1792   1.420   .     S
C1711  C1712   1.524   .     S
C1711  H1745   1.108   .     S
C1711  H1744   1.116   .     S
C1712  H1748   1.108   .     S
C1712  H1747   1.110   .     S
C1712  H1746   1.104   .     S
C1713  O1784   1.420   .     S
C1713  H1749   1.108   .     S
C1713  H1750   1.116   .     S
C1713  C1715   1.524   .     S
C1714  O1784   1.391   .     S
C1714  C1725   1.398   .     A
C1715  H1754   1.104   .     S
C1715  H1751   1.110   .     S
C1715  H1752   1.108   .     S
C1716  C1717   1.530   .     S
C1716  H1759   1.112   .     S
C1716  H1758   1.107   .     S
C1716  C1728   1.515   .     S
C1717  H1757   1.110   .     S
C1717  H1756   1.107   .     S
C1717  H1755   1.109   .     S
C1718  H1763   1.112   .     S
C1718  C1719   1.530   .     S
C1718  H1765   1.107   .     S
C1719  H1761   1.107   .     S
C1719  H1762   1.109   .     S
C1719  H1760   1.110   .     S
C1720  H1769   1.110   .     S
C1720  C1721   1.533   .     S
C1720  H1770   1.091   .     S
C1721  H1766   1.109   .     S
C1721  H1767   1.108   .     S
C1721  H1768   1.111   .     S
C1722  H1776   1.110   .     S
C1722  C1723   1.533   .     S
C1722  H1774   1.091   .     S
C1723  H1773   1.111   .     S
C1723  H1772   1.109   .     S
C1723  H1771   1.108   .     S
C1724  H1731   1.081   .     S
C1725  H1742   1.081   .     S
C1725  C696    1.383   1_556 S
C1726  H1778   1.081   .     S
C1726  C1796   1.395   .     S
C1727  H1779   1.081   .     S
C1727  C1907   1.395   1_455 S
C1727  C1010   1.390   1_565 S
C1728  C1054   1.390   1_565 S
Cu1729 N1781   2.029   .     S
Cu1729 O1791   1.948   .     S
Cu1729 O1788   1.959   .     S
Cu1729 O1787   1.966   .     S
Cu1729 O1783   1.961   .     S
Cu1729 Cu1954  2.700   1_455 S
Cu1730 O1790   1.948   .     S
Cu1730 O1785   1.961   .     S
Cu1730 O1789   1.959   .     S
Cu1730 N1782   2.029   .     S
Cu1730 O1786   1.966   .     S
Cu1730 Cu1841  2.700   .     S
H1733  C1932   1.107   1_455 S
H1734  C1932   1.111   1_455 S
H1738  C1822   1.111   .     S
H1739  C1822   1.107   .     S
O1786  C1793   1.304   .     S
O1787  C1916   1.304   1_455 S
O1788  C1913   1.301   1_455 S
O1789  C1802   1.301   .     S
C1793  O1895   1.292   .     A
C1793  C1796   1.451   .     S
C1794  C1796   1.415   .     A
C1794  C1830   1.515   .     S
C1795  C1840   1.415   .     A
C1795  C1804   1.451   .     S
C1795  C1951   1.395   .     S
C1797  C1799   1.421   .     A
C1797  N1894   1.399   .     A
C1797  C1832   1.519   .     S
C1798  N1893   1.399   .     A
C1798  C1800   1.421   .     A
C1798  C1834   1.519   .     S
C1799  H1892   1.077   .     S
C1799  N1893   1.349   .     A
C1800  H1844   1.077   .     S
C1800  N1894   1.349   .     A
C1801  C1803   1.477   .     S
C1801  O1902   1.305   .     A
C1801  O2012   1.301   .     S
C1802  O1903   1.305   .     A
C1802  C1805   1.477   .     S
C1803  C1810   1.400   .     A
C1803  C1808   1.419   .     A
C1804  O1897   1.292   .     A
C1804  O2011   1.304   .     S
C1805  C1811   1.400   .     A
C1805  C1809   1.419   .     A
C1806  C1808   1.397   .     A
C1806  H1887   1.085   .     S
C1806  C1814   1.400   .     A
C1807  C1809   1.397   .     A
C1807  H1889   1.085   .     S
C1807  C1816   1.400   .     A
C1808  C1933   1.515   .     S
C1810  H1876   1.072   .     S
C1810  C1812   1.408   .     A
C1811  C1813   1.408   .     A
C1811  H1865   1.073   .     S
C1812  C1817   1.432   .     A
C1812  C1814   1.409   .     A
C1813  C1818   1.432   .     A
C1813  C1816   1.409   .     A
C1814  C828    1.383   1_556 S
C1815  C1818   1.431   .     A
C1815  C1836   1.398   .     A
C1815  O1904   1.391   .     S
C1817  C1826   1.431   .     A
C1817  C810    1.439   1_556 S
C1819  H1849   1.103   .     S
C1819  H1848   1.112   .     S
C1819  C1820   1.527   .     S
C1819  C1921   1.515   .     S
C1820  H1847   1.109   .     S
C1820  H1957   1.107   .     S
C1820  H1958   1.111   .     S
C1821  H1855   1.112   .     S
C1821  H1853   1.103   .     S
C1821  C1822   1.527   .     S
C1822  H1852   1.109   .     S
C1823  O1904   1.420   .     S
C1823  C1824   1.524   .     S
C1823  H1857   1.108   .     S
C1823  H1856   1.116   .     S
C1824  H1860   1.108   .     S
C1824  H1859   1.110   .     S
C1824  H1858   1.104   .     S
C1825  O1896   1.420   .     S
C1825  H1861   1.108   .     S
C1825  H1862   1.116   .     S
C1825  C1827   1.524   .     S
C1826  O1896   1.391   .     S
C1826  C1837   1.398   .     A
C1827  H1866   1.104   .     S
C1827  H1863   1.110   .     S
C1827  H1864   1.108   .     S
C1828  C1829   1.530   .     S
C1828  H1871   1.112   .     S
C1828  H1870   1.107   .     S
C1828  C1840   1.515   .     S
C1829  H1869   1.110   .     S
C1829  H1868   1.107   .     S
C1829  H1867   1.109   .     S
C1830  H1875   1.112   .     S
C1830  C1831   1.530   .     S
C1830  H1877   1.107   .     S
C1831  H1873   1.107   .     S
C1831  H1874   1.109   .     S
C1831  H1872   1.110   .     S
C1832  H1881   1.110   .     S
C1832  C1833   1.533   .     S
C1832  H1882   1.091   .     S
C1833  H1878   1.109   .     S
C1833  H1879   1.108   .     S
C1833  H1880   1.111   .     S
C1834  H1888   1.110   .     S
C1834  C1835   1.533   .     S
C1834  H1886   1.091   .     S
C1835  H1885   1.111   .     S
C1835  H1884   1.109   .     S
C1835  H1883   1.108   .     S
C1836  H1843   1.081   .     S
C1837  H1854   1.081   .     S
C1837  C808    1.383   1_556 S
C1838  H1890   1.081   .     S
C1838  C1908   1.395   .     S
C1839  H1891   1.081   .     S
C1839  C1122   1.390   1_565 S
C1840  C1166   1.390   1_565 S
Cu1841 N1893   2.029   .     S
Cu1841 O1903   1.948   .     S
Cu1841 O1900   1.959   .     S
Cu1841 O1899   1.966   .     S
Cu1841 O1895   1.961   .     S
Cu1842 O1902   1.948   .     S
Cu1842 O1897   1.961   .     S
Cu1842 O1901   1.959   .     S
Cu1842 N1894   2.029   .     S
Cu1842 O1898   1.966   .     S
Cu1842 Cu1953  2.700   .     S
H1850  C1934   1.111   .     S
H1851  C1934   1.107   .     S
O1898  C1905   1.304   .     S
O1901  C1914   1.301   .     S
C1905  O2007   1.292   .     A
C1905  C1908   1.451   .     S
C1906  C1908   1.415   .     A
C1906  C1942   1.515   .     S
C1907  C1952   1.415   .     A
C1907  C1916   1.451   .     S
C1907  C1727   1.395   1_655 S
C1909  C1911   1.421   .     A
C1909  N2006   1.399   .     A
C1909  C1944   1.519   .     S
C1910  N2005   1.399   .     A
C1910  C1912   1.421   .     A
C1910  C1946   1.519   .     S
C1911  H2004   1.077   .     S
C1911  N2005   1.349   .     A
C1912  H1956   1.077   .     S
C1912  N2006   1.349   .     A
C1913  C1915   1.477   .     S
C1913  O2014   1.305   .     A
C1913  O1788   1.301   1_655 S
C1914  O2015   1.305   .     A
C1914  C1917   1.477   .     S
C1915  C1922   1.400   .     A
C1915  C1920   1.419   .     A
C1916  O2009   1.292   .     A
C1916  O1787   1.304   1_655 S
C1917  C1923   1.400   .     A
C1917  C1921   1.419   .     A
C1918  C1920   1.397   .     A
C1918  H1999   1.085   .     S
C1918  C1926   1.400   .     A
C1919  C1921   1.397   .     A
C1919  H2001   1.085   .     S
C1919  C1928   1.400   .     A
C1920  C1709   1.515   1_655 S
C1922  H1988   1.072   .     S
C1922  C1924   1.408   .     A
C1923  C1925   1.408   .     A
C1923  H1977   1.073   .     S
C1924  C1929   1.432   .     A
C1924  C1926   1.409   .     A
C1925  C1930   1.432   .     A
C1925  C1928   1.409   .     A
C1926  C940    1.383   1_556 S
C1927  C1930   1.431   .     A
C1927  C1948   1.398   .     A
C1927  O2016   1.391   .     S
C1929  C1938   1.431   .     A
C1929  C922    1.439   1_556 S
C1931  H1961   1.103   .     S
C1931  H1960   1.112   .     S
C1931  C1932   1.527   .     S
C1931  C1697   1.515   1_655 S
C1932  H1959   1.109   .     S
C1932  H1733   1.107   1_655 S
C1932  H1734   1.111   1_655 S
C1933  H1967   1.112   .     S
C1933  H1965   1.103   .     S
C1933  C1934   1.527   .     S
C1934  H1964   1.109   .     S
C1935  O2016   1.420   .     S
C1935  C1936   1.524   .     S
C1935  H1969   1.108   .     S
C1935  H1968   1.116   .     S
C1936  H1972   1.108   .     S
C1936  H1971   1.110   .     S
C1936  H1970   1.104   .     S
C1937  O2008   1.420   .     S
C1937  H1973   1.108   .     S
C1937  H1974   1.116   .     S
C1937  C1939   1.524   .     S
C1938  O2008   1.391   .     S
C1938  C1949   1.398   .     A
C1939  H1978   1.104   .     S
C1939  H1975   1.110   .     S
C1939  H1976   1.108   .     S
C1940  C1941   1.530   .     S
C1940  H1983   1.112   .     S
C1940  H1982   1.107   .     S
C1940  C1952   1.515   .     S
C1941  H1981   1.110   .     S
C1941  H1980   1.107   .     S
C1941  H1979   1.109   .     S
C1942  H1987   1.112   .     S
C1942  C1943   1.530   .     S
C1942  H1989   1.107   .     S
C1943  H1985   1.107   .     S
C1943  H1986   1.109   .     S
C1943  H1984   1.110   .     S
C1944  H1993   1.110   .     S
C1944  C1945   1.533   .     S
C1944  H1994   1.091   .     S
C1945  H1990   1.109   .     S
C1945  H1991   1.108   .     S
C1945  H1992   1.111   .     S
C1946  H2000   1.110   .     S
C1946  C1947   1.533   .     S
C1946  H1998   1.091   .     S
C1947  H1997   1.111   .     S
C1947  H1996   1.109   .     S
C1947  H1995   1.108   .     S
C1948  H1955   1.081   .     S
C1949  H1966   1.081   .     S
C1949  C920    1.383   1_556 S
C1950  H2002   1.081   .     S
C1950  C1684   1.395   1_655 S
C1951  H2003   1.081   .     S
C1951  C1234   1.390   1_565 S
C1952  C1278   1.390   1_565 S
Cu1953 N2005   2.029   .     S
Cu1953 O2015   1.948   .     S
Cu1953 O2012   1.959   .     S
Cu1953 O2011   1.966   .     S
Cu1953 O2007   1.961   .     S
Cu1954 O2014   1.948   .     S
Cu1954 O2009   1.961   .     S
Cu1954 O2013   1.959   .     S
Cu1954 N2006   2.029   .     S
Cu1954 O2010   1.966   .     S
Cu1954 Cu1729  2.700   1_655 S
H1962  C1710   1.111   1_655 S
H1963  C1710   1.107   1_655 S
O2010  C1681   1.304   1_655 S
O2013  C1690   1.301   1_655 S
