data_str_m2_o10_o17_pcu_sym.26
_audit_creation_date              2020-01-03
_audit_creation_method            'Materials Studio'
_symmetry_space_group_name_H-M    'P1'
_symmetry_Int_Tables_number       1
_symmetry_cell_setting            triclinic
loop_
_symmetry_equiv_pos_as_xyz
  x,y,z
_cell_length_a                    30.0679
_cell_length_b                    26.1765
_cell_length_c                    22.4944
_cell_angle_alpha                 102.7662
_cell_angle_beta                  95.1173
_cell_angle_gamma                 93.6633
loop_
_atom_site_label
_atom_site_type_symbol
_atom_site_fract_x
_atom_site_fract_y
_atom_site_fract_z
_atom_site_U_iso_or_equiv
_atom_site_adp_type
_atom_site_occupancy
C1     C     0.24803   0.06678   0.15148   0.00000  Uiso   1.00
C2     C     0.08818   0.14568   0.11287   0.00000  Uiso   1.00
C3     C     0.38395   0.16729   0.16603   0.00000  Uiso   1.00
C4     C     0.11605   0.16604   0.16730   0.00000  Uiso   1.00
C5     C     0.40225   0.14690   0.11155   0.00000  Uiso   1.00
C6     C     0.09775   0.18643   0.22179   0.00000  Uiso   1.00
C7     C     0.44864   0.14604   0.11097   0.00000  Uiso   1.00
C8     C     0.05136   0.18730   0.22236   0.00000  Uiso   1.00
C9     C     0.47668   0.16680   0.16628   0.00000  Uiso   1.00
C10    C     0.02332   0.16654   0.16705   0.00000  Uiso   1.00
C11    C     0.45807   0.18775   0.22094   0.00000  Uiso   1.00
C12    C     0.25197   0.26655   0.18185   0.00000  Uiso   1.00
C13    C     0.04193   0.14558   0.11239   0.00000  Uiso   1.00
C14    C     0.46776   0.12479   0.05681   0.00000  Uiso   1.00
C15    C     0.03224   0.20854   0.27652   0.00000  Uiso   1.00
C16    C     0.01416   0.12485   0.05793   0.00000  Uiso   1.00
C17    C     0.48584   0.20848   0.27541   0.00000  Uiso   1.00
C18    C     0.24098   0.01131   0.14473   0.00000  Uiso   1.00
C19    C     0.25902   0.32203   0.18860   0.00000  Uiso   1.00
C20    C     0.16443   0.16636   0.16692   0.00000  Uiso   1.00
C21    C     0.33557   0.16698   0.16641   0.00000  Uiso   1.00
C22    C     0.41182   0.18765   0.22046   0.00000  Uiso   1.00
Cl23   Cl    0.43509   0.09705   0.31992   0.00000  Uiso   1.00
Cl24   Cl    0.06491   0.23629   0.01342   0.00000  Uiso   1.00
Cl25   Cl    0.20189   0.31153   0.08187   0.00000  Uiso   1.00
Cl26   Cl    0.29811   0.02180   0.25147   0.00000  Uiso   1.00
Cl27   Cl    0.19717   0.10587   0.30227   0.00000  Uiso   1.00
Cl28   Cl    0.30283   0.22746   0.03106   0.00000  Uiso   1.00
Cu29   Cu    0.25500   0.17246   0.22813   0.00000  Uiso   1.00
Cu30   Cu    0.24499   0.16087   0.10521   0.00000  Uiso   1.00
H31    H     0.38002   0.13116   0.07005   0.00000  Uiso   1.00
H32    H     0.11997   0.20217   0.26329   0.00000  Uiso   1.00
H33    H     0.02857   0.10867   0.01601   0.00000  Uiso   1.00
H34    H     0.47143   0.22467   0.31732   0.00000  Uiso   1.00
H35    H     0.39751   0.20374   0.26251   0.00000  Uiso   1.00
H36    H     0.10249   0.12960   0.07082   0.00000  Uiso   1.00
N37    N     0.23744   0.15214   0.01284   0.00000  Uiso   1.00
N38    N     0.26255   0.18119   0.32049   0.00000  Uiso   1.00
O39    O     0.25325   0.09538   0.20659   0.00000  Uiso   1.00
O40    O     0.24674   0.23796   0.12674   0.00000  Uiso   1.00
O41    O     0.24480   0.08559   0.10279   0.00000  Uiso   1.00
O42    O     0.25520   0.24774   0.23055   0.00000  Uiso   1.00
O43    O     0.18935   0.17155   0.21857   0.00000  Uiso   1.00
O44    O     0.31064   0.16179   0.11476   0.00000  Uiso   1.00
O45    O     0.18090   0.16176   0.11477   0.00000  Uiso   1.00
O46    O     0.31910   0.17157   0.21857   0.00000  Uiso   1.00
C47    C     0.74803   0.06678   0.15148   0.00000  Uiso   1.00
C48    C     0.58818   0.14568   0.11287   0.00000  Uiso   1.00
C49    C     0.88395   0.16729   0.16603   0.00000  Uiso   1.00
C50    C     0.61605   0.16604   0.16730   0.00000  Uiso   1.00
C51    C     0.90225   0.14690   0.11155   0.00000  Uiso   1.00
C52    C     0.59775   0.18643   0.22179   0.00000  Uiso   1.00
C53    C     0.94864   0.14604   0.11097   0.00000  Uiso   1.00
C54    C     0.55136   0.18730   0.22236   0.00000  Uiso   1.00
C55    C     0.97668   0.16680   0.16628   0.00000  Uiso   1.00
C56    C     0.52332   0.16654   0.16705   0.00000  Uiso   1.00
C57    C     0.95807   0.18775   0.22094   0.00000  Uiso   1.00
C58    C     0.75197   0.26655   0.18185   0.00000  Uiso   1.00
C59    C     0.54193   0.14558   0.11239   0.00000  Uiso   1.00
C60    C     0.96776   0.12479   0.05681   0.00000  Uiso   1.00
C61    C     0.53224   0.20854   0.27652   0.00000  Uiso   1.00
C62    C     0.51416   0.12485   0.05793   0.00000  Uiso   1.00
C63    C     0.98584   0.20848   0.27541   0.00000  Uiso   1.00
C64    C     0.74098   0.01131   0.14473   0.00000  Uiso   1.00
C65    C     0.75902   0.32203   0.18860   0.00000  Uiso   1.00
C66    C     0.66443   0.16636   0.16692   0.00000  Uiso   1.00
C67    C     0.83557   0.16698   0.16641   0.00000  Uiso   1.00
C68    C     0.91182   0.18765   0.22046   0.00000  Uiso   1.00
Cl69   Cl    0.93509   0.09705   0.31992   0.00000  Uiso   1.00
Cl70   Cl    0.56491   0.23629   0.01342   0.00000  Uiso   1.00
Cl71   Cl    0.70189   0.31153   0.08187   0.00000  Uiso   1.00
Cl72   Cl    0.79811   0.02180   0.25147   0.00000  Uiso   1.00
Cl73   Cl    0.69717   0.10587   0.30227   0.00000  Uiso   1.00
Cl74   Cl    0.80283   0.22746   0.03106   0.00000  Uiso   1.00
Cu75   Cu    0.75500   0.17246   0.22813   0.00000  Uiso   1.00
Cu76   Cu    0.74499   0.16087   0.10521   0.00000  Uiso   1.00
H77    H     0.88002   0.13116   0.07005   0.00000  Uiso   1.00
H78    H     0.61997   0.20217   0.26329   0.00000  Uiso   1.00
H79    H     0.52857   0.10867   0.01601   0.00000  Uiso   1.00
H80    H     0.97143   0.22467   0.31732   0.00000  Uiso   1.00
H81    H     0.89751   0.20374   0.26251   0.00000  Uiso   1.00
H82    H     0.60249   0.12960   0.07082   0.00000  Uiso   1.00
N83    N     0.73744   0.15214   0.01284   0.00000  Uiso   1.00
N84    N     0.76255   0.18119   0.32049   0.00000  Uiso   1.00
O85    O     0.75325   0.09538   0.20659   0.00000  Uiso   1.00
O86    O     0.74674   0.23796   0.12674   0.00000  Uiso   1.00
O87    O     0.74480   0.08559   0.10279   0.00000  Uiso   1.00
O88    O     0.75520   0.24774   0.23055   0.00000  Uiso   1.00
O89    O     0.68935   0.17155   0.21857   0.00000  Uiso   1.00
O90    O     0.81064   0.16179   0.11476   0.00000  Uiso   1.00
O91    O     0.68090   0.16176   0.11477   0.00000  Uiso   1.00
O92    O     0.81910   0.17157   0.21857   0.00000  Uiso   1.00
C93    C     0.24803   0.40012   0.15148   0.00000  Uiso   1.00
C94    C     0.08818   0.47902   0.11287   0.00000  Uiso   1.00
C95    C     0.38395   0.50063   0.16603   0.00000  Uiso   1.00
C96    C     0.11605   0.49937   0.16730   0.00000  Uiso   1.00
C97    C     0.40225   0.48023   0.11155   0.00000  Uiso   1.00
C98    C     0.09775   0.51977   0.22179   0.00000  Uiso   1.00
C99    C     0.44864   0.47937   0.11097   0.00000  Uiso   1.00
C100   C     0.05136   0.52063   0.22236   0.00000  Uiso   1.00
C101   C     0.47668   0.50013   0.16628   0.00000  Uiso   1.00
C102   C     0.02332   0.49987   0.16705   0.00000  Uiso   1.00
C103   C     0.45807   0.52109   0.22094   0.00000  Uiso   1.00
C104   C     0.25197   0.59988   0.18185   0.00000  Uiso   1.00
C105   C     0.04193   0.47891   0.11239   0.00000  Uiso   1.00
C106   C     0.46776   0.45812   0.05681   0.00000  Uiso   1.00
C107   C     0.03224   0.54188   0.27652   0.00000  Uiso   1.00
C108   C     0.01416   0.45818   0.05793   0.00000  Uiso   1.00
C109   C     0.48584   0.54182   0.27541   0.00000  Uiso   1.00
C110   C     0.24098   0.34464   0.14473   0.00000  Uiso   1.00
C111   C     0.25902   0.65536   0.18860   0.00000  Uiso   1.00
C112   C     0.16443   0.49969   0.16692   0.00000  Uiso   1.00
C113   C     0.33557   0.50031   0.16641   0.00000  Uiso   1.00
C114   C     0.41182   0.52098   0.22046   0.00000  Uiso   1.00
Cl115  Cl    0.43509   0.43038   0.31992   0.00000  Uiso   1.00
Cl116  Cl    0.06491   0.56962   0.01342   0.00000  Uiso   1.00
Cl117  Cl    0.20189   0.64487   0.08187   0.00000  Uiso   1.00
Cl118  Cl    0.29811   0.35513   0.25147   0.00000  Uiso   1.00
Cl119  Cl    0.19717   0.43921   0.30227   0.00000  Uiso   1.00
Cl120  Cl    0.30283   0.56079   0.03106   0.00000  Uiso   1.00
Cu121  Cu    0.25500   0.50579   0.22813   0.00000  Uiso   1.00
Cu122  Cu    0.24499   0.49421   0.10521   0.00000  Uiso   1.00
H123   H     0.38002   0.46449   0.07005   0.00000  Uiso   1.00
H124   H     0.11997   0.53551   0.26329   0.00000  Uiso   1.00
H125   H     0.02857   0.44200   0.01601   0.00000  Uiso   1.00
H126   H     0.47143   0.55800   0.31732   0.00000  Uiso   1.00
H127   H     0.39751   0.53707   0.26251   0.00000  Uiso   1.00
H128   H     0.10249   0.46293   0.07082   0.00000  Uiso   1.00
N129   N     0.23744   0.48547   0.01284   0.00000  Uiso   1.00
N130   N     0.26255   0.51453   0.32049   0.00000  Uiso   1.00
O131   O     0.25325   0.42871   0.20659   0.00000  Uiso   1.00
O132   O     0.24674   0.57129   0.12674   0.00000  Uiso   1.00
O133   O     0.24480   0.41892   0.10279   0.00000  Uiso   1.00
O134   O     0.25520   0.58108   0.23055   0.00000  Uiso   1.00
O135   O     0.18935   0.50488   0.21857   0.00000  Uiso   1.00
O136   O     0.31064   0.49512   0.11476   0.00000  Uiso   1.00
O137   O     0.18090   0.49510   0.11477   0.00000  Uiso   1.00
O138   O     0.31910   0.50490   0.21857   0.00000  Uiso   1.00
C139   C     0.74803   0.40012   0.15148   0.00000  Uiso   1.00
C140   C     0.58818   0.47902   0.11287   0.00000  Uiso   1.00
C141   C     0.88395   0.50063   0.16603   0.00000  Uiso   1.00
C142   C     0.61605   0.49937   0.16730   0.00000  Uiso   1.00
C143   C     0.90225   0.48023   0.11155   0.00000  Uiso   1.00
C144   C     0.59775   0.51977   0.22179   0.00000  Uiso   1.00
C145   C     0.94864   0.47937   0.11097   0.00000  Uiso   1.00
C146   C     0.55136   0.52063   0.22236   0.00000  Uiso   1.00
C147   C     0.97668   0.50013   0.16628   0.00000  Uiso   1.00
C148   C     0.52332   0.49987   0.16705   0.00000  Uiso   1.00
C149   C     0.95807   0.52109   0.22094   0.00000  Uiso   1.00
C150   C     0.75197   0.59988   0.18185   0.00000  Uiso   1.00
C151   C     0.54193   0.47891   0.11239   0.00000  Uiso   1.00
C152   C     0.96776   0.45812   0.05681   0.00000  Uiso   1.00
C153   C     0.53224   0.54188   0.27652   0.00000  Uiso   1.00
C154   C     0.51416   0.45818   0.05793   0.00000  Uiso   1.00
C155   C     0.98584   0.54182   0.27541   0.00000  Uiso   1.00
C156   C     0.74098   0.34464   0.14473   0.00000  Uiso   1.00
C157   C     0.75902   0.65536   0.18860   0.00000  Uiso   1.00
C158   C     0.66443   0.49969   0.16692   0.00000  Uiso   1.00
C159   C     0.83557   0.50031   0.16641   0.00000  Uiso   1.00
C160   C     0.91182   0.52098   0.22046   0.00000  Uiso   1.00
Cl161  Cl    0.93509   0.43038   0.31992   0.00000  Uiso   1.00
Cl162  Cl    0.56491   0.56962   0.01342   0.00000  Uiso   1.00
Cl163  Cl    0.70189   0.64487   0.08187   0.00000  Uiso   1.00
Cl164  Cl    0.79811   0.35513   0.25147   0.00000  Uiso   1.00
Cl165  Cl    0.69717   0.43921   0.30227   0.00000  Uiso   1.00
Cl166  Cl    0.80283   0.56079   0.03106   0.00000  Uiso   1.00
Cu167  Cu    0.75500   0.50579   0.22813   0.00000  Uiso   1.00
Cu168  Cu    0.74499   0.49421   0.10521   0.00000  Uiso   1.00
H169   H     0.88002   0.46449   0.07005   0.00000  Uiso   1.00
H170   H     0.61997   0.53551   0.26329   0.00000  Uiso   1.00
H171   H     0.52857   0.44200   0.01601   0.00000  Uiso   1.00
H172   H     0.97143   0.55800   0.31732   0.00000  Uiso   1.00
H173   H     0.89751   0.53707   0.26251   0.00000  Uiso   1.00
H174   H     0.60249   0.46293   0.07082   0.00000  Uiso   1.00
N175   N     0.73744   0.48547   0.01284   0.00000  Uiso   1.00
N176   N     0.76255   0.51453   0.32049   0.00000  Uiso   1.00
O177   O     0.75325   0.42871   0.20659   0.00000  Uiso   1.00
O178   O     0.74674   0.57129   0.12674   0.00000  Uiso   1.00
O179   O     0.74480   0.41892   0.10279   0.00000  Uiso   1.00
O180   O     0.75520   0.58108   0.23055   0.00000  Uiso   1.00
O181   O     0.68935   0.50488   0.21857   0.00000  Uiso   1.00
O182   O     0.81064   0.49512   0.11476   0.00000  Uiso   1.00
O183   O     0.68090   0.49510   0.11477   0.00000  Uiso   1.00
O184   O     0.81910   0.50490   0.21857   0.00000  Uiso   1.00
C185   C     0.24803   0.73345   0.15148   0.00000  Uiso   1.00
C186   C     0.08818   0.81235   0.11287   0.00000  Uiso   1.00
C187   C     0.38395   0.83396   0.16603   0.00000  Uiso   1.00
C188   C     0.11605   0.83271   0.16730   0.00000  Uiso   1.00
C189   C     0.40225   0.81357   0.11155   0.00000  Uiso   1.00
C190   C     0.09775   0.85310   0.22179   0.00000  Uiso   1.00
C191   C     0.44864   0.81270   0.11097   0.00000  Uiso   1.00
C192   C     0.05136   0.85396   0.22236   0.00000  Uiso   1.00
C193   C     0.47668   0.83346   0.16628   0.00000  Uiso   1.00
C194   C     0.02332   0.83320   0.16705   0.00000  Uiso   1.00
C195   C     0.45807   0.85442   0.22094   0.00000  Uiso   1.00
C196   C     0.25197   0.93322   0.18185   0.00000  Uiso   1.00
C197   C     0.04193   0.81225   0.11239   0.00000  Uiso   1.00
C198   C     0.46776   0.79146   0.05681   0.00000  Uiso   1.00
C199   C     0.03224   0.87521   0.27652   0.00000  Uiso   1.00
C200   C     0.01416   0.79152   0.05793   0.00000  Uiso   1.00
C201   C     0.48584   0.87515   0.27541   0.00000  Uiso   1.00
C202   C     0.24098   0.67797   0.14473   0.00000  Uiso   1.00
C203   C     0.25902   0.98869   0.18860   0.00000  Uiso   1.00
C204   C     0.16443   0.83302   0.16692   0.00000  Uiso   1.00
C205   C     0.33557   0.83364   0.16641   0.00000  Uiso   1.00
C206   C     0.41182   0.85432   0.22046   0.00000  Uiso   1.00
Cl207  Cl    0.43509   0.76371   0.31992   0.00000  Uiso   1.00
Cl208  Cl    0.06491   0.90295   0.01342   0.00000  Uiso   1.00
Cl209  Cl    0.20189   0.97820   0.08187   0.00000  Uiso   1.00
Cl210  Cl    0.29811   0.68847   0.25147   0.00000  Uiso   1.00
Cl211  Cl    0.19717   0.77254   0.30227   0.00000  Uiso   1.00
Cl212  Cl    0.30283   0.89413   0.03106   0.00000  Uiso   1.00
Cu213  Cu    0.25500   0.83913   0.22813   0.00000  Uiso   1.00
Cu214  Cu    0.24499   0.82754   0.10521   0.00000  Uiso   1.00
H215   H     0.38002   0.79783   0.07005   0.00000  Uiso   1.00
H216   H     0.11997   0.86884   0.26329   0.00000  Uiso   1.00
H217   H     0.02857   0.77533   0.01601   0.00000  Uiso   1.00
H218   H     0.47143   0.89133   0.31732   0.00000  Uiso   1.00
H219   H     0.39751   0.87040   0.26251   0.00000  Uiso   1.00
H220   H     0.10249   0.79626   0.07082   0.00000  Uiso   1.00
N221   N     0.23744   0.81881   0.01284   0.00000  Uiso   1.00
N222   N     0.26255   0.84786   0.32049   0.00000  Uiso   1.00
O223   O     0.25325   0.76204   0.20659   0.00000  Uiso   1.00
O224   O     0.24674   0.90462   0.12674   0.00000  Uiso   1.00
O225   O     0.24480   0.75226   0.10279   0.00000  Uiso   1.00
O226   O     0.25520   0.91441   0.23055   0.00000  Uiso   1.00
O227   O     0.18935   0.83821   0.21857   0.00000  Uiso   1.00
O228   O     0.31064   0.82845   0.11476   0.00000  Uiso   1.00
O229   O     0.18090   0.82843   0.11477   0.00000  Uiso   1.00
O230   O     0.31910   0.83824   0.21857   0.00000  Uiso   1.00
C231   C     0.74803   0.73345   0.15148   0.00000  Uiso   1.00
C232   C     0.58818   0.81235   0.11287   0.00000  Uiso   1.00
C233   C     0.88395   0.83396   0.16603   0.00000  Uiso   1.00
C234   C     0.61605   0.83271   0.16730   0.00000  Uiso   1.00
C235   C     0.90225   0.81357   0.11155   0.00000  Uiso   1.00
C236   C     0.59775   0.85310   0.22179   0.00000  Uiso   1.00
C237   C     0.94864   0.81270   0.11097   0.00000  Uiso   1.00
C238   C     0.55136   0.85396   0.22236   0.00000  Uiso   1.00
C239   C     0.97668   0.83346   0.16628   0.00000  Uiso   1.00
C240   C     0.52332   0.83320   0.16705   0.00000  Uiso   1.00
C241   C     0.95807   0.85442   0.22094   0.00000  Uiso   1.00
C242   C     0.75197   0.93322   0.18185   0.00000  Uiso   1.00
C243   C     0.54193   0.81225   0.11239   0.00000  Uiso   1.00
C244   C     0.96776   0.79146   0.05681   0.00000  Uiso   1.00
C245   C     0.53224   0.87521   0.27652   0.00000  Uiso   1.00
C246   C     0.51416   0.79152   0.05793   0.00000  Uiso   1.00
C247   C     0.98584   0.87515   0.27541   0.00000  Uiso   1.00
C248   C     0.74098   0.67797   0.14473   0.00000  Uiso   1.00
C249   C     0.75902   0.98869   0.18860   0.00000  Uiso   1.00
C250   C     0.66443   0.83302   0.16692   0.00000  Uiso   1.00
C251   C     0.83557   0.83364   0.16641   0.00000  Uiso   1.00
C252   C     0.91182   0.85432   0.22046   0.00000  Uiso   1.00
Cl253  Cl    0.93509   0.76371   0.31992   0.00000  Uiso   1.00
Cl254  Cl    0.56491   0.90295   0.01342   0.00000  Uiso   1.00
Cl255  Cl    0.70189   0.97820   0.08187   0.00000  Uiso   1.00
Cl256  Cl    0.79811   0.68847   0.25147   0.00000  Uiso   1.00
Cl257  Cl    0.69717   0.77254   0.30227   0.00000  Uiso   1.00
Cl258  Cl    0.80283   0.89413   0.03106   0.00000  Uiso   1.00
Cu259  Cu    0.75500   0.83913   0.22813   0.00000  Uiso   1.00
Cu260  Cu    0.74499   0.82754   0.10521   0.00000  Uiso   1.00
H261   H     0.88002   0.79783   0.07005   0.00000  Uiso   1.00
H262   H     0.61997   0.86884   0.26329   0.00000  Uiso   1.00
H263   H     0.52857   0.77533   0.01601   0.00000  Uiso   1.00
H264   H     0.97143   0.89133   0.31732   0.00000  Uiso   1.00
H265   H     0.89751   0.87040   0.26251   0.00000  Uiso   1.00
H266   H     0.60249   0.79626   0.07082   0.00000  Uiso   1.00
N267   N     0.73744   0.81881   0.01284   0.00000  Uiso   1.00
N268   N     0.76255   0.84786   0.32049   0.00000  Uiso   1.00
O269   O     0.75325   0.76204   0.20659   0.00000  Uiso   1.00
O270   O     0.74674   0.90462   0.12674   0.00000  Uiso   1.00
O271   O     0.74480   0.75226   0.10279   0.00000  Uiso   1.00
O272   O     0.75520   0.91441   0.23055   0.00000  Uiso   1.00
O273   O     0.68935   0.83821   0.21857   0.00000  Uiso   1.00
O274   O     0.81064   0.82845   0.11476   0.00000  Uiso   1.00
O275   O     0.68090   0.82843   0.11477   0.00000  Uiso   1.00
O276   O     0.81910   0.83824   0.21857   0.00000  Uiso   1.00
C277   C     0.24803   0.06678   0.48482   0.00000  Uiso   1.00
C278   C     0.08818   0.14568   0.44621   0.00000  Uiso   1.00
C279   C     0.38395   0.16729   0.49936   0.00000  Uiso   1.00
C280   C     0.11605   0.16604   0.50064   0.00000  Uiso   1.00
C281   C     0.40225   0.14690   0.44488   0.00000  Uiso   1.00
C282   C     0.09775   0.18643   0.55512   0.00000  Uiso   1.00
C283   C     0.44864   0.14604   0.44430   0.00000  Uiso   1.00
C284   C     0.05136   0.18730   0.55570   0.00000  Uiso   1.00
C285   C     0.47668   0.16680   0.49961   0.00000  Uiso   1.00
C286   C     0.02332   0.16654   0.50039   0.00000  Uiso   1.00
C287   C     0.45807   0.18775   0.55428   0.00000  Uiso   1.00
C288   C     0.25197   0.26655   0.51519   0.00000  Uiso   1.00
C289   C     0.04193   0.14558   0.44572   0.00000  Uiso   1.00
C290   C     0.46776   0.12479   0.39014   0.00000  Uiso   1.00
C291   C     0.03224   0.20854   0.60986   0.00000  Uiso   1.00
C292   C     0.01416   0.12485   0.39126   0.00000  Uiso   1.00
C293   C     0.48584   0.20848   0.60874   0.00000  Uiso   1.00
C294   C     0.24098   0.01131   0.47807   0.00000  Uiso   1.00
C295   C     0.25902   0.32203   0.52193   0.00000  Uiso   1.00
C296   C     0.16443   0.16636   0.50025   0.00000  Uiso   1.00
C297   C     0.33557   0.16698   0.49975   0.00000  Uiso   1.00
C298   C     0.41182   0.18765   0.55379   0.00000  Uiso   1.00
Cl299  Cl    0.43509   0.09705   0.65325   0.00000  Uiso   1.00
Cl300  Cl    0.06491   0.23629   0.34675   0.00000  Uiso   1.00
Cl301  Cl    0.20189   0.31153   0.41520   0.00000  Uiso   1.00
Cl302  Cl    0.29811   0.02180   0.58480   0.00000  Uiso   1.00
Cl303  Cl    0.19717   0.10587   0.63560   0.00000  Uiso   1.00
Cl304  Cl    0.30283   0.22746   0.36440   0.00000  Uiso   1.00
Cu305  Cu    0.25500   0.17246   0.56146   0.00000  Uiso   1.00
Cu306  Cu    0.24499   0.16087   0.43854   0.00000  Uiso   1.00
H307   H     0.38002   0.13116   0.40338   0.00000  Uiso   1.00
H308   H     0.11997   0.20217   0.59662   0.00000  Uiso   1.00
H309   H     0.02857   0.10867   0.34935   0.00000  Uiso   1.00
H310   H     0.47143   0.22467   0.65065   0.00000  Uiso   1.00
H311   H     0.39751   0.20374   0.59585   0.00000  Uiso   1.00
H312   H     0.10249   0.12960   0.40415   0.00000  Uiso   1.00
N313   N     0.23744   0.15214   0.34617   0.00000  Uiso   1.00
N314   N     0.26255   0.18119   0.65383   0.00000  Uiso   1.00
O315   O     0.25325   0.09538   0.53992   0.00000  Uiso   1.00
O316   O     0.24674   0.23796   0.46008   0.00000  Uiso   1.00
O317   O     0.24480   0.08559   0.43612   0.00000  Uiso   1.00
O318   O     0.25520   0.24774   0.56388   0.00000  Uiso   1.00
O319   O     0.18935   0.17155   0.55191   0.00000  Uiso   1.00
O320   O     0.31064   0.16179   0.44809   0.00000  Uiso   1.00
O321   O     0.18090   0.16176   0.44810   0.00000  Uiso   1.00
O322   O     0.31910   0.17157   0.55190   0.00000  Uiso   1.00
C323   C     0.74803   0.06678   0.48482   0.00000  Uiso   1.00
C324   C     0.58818   0.14568   0.44621   0.00000  Uiso   1.00
C325   C     0.88395   0.16729   0.49936   0.00000  Uiso   1.00
C326   C     0.61605   0.16604   0.50064   0.00000  Uiso   1.00
C327   C     0.90225   0.14690   0.44488   0.00000  Uiso   1.00
C328   C     0.59775   0.18643   0.55512   0.00000  Uiso   1.00
C329   C     0.94864   0.14604   0.44430   0.00000  Uiso   1.00
C330   C     0.55136   0.18730   0.55570   0.00000  Uiso   1.00
C331   C     0.97668   0.16680   0.49961   0.00000  Uiso   1.00
C332   C     0.52332   0.16654   0.50039   0.00000  Uiso   1.00
C333   C     0.95807   0.18775   0.55428   0.00000  Uiso   1.00
C334   C     0.75197   0.26655   0.51519   0.00000  Uiso   1.00
C335   C     0.54193   0.14558   0.44572   0.00000  Uiso   1.00
C336   C     0.96776   0.12479   0.39014   0.00000  Uiso   1.00
C337   C     0.53224   0.20854   0.60986   0.00000  Uiso   1.00
C338   C     0.51416   0.12485   0.39126   0.00000  Uiso   1.00
C339   C     0.98584   0.20848   0.60874   0.00000  Uiso   1.00
C340   C     0.74098   0.01131   0.47807   0.00000  Uiso   1.00
C341   C     0.75902   0.32203   0.52193   0.00000  Uiso   1.00
C342   C     0.66443   0.16636   0.50025   0.00000  Uiso   1.00
C343   C     0.83557   0.16698   0.49975   0.00000  Uiso   1.00
C344   C     0.91182   0.18765   0.55379   0.00000  Uiso   1.00
Cl345  Cl    0.93509   0.09705   0.65325   0.00000  Uiso   1.00
Cl346  Cl    0.56491   0.23629   0.34675   0.00000  Uiso   1.00
Cl347  Cl    0.70189   0.31153   0.41520   0.00000  Uiso   1.00
Cl348  Cl    0.79811   0.02180   0.58480   0.00000  Uiso   1.00
Cl349  Cl    0.69717   0.10587   0.63560   0.00000  Uiso   1.00
Cl350  Cl    0.80283   0.22746   0.36440   0.00000  Uiso   1.00
Cu351  Cu    0.75500   0.17246   0.56146   0.00000  Uiso   1.00
Cu352  Cu    0.74499   0.16087   0.43854   0.00000  Uiso   1.00
H353   H     0.88002   0.13116   0.40338   0.00000  Uiso   1.00
H354   H     0.61997   0.20217   0.59662   0.00000  Uiso   1.00
H355   H     0.52857   0.10867   0.34935   0.00000  Uiso   1.00
H356   H     0.97143   0.22467   0.65065   0.00000  Uiso   1.00
H357   H     0.89751   0.20374   0.59585   0.00000  Uiso   1.00
H358   H     0.60249   0.12960   0.40415   0.00000  Uiso   1.00
N359   N     0.73744   0.15214   0.34617   0.00000  Uiso   1.00
N360   N     0.76255   0.18119   0.65383   0.00000  Uiso   1.00
O361   O     0.75325   0.09538   0.53992   0.00000  Uiso   1.00
O362   O     0.74674   0.23796   0.46008   0.00000  Uiso   1.00
O363   O     0.74480   0.08559   0.43612   0.00000  Uiso   1.00
O364   O     0.75520   0.24774   0.56388   0.00000  Uiso   1.00
O365   O     0.68935   0.17155   0.55191   0.00000  Uiso   1.00
O366   O     0.81064   0.16179   0.44809   0.00000  Uiso   1.00
O367   O     0.68090   0.16176   0.44810   0.00000  Uiso   1.00
O368   O     0.81910   0.17157   0.55190   0.00000  Uiso   1.00
C369   C     0.24803   0.40012   0.48482   0.00000  Uiso   1.00
C370   C     0.08818   0.47902   0.44621   0.00000  Uiso   1.00
C371   C     0.38395   0.50063   0.49936   0.00000  Uiso   1.00
C372   C     0.11605   0.49937   0.50064   0.00000  Uiso   1.00
C373   C     0.40225   0.48023   0.44488   0.00000  Uiso   1.00
C374   C     0.09775   0.51977   0.55512   0.00000  Uiso   1.00
C375   C     0.44864   0.47937   0.44430   0.00000  Uiso   1.00
C376   C     0.05136   0.52063   0.55570   0.00000  Uiso   1.00
C377   C     0.47668   0.50013   0.49961   0.00000  Uiso   1.00
C378   C     0.02332   0.49987   0.50039   0.00000  Uiso   1.00
C379   C     0.45807   0.52109   0.55428   0.00000  Uiso   1.00
C380   C     0.25197   0.59988   0.51519   0.00000  Uiso   1.00
C381   C     0.04193   0.47891   0.44572   0.00000  Uiso   1.00
C382   C     0.46776   0.45812   0.39014   0.00000  Uiso   1.00
C383   C     0.03224   0.54188   0.60986   0.00000  Uiso   1.00
C384   C     0.01416   0.45818   0.39126   0.00000  Uiso   1.00
C385   C     0.48584   0.54182   0.60874   0.00000  Uiso   1.00
C386   C     0.24098   0.34464   0.47807   0.00000  Uiso   1.00
C387   C     0.25902   0.65536   0.52193   0.00000  Uiso   1.00
C388   C     0.16443   0.49969   0.50025   0.00000  Uiso   1.00
C389   C     0.33557   0.50031   0.49975   0.00000  Uiso   1.00
C390   C     0.41182   0.52098   0.55379   0.00000  Uiso   1.00
Cl391  Cl    0.43509   0.43038   0.65325   0.00000  Uiso   1.00
Cl392  Cl    0.06491   0.56962   0.34675   0.00000  Uiso   1.00
Cl393  Cl    0.20189   0.64487   0.41520   0.00000  Uiso   1.00
Cl394  Cl    0.29811   0.35513   0.58480   0.00000  Uiso   1.00
Cl395  Cl    0.19717   0.43921   0.63560   0.00000  Uiso   1.00
Cl396  Cl    0.30283   0.56079   0.36440   0.00000  Uiso   1.00
Cu397  Cu    0.25500   0.50579   0.56146   0.00000  Uiso   1.00
Cu398  Cu    0.24499   0.49421   0.43854   0.00000  Uiso   1.00
H399   H     0.38002   0.46449   0.40338   0.00000  Uiso   1.00
H400   H     0.11997   0.53551   0.59662   0.00000  Uiso   1.00
H401   H     0.02857   0.44200   0.34935   0.00000  Uiso   1.00
H402   H     0.47143   0.55800   0.65065   0.00000  Uiso   1.00
H403   H     0.39751   0.53707   0.59585   0.00000  Uiso   1.00
H404   H     0.10249   0.46293   0.40415   0.00000  Uiso   1.00
N405   N     0.23744   0.48547   0.34617   0.00000  Uiso   1.00
N406   N     0.26255   0.51453   0.65383   0.00000  Uiso   1.00
O407   O     0.25325   0.42871   0.53992   0.00000  Uiso   1.00
O408   O     0.24674   0.57129   0.46008   0.00000  Uiso   1.00
O409   O     0.24480   0.41892   0.43612   0.00000  Uiso   1.00
O410   O     0.25520   0.58108   0.56388   0.00000  Uiso   1.00
O411   O     0.18935   0.50488   0.55191   0.00000  Uiso   1.00
O412   O     0.31064   0.49512   0.44809   0.00000  Uiso   1.00
O413   O     0.18090   0.49510   0.44810   0.00000  Uiso   1.00
O414   O     0.31910   0.50490   0.55190   0.00000  Uiso   1.00
C415   C     0.74803   0.40012   0.48482   0.00000  Uiso   1.00
C416   C     0.58818   0.47902   0.44621   0.00000  Uiso   1.00
C417   C     0.88395   0.50063   0.49936   0.00000  Uiso   1.00
C418   C     0.61605   0.49937   0.50064   0.00000  Uiso   1.00
C419   C     0.90225   0.48023   0.44488   0.00000  Uiso   1.00
C420   C     0.59775   0.51977   0.55512   0.00000  Uiso   1.00
C421   C     0.94864   0.47937   0.44430   0.00000  Uiso   1.00
C422   C     0.55136   0.52063   0.55570   0.00000  Uiso   1.00
C423   C     0.97668   0.50013   0.49961   0.00000  Uiso   1.00
C424   C     0.52332   0.49987   0.50039   0.00000  Uiso   1.00
C425   C     0.95807   0.52109   0.55428   0.00000  Uiso   1.00
C426   C     0.75197   0.59988   0.51519   0.00000  Uiso   1.00
C427   C     0.54193   0.47891   0.44572   0.00000  Uiso   1.00
C428   C     0.96776   0.45812   0.39014   0.00000  Uiso   1.00
C429   C     0.53224   0.54188   0.60986   0.00000  Uiso   1.00
C430   C     0.51416   0.45818   0.39126   0.00000  Uiso   1.00
C431   C     0.98584   0.54182   0.60874   0.00000  Uiso   1.00
C432   C     0.74098   0.34464   0.47807   0.00000  Uiso   1.00
C433   C     0.75902   0.65536   0.52193   0.00000  Uiso   1.00
C434   C     0.66443   0.49969   0.50025   0.00000  Uiso   1.00
C435   C     0.83557   0.50031   0.49975   0.00000  Uiso   1.00
C436   C     0.91182   0.52098   0.55379   0.00000  Uiso   1.00
Cl437  Cl    0.93509   0.43038   0.65325   0.00000  Uiso   1.00
Cl438  Cl    0.56491   0.56962   0.34675   0.00000  Uiso   1.00
Cl439  Cl    0.70189   0.64487   0.41520   0.00000  Uiso   1.00
Cl440  Cl    0.79811   0.35513   0.58480   0.00000  Uiso   1.00
Cl441  Cl    0.69717   0.43921   0.63560   0.00000  Uiso   1.00
Cl442  Cl    0.80283   0.56079   0.36440   0.00000  Uiso   1.00
Cu443  Cu    0.75500   0.50579   0.56146   0.00000  Uiso   1.00
Cu444  Cu    0.74499   0.49421   0.43854   0.00000  Uiso   1.00
H445   H     0.88002   0.46449   0.40338   0.00000  Uiso   1.00
H446   H     0.61997   0.53551   0.59662   0.00000  Uiso   1.00
H447   H     0.52857   0.44200   0.34935   0.00000  Uiso   1.00
H448   H     0.97143   0.55800   0.65065   0.00000  Uiso   1.00
H449   H     0.89751   0.53707   0.59585   0.00000  Uiso   1.00
H450   H     0.60249   0.46293   0.40415   0.00000  Uiso   1.00
N451   N     0.73744   0.48547   0.34617   0.00000  Uiso   1.00
N452   N     0.76255   0.51453   0.65383   0.00000  Uiso   1.00
O453   O     0.75325   0.42871   0.53992   0.00000  Uiso   1.00
O454   O     0.74674   0.57129   0.46008   0.00000  Uiso   1.00
O455   O     0.74480   0.41892   0.43612   0.00000  Uiso   1.00
O456   O     0.75520   0.58108   0.56388   0.00000  Uiso   1.00
O457   O     0.68935   0.50488   0.55191   0.00000  Uiso   1.00
O458   O     0.81064   0.49512   0.44809   0.00000  Uiso   1.00
O459   O     0.68090   0.49510   0.44810   0.00000  Uiso   1.00
O460   O     0.81910   0.50490   0.55190   0.00000  Uiso   1.00
C461   C     0.24803   0.73345   0.48482   0.00000  Uiso   1.00
C462   C     0.08818   0.81235   0.44621   0.00000  Uiso   1.00
C463   C     0.38395   0.83396   0.49936   0.00000  Uiso   1.00
C464   C     0.11605   0.83271   0.50064   0.00000  Uiso   1.00
C465   C     0.40225   0.81357   0.44488   0.00000  Uiso   1.00
C466   C     0.09775   0.85310   0.55512   0.00000  Uiso   1.00
C467   C     0.44864   0.81270   0.44430   0.00000  Uiso   1.00
C468   C     0.05136   0.85396   0.55570   0.00000  Uiso   1.00
C469   C     0.47668   0.83346   0.49961   0.00000  Uiso   1.00
C470   C     0.02332   0.83320   0.50039   0.00000  Uiso   1.00
C471   C     0.45807   0.85442   0.55428   0.00000  Uiso   1.00
C472   C     0.25197   0.93322   0.51519   0.00000  Uiso   1.00
C473   C     0.04193   0.81225   0.44572   0.00000  Uiso   1.00
C474   C     0.46776   0.79146   0.39014   0.00000  Uiso   1.00
C475   C     0.03224   0.87521   0.60986   0.00000  Uiso   1.00
C476   C     0.01416   0.79152   0.39126   0.00000  Uiso   1.00
C477   C     0.48584   0.87515   0.60874   0.00000  Uiso   1.00
C478   C     0.24098   0.67797   0.47807   0.00000  Uiso   1.00
C479   C     0.25902   0.98869   0.52193   0.00000  Uiso   1.00
C480   C     0.16443   0.83302   0.50025   0.00000  Uiso   1.00
C481   C     0.33557   0.83364   0.49975   0.00000  Uiso   1.00
C482   C     0.41182   0.85432   0.55379   0.00000  Uiso   1.00
Cl483  Cl    0.43509   0.76371   0.65325   0.00000  Uiso   1.00
Cl484  Cl    0.06491   0.90295   0.34675   0.00000  Uiso   1.00
Cl485  Cl    0.20189   0.97820   0.41520   0.00000  Uiso   1.00
Cl486  Cl    0.29811   0.68847   0.58480   0.00000  Uiso   1.00
Cl487  Cl    0.19717   0.77254   0.63560   0.00000  Uiso   1.00
Cl488  Cl    0.30283   0.89413   0.36440   0.00000  Uiso   1.00
Cu489  Cu    0.25500   0.83913   0.56146   0.00000  Uiso   1.00
Cu490  Cu    0.24499   0.82754   0.43854   0.00000  Uiso   1.00
H491   H     0.38002   0.79783   0.40338   0.00000  Uiso   1.00
H492   H     0.11997   0.86884   0.59662   0.00000  Uiso   1.00
H493   H     0.02857   0.77533   0.34935   0.00000  Uiso   1.00
H494   H     0.47143   0.89133   0.65065   0.00000  Uiso   1.00
H495   H     0.39751   0.87040   0.59585   0.00000  Uiso   1.00
H496   H     0.10249   0.79626   0.40415   0.00000  Uiso   1.00
N497   N     0.23744   0.81881   0.34617   0.00000  Uiso   1.00
N498   N     0.26255   0.84786   0.65383   0.00000  Uiso   1.00
O499   O     0.25325   0.76204   0.53992   0.00000  Uiso   1.00
O500   O     0.24674   0.90462   0.46008   0.00000  Uiso   1.00
O501   O     0.24480   0.75226   0.43612   0.00000  Uiso   1.00
O502   O     0.25520   0.91441   0.56388   0.00000  Uiso   1.00
O503   O     0.18935   0.83821   0.55191   0.00000  Uiso   1.00
O504   O     0.31064   0.82845   0.44809   0.00000  Uiso   1.00
O505   O     0.18090   0.82843   0.44810   0.00000  Uiso   1.00
O506   O     0.31910   0.83824   0.55190   0.00000  Uiso   1.00
C507   C     0.74803   0.73345   0.48482   0.00000  Uiso   1.00
C508   C     0.58818   0.81235   0.44621   0.00000  Uiso   1.00
C509   C     0.88395   0.83396   0.49936   0.00000  Uiso   1.00
C510   C     0.61605   0.83271   0.50064   0.00000  Uiso   1.00
C511   C     0.90225   0.81357   0.44488   0.00000  Uiso   1.00
C512   C     0.59775   0.85310   0.55512   0.00000  Uiso   1.00
C513   C     0.94864   0.81270   0.44430   0.00000  Uiso   1.00
C514   C     0.55136   0.85396   0.55570   0.00000  Uiso   1.00
C515   C     0.97668   0.83346   0.49961   0.00000  Uiso   1.00
C516   C     0.52332   0.83320   0.50039   0.00000  Uiso   1.00
C517   C     0.95807   0.85442   0.55428   0.00000  Uiso   1.00
C518   C     0.75197   0.93322   0.51519   0.00000  Uiso   1.00
C519   C     0.54193   0.81225   0.44572   0.00000  Uiso   1.00
C520   C     0.96776   0.79146   0.39014   0.00000  Uiso   1.00
C521   C     0.53224   0.87521   0.60986   0.00000  Uiso   1.00
C522   C     0.51416   0.79152   0.39126   0.00000  Uiso   1.00
C523   C     0.98584   0.87515   0.60874   0.00000  Uiso   1.00
C524   C     0.74098   0.67797   0.47807   0.00000  Uiso   1.00
C525   C     0.75902   0.98869   0.52193   0.00000  Uiso   1.00
C526   C     0.66443   0.83302   0.50025   0.00000  Uiso   1.00
C527   C     0.83557   0.83364   0.49975   0.00000  Uiso   1.00
C528   C     0.91182   0.85432   0.55379   0.00000  Uiso   1.00
Cl529  Cl    0.93509   0.76371   0.65325   0.00000  Uiso   1.00
Cl530  Cl    0.56491   0.90295   0.34675   0.00000  Uiso   1.00
Cl531  Cl    0.70189   0.97820   0.41520   0.00000  Uiso   1.00
Cl532  Cl    0.79811   0.68847   0.58480   0.00000  Uiso   1.00
Cl533  Cl    0.69717   0.77254   0.63560   0.00000  Uiso   1.00
Cl534  Cl    0.80283   0.89413   0.36440   0.00000  Uiso   1.00
Cu535  Cu    0.75500   0.83913   0.56146   0.00000  Uiso   1.00
Cu536  Cu    0.74499   0.82754   0.43854   0.00000  Uiso   1.00
H537   H     0.88002   0.79783   0.40338   0.00000  Uiso   1.00
H538   H     0.61997   0.86884   0.59662   0.00000  Uiso   1.00
H539   H     0.52857   0.77533   0.34935   0.00000  Uiso   1.00
H540   H     0.97143   0.89133   0.65065   0.00000  Uiso   1.00
H541   H     0.89751   0.87040   0.59585   0.00000  Uiso   1.00
H542   H     0.60249   0.79626   0.40415   0.00000  Uiso   1.00
N543   N     0.73744   0.81881   0.34617   0.00000  Uiso   1.00
N544   N     0.76255   0.84786   0.65383   0.00000  Uiso   1.00
O545   O     0.75325   0.76204   0.53992   0.00000  Uiso   1.00
O546   O     0.74674   0.90462   0.46008   0.00000  Uiso   1.00
O547   O     0.74480   0.75226   0.43612   0.00000  Uiso   1.00
O548   O     0.75520   0.91441   0.56388   0.00000  Uiso   1.00
O549   O     0.68935   0.83821   0.55191   0.00000  Uiso   1.00
O550   O     0.81064   0.82845   0.44809   0.00000  Uiso   1.00
O551   O     0.68090   0.82843   0.44810   0.00000  Uiso   1.00
O552   O     0.81910   0.83824   0.55190   0.00000  Uiso   1.00
C553   C     0.24803   0.06678   0.81815   0.00000  Uiso   1.00
C554   C     0.08818   0.14568   0.77954   0.00000  Uiso   1.00
C555   C     0.38395   0.16729   0.83270   0.00000  Uiso   1.00
C556   C     0.11605   0.16604   0.83397   0.00000  Uiso   1.00
C557   C     0.40225   0.14690   0.77821   0.00000  Uiso   1.00
C558   C     0.09775   0.18643   0.88845   0.00000  Uiso   1.00
C559   C     0.44864   0.14604   0.77764   0.00000  Uiso   1.00
C560   C     0.05136   0.18730   0.88903   0.00000  Uiso   1.00
C561   C     0.47668   0.16680   0.83295   0.00000  Uiso   1.00
C562   C     0.02332   0.16654   0.83372   0.00000  Uiso   1.00
C563   C     0.45807   0.18775   0.88761   0.00000  Uiso   1.00
C564   C     0.25197   0.26655   0.84852   0.00000  Uiso   1.00
C565   C     0.04193   0.14558   0.77906   0.00000  Uiso   1.00
C566   C     0.46776   0.12479   0.72348   0.00000  Uiso   1.00
C567   C     0.03224   0.20854   0.94319   0.00000  Uiso   1.00
C568   C     0.01416   0.12485   0.72459   0.00000  Uiso   1.00
C569   C     0.48584   0.20848   0.94207   0.00000  Uiso   1.00
C570   C     0.24098   0.01131   0.81140   0.00000  Uiso   1.00
C571   C     0.25902   0.32203   0.85527   0.00000  Uiso   1.00
C572   C     0.16443   0.16636   0.83359   0.00000  Uiso   1.00
C573   C     0.33557   0.16698   0.83308   0.00000  Uiso   1.00
C574   C     0.41182   0.18765   0.88713   0.00000  Uiso   1.00
Cl575  Cl    0.43509   0.09705   0.98658   0.00000  Uiso   1.00
Cl576  Cl    0.06491   0.23629   0.68009   0.00000  Uiso   1.00
Cl577  Cl    0.20189   0.31153   0.74853   0.00000  Uiso   1.00
Cl578  Cl    0.29811   0.02180   0.91813   0.00000  Uiso   1.00
Cl579  Cl    0.19717   0.10587   0.96894   0.00000  Uiso   1.00
Cl580  Cl    0.30283   0.22746   0.69773   0.00000  Uiso   1.00
Cu581  Cu    0.25500   0.17246   0.89479   0.00000  Uiso   1.00
Cu582  Cu    0.24499   0.16087   0.77187   0.00000  Uiso   1.00
H583   H     0.38002   0.13116   0.73671   0.00000  Uiso   1.00
H584   H     0.11997   0.20217   0.92995   0.00000  Uiso   1.00
H585   H     0.02857   0.10867   0.68268   0.00000  Uiso   1.00
H586   H     0.47143   0.22467   0.98399   0.00000  Uiso   1.00
H587   H     0.39751   0.20374   0.92918   0.00000  Uiso   1.00
H588   H     0.10249   0.12960   0.73749   0.00000  Uiso   1.00
N589   N     0.23744   0.15214   0.67951   0.00000  Uiso   1.00
N590   N     0.26255   0.18119   0.98716   0.00000  Uiso   1.00
O591   O     0.25325   0.09538   0.87326   0.00000  Uiso   1.00
O592   O     0.24674   0.23796   0.79341   0.00000  Uiso   1.00
O593   O     0.24480   0.08559   0.76945   0.00000  Uiso   1.00
O594   O     0.25520   0.24774   0.89721   0.00000  Uiso   1.00
O595   O     0.18935   0.17155   0.88524   0.00000  Uiso   1.00
O596   O     0.31064   0.16179   0.78143   0.00000  Uiso   1.00
O597   O     0.18090   0.16176   0.78143   0.00000  Uiso   1.00
O598   O     0.31910   0.17157   0.88523   0.00000  Uiso   1.00
C599   C     0.74803   0.06678   0.81815   0.00000  Uiso   1.00
C600   C     0.58818   0.14568   0.77954   0.00000  Uiso   1.00
C601   C     0.88395   0.16729   0.83270   0.00000  Uiso   1.00
C602   C     0.61605   0.16604   0.83397   0.00000  Uiso   1.00
C603   C     0.90225   0.14690   0.77821   0.00000  Uiso   1.00
C604   C     0.59775   0.18643   0.88845   0.00000  Uiso   1.00
C605   C     0.94864   0.14604   0.77764   0.00000  Uiso   1.00
C606   C     0.55136   0.18730   0.88903   0.00000  Uiso   1.00
C607   C     0.97668   0.16680   0.83295   0.00000  Uiso   1.00
C608   C     0.52332   0.16654   0.83372   0.00000  Uiso   1.00
C609   C     0.95807   0.18775   0.88761   0.00000  Uiso   1.00
C610   C     0.75197   0.26655   0.84852   0.00000  Uiso   1.00
C611   C     0.54193   0.14558   0.77906   0.00000  Uiso   1.00
C612   C     0.96776   0.12479   0.72348   0.00000  Uiso   1.00
C613   C     0.53224   0.20854   0.94319   0.00000  Uiso   1.00
C614   C     0.51416   0.12485   0.72459   0.00000  Uiso   1.00
C615   C     0.98584   0.20848   0.94207   0.00000  Uiso   1.00
C616   C     0.74098   0.01131   0.81140   0.00000  Uiso   1.00
C617   C     0.75902   0.32203   0.85527   0.00000  Uiso   1.00
C618   C     0.66443   0.16636   0.83359   0.00000  Uiso   1.00
C619   C     0.83557   0.16698   0.83308   0.00000  Uiso   1.00
C620   C     0.91182   0.18765   0.88713   0.00000  Uiso   1.00
Cl621  Cl    0.93509   0.09705   0.98658   0.00000  Uiso   1.00
Cl622  Cl    0.56491   0.23629   0.68009   0.00000  Uiso   1.00
Cl623  Cl    0.70189   0.31153   0.74853   0.00000  Uiso   1.00
Cl624  Cl    0.79811   0.02180   0.91813   0.00000  Uiso   1.00
Cl625  Cl    0.69717   0.10587   0.96894   0.00000  Uiso   1.00
Cl626  Cl    0.80283   0.22746   0.69773   0.00000  Uiso   1.00
Cu627  Cu    0.75500   0.17246   0.89479   0.00000  Uiso   1.00
Cu628  Cu    0.74499   0.16087   0.77187   0.00000  Uiso   1.00
H629   H     0.88002   0.13116   0.73671   0.00000  Uiso   1.00
H630   H     0.61997   0.20217   0.92995   0.00000  Uiso   1.00
H631   H     0.52857   0.10867   0.68268   0.00000  Uiso   1.00
H632   H     0.97143   0.22467   0.98399   0.00000  Uiso   1.00
H633   H     0.89751   0.20374   0.92918   0.00000  Uiso   1.00
H634   H     0.60249   0.12960   0.73749   0.00000  Uiso   1.00
N635   N     0.73744   0.15214   0.67951   0.00000  Uiso   1.00
N636   N     0.76255   0.18119   0.98716   0.00000  Uiso   1.00
O637   O     0.75325   0.09538   0.87326   0.00000  Uiso   1.00
O638   O     0.74674   0.23796   0.79341   0.00000  Uiso   1.00
O639   O     0.74480   0.08559   0.76945   0.00000  Uiso   1.00
O640   O     0.75520   0.24774   0.89721   0.00000  Uiso   1.00
O641   O     0.68935   0.17155   0.88524   0.00000  Uiso   1.00
O642   O     0.81064   0.16179   0.78143   0.00000  Uiso   1.00
O643   O     0.68090   0.16176   0.78143   0.00000  Uiso   1.00
O644   O     0.81910   0.17157   0.88523   0.00000  Uiso   1.00
C645   C     0.24803   0.40012   0.81815   0.00000  Uiso   1.00
C646   C     0.08818   0.47902   0.77954   0.00000  Uiso   1.00
C647   C     0.38395   0.50063   0.83270   0.00000  Uiso   1.00
C648   C     0.11605   0.49937   0.83397   0.00000  Uiso   1.00
C649   C     0.40225   0.48023   0.77821   0.00000  Uiso   1.00
C650   C     0.09775   0.51977   0.88845   0.00000  Uiso   1.00
C651   C     0.44864   0.47937   0.77764   0.00000  Uiso   1.00
C652   C     0.05136   0.52063   0.88903   0.00000  Uiso   1.00
C653   C     0.47668   0.50013   0.83295   0.00000  Uiso   1.00
C654   C     0.02332   0.49987   0.83372   0.00000  Uiso   1.00
C655   C     0.45807   0.52109   0.88761   0.00000  Uiso   1.00
C656   C     0.25197   0.59988   0.84852   0.00000  Uiso   1.00
C657   C     0.04193   0.47891   0.77906   0.00000  Uiso   1.00
C658   C     0.46776   0.45812   0.72348   0.00000  Uiso   1.00
C659   C     0.03224   0.54188   0.94319   0.00000  Uiso   1.00
C660   C     0.01416   0.45818   0.72459   0.00000  Uiso   1.00
C661   C     0.48584   0.54182   0.94207   0.00000  Uiso   1.00
C662   C     0.24098   0.34464   0.81140   0.00000  Uiso   1.00
C663   C     0.25902   0.65536   0.85527   0.00000  Uiso   1.00
C664   C     0.16443   0.49969   0.83359   0.00000  Uiso   1.00
C665   C     0.33557   0.50031   0.83308   0.00000  Uiso   1.00
C666   C     0.41182   0.52098   0.88713   0.00000  Uiso   1.00
Cl667  Cl    0.43509   0.43038   0.98658   0.00000  Uiso   1.00
Cl668  Cl    0.06491   0.56962   0.68009   0.00000  Uiso   1.00
Cl669  Cl    0.20189   0.64487   0.74853   0.00000  Uiso   1.00
Cl670  Cl    0.29811   0.35513   0.91813   0.00000  Uiso   1.00
Cl671  Cl    0.19717   0.43921   0.96894   0.00000  Uiso   1.00
Cl672  Cl    0.30283   0.56079   0.69773   0.00000  Uiso   1.00
Cu673  Cu    0.25500   0.50579   0.89479   0.00000  Uiso   1.00
Cu674  Cu    0.24499   0.49421   0.77187   0.00000  Uiso   1.00
H675   H     0.38002   0.46449   0.73671   0.00000  Uiso   1.00
H676   H     0.11997   0.53551   0.92995   0.00000  Uiso   1.00
H677   H     0.02857   0.44200   0.68268   0.00000  Uiso   1.00
H678   H     0.47143   0.55800   0.98399   0.00000  Uiso   1.00
H679   H     0.39751   0.53707   0.92918   0.00000  Uiso   1.00
H680   H     0.10249   0.46293   0.73749   0.00000  Uiso   1.00
N681   N     0.23744   0.48547   0.67951   0.00000  Uiso   1.00
N682   N     0.26255   0.51453   0.98716   0.00000  Uiso   1.00
O683   O     0.25325   0.42871   0.87326   0.00000  Uiso   1.00
O684   O     0.24674   0.57129   0.79341   0.00000  Uiso   1.00
O685   O     0.24480   0.41892   0.76945   0.00000  Uiso   1.00
O686   O     0.25520   0.58108   0.89721   0.00000  Uiso   1.00
O687   O     0.18935   0.50488   0.88524   0.00000  Uiso   1.00
O688   O     0.31064   0.49512   0.78143   0.00000  Uiso   1.00
O689   O     0.18090   0.49510   0.78143   0.00000  Uiso   1.00
O690   O     0.31910   0.50490   0.88523   0.00000  Uiso   1.00
C691   C     0.74803   0.40012   0.81815   0.00000  Uiso   1.00
C692   C     0.58818   0.47902   0.77954   0.00000  Uiso   1.00
C693   C     0.88395   0.50063   0.83270   0.00000  Uiso   1.00
C694   C     0.61605   0.49937   0.83397   0.00000  Uiso   1.00
C695   C     0.90225   0.48023   0.77821   0.00000  Uiso   1.00
C696   C     0.59775   0.51977   0.88845   0.00000  Uiso   1.00
C697   C     0.94864   0.47937   0.77764   0.00000  Uiso   1.00
C698   C     0.55136   0.52063   0.88903   0.00000  Uiso   1.00
C699   C     0.97668   0.50013   0.83295   0.00000  Uiso   1.00
C700   C     0.52332   0.49987   0.83372   0.00000  Uiso   1.00
C701   C     0.95807   0.52109   0.88761   0.00000  Uiso   1.00
C702   C     0.75197   0.59988   0.84852   0.00000  Uiso   1.00
C703   C     0.54193   0.47891   0.77906   0.00000  Uiso   1.00
C704   C     0.96776   0.45812   0.72348   0.00000  Uiso   1.00
C705   C     0.53224   0.54188   0.94319   0.00000  Uiso   1.00
C706   C     0.51416   0.45818   0.72459   0.00000  Uiso   1.00
C707   C     0.98584   0.54182   0.94207   0.00000  Uiso   1.00
C708   C     0.74098   0.34464   0.81140   0.00000  Uiso   1.00
C709   C     0.75902   0.65536   0.85527   0.00000  Uiso   1.00
C710   C     0.66443   0.49969   0.83359   0.00000  Uiso   1.00
C711   C     0.83557   0.50031   0.83308   0.00000  Uiso   1.00
C712   C     0.91182   0.52098   0.88713   0.00000  Uiso   1.00
Cl713  Cl    0.93509   0.43038   0.98658   0.00000  Uiso   1.00
Cl714  Cl    0.56491   0.56962   0.68009   0.00000  Uiso   1.00
Cl715  Cl    0.70189   0.64487   0.74853   0.00000  Uiso   1.00
Cl716  Cl    0.79811   0.35513   0.91813   0.00000  Uiso   1.00
Cl717  Cl    0.69717   0.43921   0.96894   0.00000  Uiso   1.00
Cl718  Cl    0.80283   0.56079   0.69773   0.00000  Uiso   1.00
Cu719  Cu    0.75500   0.50579   0.89479   0.00000  Uiso   1.00
Cu720  Cu    0.74499   0.49421   0.77187   0.00000  Uiso   1.00
H721   H     0.88002   0.46449   0.73671   0.00000  Uiso   1.00
H722   H     0.61997   0.53551   0.92995   0.00000  Uiso   1.00
H723   H     0.52857   0.44200   0.68268   0.00000  Uiso   1.00
H724   H     0.97143   0.55800   0.98399   0.00000  Uiso   1.00
H725   H     0.89751   0.53707   0.92918   0.00000  Uiso   1.00
H726   H     0.60249   0.46293   0.73749   0.00000  Uiso   1.00
N727   N     0.73744   0.48547   0.67951   0.00000  Uiso   1.00
N728   N     0.76255   0.51453   0.98716   0.00000  Uiso   1.00
O729   O     0.75325   0.42871   0.87326   0.00000  Uiso   1.00
O730   O     0.74674   0.57129   0.79341   0.00000  Uiso   1.00
O731   O     0.74480   0.41892   0.76945   0.00000  Uiso   1.00
O732   O     0.75520   0.58108   0.89721   0.00000  Uiso   1.00
O733   O     0.68935   0.50488   0.88524   0.00000  Uiso   1.00
O734   O     0.81064   0.49512   0.78143   0.00000  Uiso   1.00
O735   O     0.68090   0.49510   0.78143   0.00000  Uiso   1.00
O736   O     0.81910   0.50490   0.88523   0.00000  Uiso   1.00
C737   C     0.24803   0.73345   0.81815   0.00000  Uiso   1.00
C738   C     0.08818   0.81235   0.77954   0.00000  Uiso   1.00
C739   C     0.38395   0.83396   0.83270   0.00000  Uiso   1.00
C740   C     0.11605   0.83271   0.83397   0.00000  Uiso   1.00
C741   C     0.40225   0.81357   0.77821   0.00000  Uiso   1.00
C742   C     0.09775   0.85310   0.88845   0.00000  Uiso   1.00
C743   C     0.44864   0.81270   0.77764   0.00000  Uiso   1.00
C744   C     0.05136   0.85396   0.88903   0.00000  Uiso   1.00
C745   C     0.47668   0.83346   0.83295   0.00000  Uiso   1.00
C746   C     0.02332   0.83320   0.83372   0.00000  Uiso   1.00
C747   C     0.45807   0.85442   0.88761   0.00000  Uiso   1.00
C748   C     0.25197   0.93322   0.84852   0.00000  Uiso   1.00
C749   C     0.04193   0.81225   0.77906   0.00000  Uiso   1.00
C750   C     0.46776   0.79146   0.72348   0.00000  Uiso   1.00
C751   C     0.03224   0.87521   0.94319   0.00000  Uiso   1.00
C752   C     0.01416   0.79152   0.72459   0.00000  Uiso   1.00
C753   C     0.48584   0.87515   0.94207   0.00000  Uiso   1.00
C754   C     0.24098   0.67797   0.81140   0.00000  Uiso   1.00
C755   C     0.25902   0.98869   0.85527   0.00000  Uiso   1.00
C756   C     0.16443   0.83302   0.83359   0.00000  Uiso   1.00
C757   C     0.33557   0.83364   0.83308   0.00000  Uiso   1.00
C758   C     0.41182   0.85432   0.88713   0.00000  Uiso   1.00
Cl759  Cl    0.43509   0.76371   0.98658   0.00000  Uiso   1.00
Cl760  Cl    0.06491   0.90295   0.68009   0.00000  Uiso   1.00
Cl761  Cl    0.20189   0.97820   0.74853   0.00000  Uiso   1.00
Cl762  Cl    0.29811   0.68847   0.91813   0.00000  Uiso   1.00
Cl763  Cl    0.19717   0.77254   0.96894   0.00000  Uiso   1.00
Cl764  Cl    0.30283   0.89413   0.69773   0.00000  Uiso   1.00
Cu765  Cu    0.25500   0.83913   0.89479   0.00000  Uiso   1.00
Cu766  Cu    0.24499   0.82754   0.77187   0.00000  Uiso   1.00
H767   H     0.38002   0.79783   0.73671   0.00000  Uiso   1.00
H768   H     0.11997   0.86884   0.92995   0.00000  Uiso   1.00
H769   H     0.02857   0.77533   0.68268   0.00000  Uiso   1.00
H770   H     0.47143   0.89133   0.98399   0.00000  Uiso   1.00
H771   H     0.39751   0.87040   0.92918   0.00000  Uiso   1.00
H772   H     0.10249   0.79626   0.73749   0.00000  Uiso   1.00
N773   N     0.23744   0.81881   0.67951   0.00000  Uiso   1.00
N774   N     0.26255   0.84786   0.98716   0.00000  Uiso   1.00
O775   O     0.25325   0.76204   0.87326   0.00000  Uiso   1.00
O776   O     0.24674   0.90462   0.79341   0.00000  Uiso   1.00
O777   O     0.24480   0.75226   0.76945   0.00000  Uiso   1.00
O778   O     0.25520   0.91441   0.89721   0.00000  Uiso   1.00
O779   O     0.18935   0.83821   0.88524   0.00000  Uiso   1.00
O780   O     0.31064   0.82845   0.78143   0.00000  Uiso   1.00
O781   O     0.18090   0.82843   0.78143   0.00000  Uiso   1.00
O782   O     0.31910   0.83824   0.88523   0.00000  Uiso   1.00
C783   C     0.74803   0.73345   0.81815   0.00000  Uiso   1.00
C784   C     0.58818   0.81235   0.77954   0.00000  Uiso   1.00
C785   C     0.88395   0.83396   0.83270   0.00000  Uiso   1.00
C786   C     0.61605   0.83271   0.83397   0.00000  Uiso   1.00
C787   C     0.90225   0.81357   0.77821   0.00000  Uiso   1.00
C788   C     0.59775   0.85310   0.88845   0.00000  Uiso   1.00
C789   C     0.94864   0.81270   0.77764   0.00000  Uiso   1.00
C790   C     0.55136   0.85396   0.88903   0.00000  Uiso   1.00
C791   C     0.97668   0.83346   0.83295   0.00000  Uiso   1.00
C792   C     0.52332   0.83320   0.83372   0.00000  Uiso   1.00
C793   C     0.95807   0.85442   0.88761   0.00000  Uiso   1.00
C794   C     0.75197   0.93322   0.84852   0.00000  Uiso   1.00
C795   C     0.54193   0.81225   0.77906   0.00000  Uiso   1.00
C796   C     0.96776   0.79146   0.72348   0.00000  Uiso   1.00
C797   C     0.53224   0.87521   0.94319   0.00000  Uiso   1.00
C798   C     0.51416   0.79152   0.72459   0.00000  Uiso   1.00
C799   C     0.98584   0.87515   0.94207   0.00000  Uiso   1.00
C800   C     0.74098   0.67797   0.81140   0.00000  Uiso   1.00
C801   C     0.75902   0.98869   0.85527   0.00000  Uiso   1.00
C802   C     0.66443   0.83302   0.83359   0.00000  Uiso   1.00
C803   C     0.83557   0.83364   0.83308   0.00000  Uiso   1.00
C804   C     0.91182   0.85432   0.88713   0.00000  Uiso   1.00
Cl805  Cl    0.93509   0.76371   0.98658   0.00000  Uiso   1.00
Cl806  Cl    0.56491   0.90295   0.68009   0.00000  Uiso   1.00
Cl807  Cl    0.70189   0.97820   0.74853   0.00000  Uiso   1.00
Cl808  Cl    0.79811   0.68847   0.91813   0.00000  Uiso   1.00
Cl809  Cl    0.69717   0.77254   0.96894   0.00000  Uiso   1.00
Cl810  Cl    0.80283   0.89413   0.69773   0.00000  Uiso   1.00
Cu811  Cu    0.75500   0.83913   0.89479   0.00000  Uiso   1.00
Cu812  Cu    0.74499   0.82754   0.77187   0.00000  Uiso   1.00
H813   H     0.88002   0.79783   0.73671   0.00000  Uiso   1.00
H814   H     0.61997   0.86884   0.92995   0.00000  Uiso   1.00
H815   H     0.52857   0.77533   0.68268   0.00000  Uiso   1.00
H816   H     0.97143   0.89133   0.98399   0.00000  Uiso   1.00
H817   H     0.89751   0.87040   0.92918   0.00000  Uiso   1.00
H818   H     0.60249   0.79626   0.73749   0.00000  Uiso   1.00
N819   N     0.73744   0.81881   0.67951   0.00000  Uiso   1.00
N820   N     0.76255   0.84786   0.98716   0.00000  Uiso   1.00
O821   O     0.75325   0.76204   0.87326   0.00000  Uiso   1.00
O822   O     0.74674   0.90462   0.79341   0.00000  Uiso   1.00
O823   O     0.74480   0.75226   0.76945   0.00000  Uiso   1.00
O824   O     0.75520   0.91441   0.89721   0.00000  Uiso   1.00
O825   O     0.68935   0.83821   0.88524   0.00000  Uiso   1.00
O826   O     0.81064   0.82845   0.78143   0.00000  Uiso   1.00
O827   O     0.68090   0.82843   0.78143   0.00000  Uiso   1.00
O828   O     0.81910   0.83824   0.88523   0.00000  Uiso   1.00
loop_
_geom_bond_atom_site_label_1
_geom_bond_atom_site_label_2
_geom_bond_distance
_geom_bond_site_symmetry_2
_ccdc_geom_bond_type
C1     C18     1.426   .     S
C1     O41     1.295   .     A
C1     O39     1.289   .     A
C2     C4      1.399   .     A
C2     H36     1.085   .     S
C2     C13     1.390   .     A
C3     C21     1.455   .     S
C3     C22     1.399   .     A
C3     C5      1.399   .     A
C4     C20     1.455   .     S
C4     C6      1.399   .     A
C5     C7      1.398   .     A
C5     H31     1.082   .     S
C6     H32     1.082   .     S
C6     C8      1.398   .     A
C7     C9      1.418   .     A
C7     C14     1.411   .     A
C8     C10     1.418   .     A
C8     C15     1.411   .     A
C9     C11     1.411   .     A
C9     C56     1.402   .     S
C10    C13     1.411   .     A
C10    C55     1.402   1_455 S
C11    C17     1.399   .     A
C11    C22     1.390   .     A
C12    O40     1.289   .     A
C12    C19     1.426   .     S
C12    O42     1.295   .     A
C13    C16     1.399   .     A
C14    C62     1.393   .     S
C14    Cl575   1.764   1_554 S
C15    C63     1.393   1_455 S
C15    Cl300   1.764   .     S
C16    H33     1.084   .     S
C16    C60     1.393   1_455 S
C17    H34     1.084   .     S
C17    C61     1.393   .     S
C18    C203    1.350   1_545 S
C18    Cl209   1.779   1_545 S
C19    C110    1.350   .     S
C19    Cl118   1.779   .     S
C20    O45     1.298   .     A
C20    O43     1.301   .     A
C21    O44     1.301   .     A
C21    O46     1.298   .     A
C22    H35     1.085   .     S
Cl23   C290    1.764   .     S
Cl24   C567    1.764   1_554 S
Cl25   C110    1.779   .     S
Cl26   C203    1.779   1_545 S
Cl27   N313    1.726   .     S
Cl28   N590    1.726   1_554 S
Cu29   N38     2.030   .     S
Cu29   O46     1.959   .     S
Cu29   O39     1.964   .     S
Cu29   O43     1.965   .     S
Cu29   Cu30    2.701   .     S
Cu29   O42     1.959   .     S
Cu30   O41     1.959   .     S
Cu30   O45     1.959   .     S
Cu30   O40     1.964   .     S
Cu30   O44     1.965   .     S
Cu30   N37     2.030   .     S
N37    Cl579   1.726   1_554 S
N37    N590    1.296   1_554 S
N38    N313    1.296   .     S
N38    Cl304   1.726   .     S
C47    C64     1.426   .     S
C47    O87     1.295   .     A
C47    O85     1.289   .     A
C48    C50     1.399   .     A
C48    H82     1.085   .     S
C48    C59     1.390   .     A
C49    C67     1.455   .     S
C49    C68     1.399   .     A
C49    C51     1.399   .     A
C50    C66     1.455   .     S
C50    C52     1.399   .     A
C51    C53     1.398   .     A
C51    H77     1.082   .     S
C52    H78     1.082   .     S
C52    C54     1.398   .     A
C53    C55     1.418   .     A
C53    C60     1.411   .     A
C54    C56     1.418   .     A
C54    C61     1.411   .     A
C55    C57     1.411   .     A
C55    C10     1.402   1_655 S
C56    C59     1.411   .     A
C57    C63     1.399   .     A
C57    C68     1.390   .     A
C58    O86     1.289   .     A
C58    C65     1.426   .     S
C58    O88     1.295   .     A
C59    C62     1.399   .     A
C60    C16     1.393   1_655 S
C60    Cl621   1.764   1_554 S
C61    Cl346   1.764   .     S
C62    H79     1.084   .     S
C63    H80     1.084   .     S
C63    C15     1.393   1_655 S
C64    C249    1.350   1_545 S
C64    Cl255   1.779   1_545 S
C65    C156    1.350   .     S
C65    Cl164   1.779   .     S
C66    O91     1.298   .     A
C66    O89     1.301   .     A
C67    O90     1.301   .     A
C67    O92     1.298   .     A
C68    H81     1.085   .     S
Cl69   C336    1.764   .     S
Cl70   C613    1.764   1_554 S
Cl71   C156    1.779   .     S
Cl72   C249    1.779   1_545 S
Cl73   N359    1.726   .     S
Cl74   N636    1.726   1_554 S
Cu75   N84     2.030   .     S
Cu75   O92     1.959   .     S
Cu75   O85     1.964   .     S
Cu75   O89     1.965   .     S
Cu75   Cu76    2.701   .     S
Cu75   O88     1.959   .     S
Cu76   O87     1.959   .     S
Cu76   O91     1.959   .     S
Cu76   O86     1.964   .     S
Cu76   O90     1.965   .     S
Cu76   N83     2.030   .     S
N83    Cl625   1.726   1_554 S
N83    N636    1.296   1_554 S
N84    N359    1.296   .     S
N84    Cl350   1.726   .     S
C93    C110    1.426   .     S
C93    O133    1.295   .     A
C93    O131    1.289   .     A
C94    C96     1.399   .     A
C94    H128    1.085   .     S
C94    C105    1.390   .     A
C95    C113    1.455   .     S
C95    C114    1.399   .     A
C95    C97     1.399   .     A
C96    C112    1.455   .     S
C96    C98     1.399   .     A
C97    C99     1.398   .     A
C97    H123    1.082   .     S
C98    H124    1.082   .     S
C98    C100    1.398   .     A
C99    C101    1.418   .     A
C99    C106    1.411   .     A
C100   C102    1.418   .     A
C100   C107    1.411   .     A
C101   C103    1.411   .     A
C101   C148    1.402   .     S
C102   C105    1.411   .     A
C102   C147    1.402   1_455 S
C103   C109    1.399   .     A
C103   C114    1.390   .     A
C104   O132    1.289   .     A
C104   C111    1.426   .     S
C104   O134    1.295   .     A
C105   C108    1.399   .     A
C106   C154    1.393   .     S
C106   Cl667   1.764   1_554 S
C107   C155    1.393   1_455 S
C107   Cl392   1.764   .     S
C108   H125    1.084   .     S
C108   C152    1.393   1_455 S
C109   H126    1.084   .     S
C109   C153    1.393   .     S
C111   C202    1.350   .     S
C111   Cl210   1.779   .     S
C112   O137    1.298   .     A
C112   O135    1.301   .     A
C113   O136    1.301   .     A
C113   O138    1.298   .     A
C114   H127    1.085   .     S
Cl115  C382    1.764   .     S
Cl116  C659    1.764   1_554 S
Cl117  C202    1.779   .     S
Cl119  N405    1.726   .     S
Cl120  N682    1.726   1_554 S
Cu121  N130    2.030   .     S
Cu121  O138    1.959   .     S
Cu121  O131    1.964   .     S
Cu121  O135    1.965   .     S
Cu121  Cu122   2.701   .     S
Cu121  O134    1.959   .     S
Cu122  O133    1.959   .     S
Cu122  O137    1.959   .     S
Cu122  O132    1.964   .     S
Cu122  O136    1.965   .     S
Cu122  N129    2.030   .     S
N129   Cl671   1.726   1_554 S
N129   N682    1.296   1_554 S
N130   N405    1.296   .     S
N130   Cl396   1.726   .     S
C139   C156    1.426   .     S
C139   O179    1.295   .     A
C139   O177    1.289   .     A
C140   C142    1.399   .     A
C140   H174    1.085   .     S
C140   C151    1.390   .     A
C141   C159    1.455   .     S
C141   C160    1.399   .     A
C141   C143    1.399   .     A
C142   C158    1.455   .     S
C142   C144    1.399   .     A
C143   C145    1.398   .     A
C143   H169    1.082   .     S
C144   H170    1.082   .     S
C144   C146    1.398   .     A
C145   C147    1.418   .     A
C145   C152    1.411   .     A
C146   C148    1.418   .     A
C146   C153    1.411   .     A
C147   C149    1.411   .     A
C147   C102    1.402   1_655 S
C148   C151    1.411   .     A
C149   C155    1.399   .     A
C149   C160    1.390   .     A
C150   O178    1.289   .     A
C150   C157    1.426   .     S
C150   O180    1.295   .     A
C151   C154    1.399   .     A
C152   C108    1.393   1_655 S
C152   Cl713   1.764   1_554 S
C153   Cl438   1.764   .     S
C154   H171    1.084   .     S
C155   H172    1.084   .     S
C155   C107    1.393   1_655 S
C157   C248    1.350   .     S
C157   Cl256   1.779   .     S
C158   O183    1.298   .     A
C158   O181    1.301   .     A
C159   O182    1.301   .     A
C159   O184    1.298   .     A
C160   H173    1.085   .     S
Cl161  C428    1.764   .     S
Cl162  C705    1.764   1_554 S
Cl163  C248    1.779   .     S
Cl165  N451    1.726   .     S
Cl166  N728    1.726   1_554 S
Cu167  N176    2.030   .     S
Cu167  O184    1.959   .     S
Cu167  O177    1.964   .     S
Cu167  O181    1.965   .     S
Cu167  Cu168   2.701   .     S
Cu167  O180    1.959   .     S
Cu168  O179    1.959   .     S
Cu168  O183    1.959   .     S
Cu168  O178    1.964   .     S
Cu168  O182    1.965   .     S
Cu168  N175    2.030   .     S
N175   Cl717   1.726   1_554 S
N175   N728    1.296   1_554 S
N176   N451    1.296   .     S
N176   Cl442   1.726   .     S
C185   C202    1.426   .     S
C185   O225    1.295   .     A
C185   O223    1.289   .     A
C186   C188    1.399   .     A
C186   H220    1.085   .     S
C186   C197    1.390   .     A
C187   C205    1.455   .     S
C187   C206    1.399   .     A
C187   C189    1.399   .     A
C188   C204    1.455   .     S
C188   C190    1.399   .     A
C189   C191    1.398   .     A
C189   H215    1.082   .     S
C190   H216    1.082   .     S
C190   C192    1.398   .     A
C191   C193    1.418   .     A
C191   C198    1.411   .     A
C192   C194    1.418   .     A
C192   C199    1.411   .     A
C193   C195    1.411   .     A
C193   C240    1.402   .     S
C194   C197    1.411   .     A
C194   C239    1.402   1_455 S
C195   C201    1.399   .     A
C195   C206    1.390   .     A
C196   O224    1.289   .     A
C196   C203    1.426   .     S
C196   O226    1.295   .     A
C197   C200    1.399   .     A
C198   C246    1.393   .     S
C198   Cl759   1.764   1_554 S
C199   C247    1.393   1_455 S
C199   Cl484   1.764   .     S
C200   H217    1.084   .     S
C200   C244    1.393   1_455 S
C201   H218    1.084   .     S
C201   C245    1.393   .     S
C203   C18     1.350   1_565 S
C203   Cl26    1.779   1_565 S
C204   O229    1.298   .     A
C204   O227    1.301   .     A
C205   O228    1.301   .     A
C205   O230    1.298   .     A
C206   H219    1.085   .     S
Cl207  C474    1.764   .     S
Cl208  C751    1.764   1_554 S
Cl209  C18     1.779   1_565 S
Cl211  N497    1.726   .     S
Cl212  N774    1.726   1_554 S
Cu213  N222    2.030   .     S
Cu213  O230    1.959   .     S
Cu213  O223    1.964   .     S
Cu213  O227    1.965   .     S
Cu213  Cu214   2.701   .     S
Cu213  O226    1.959   .     S
Cu214  O225    1.959   .     S
Cu214  O229    1.959   .     S
Cu214  O224    1.964   .     S
Cu214  O228    1.965   .     S
Cu214  N221    2.030   .     S
N221   Cl763   1.726   1_554 S
N221   N774    1.296   1_554 S
N222   N497    1.296   .     S
N222   Cl488   1.726   .     S
C231   C248    1.426   .     S
C231   O271    1.295   .     A
C231   O269    1.289   .     A
C232   C234    1.399   .     A
C232   H266    1.085   .     S
C232   C243    1.390   .     A
C233   C251    1.455   .     S
C233   C252    1.399   .     A
C233   C235    1.399   .     A
C234   C250    1.455   .     S
C234   C236    1.399   .     A
C235   C237    1.398   .     A
C235   H261    1.082   .     S
C236   H262    1.082   .     S
C236   C238    1.398   .     A
C237   C239    1.418   .     A
C237   C244    1.411   .     A
C238   C240    1.418   .     A
C238   C245    1.411   .     A
C239   C241    1.411   .     A
C239   C194    1.402   1_655 S
C240   C243    1.411   .     A
C241   C247    1.399   .     A
C241   C252    1.390   .     A
C242   O270    1.289   .     A
C242   C249    1.426   .     S
C242   O272    1.295   .     A
C243   C246    1.399   .     A
C244   C200    1.393   1_655 S
C244   Cl805   1.764   1_554 S
C245   Cl530   1.764   .     S
C246   H263    1.084   .     S
C247   H264    1.084   .     S
C247   C199    1.393   1_655 S
C249   C64     1.350   1_565 S
C249   Cl72    1.779   1_565 S
C250   O275    1.298   .     A
C250   O273    1.301   .     A
C251   O274    1.301   .     A
C251   O276    1.298   .     A
C252   H265    1.085   .     S
Cl253  C520    1.764   .     S
Cl254  C797    1.764   1_554 S
Cl255  C64     1.779   1_565 S
Cl257  N543    1.726   .     S
Cl258  N820    1.726   1_554 S
Cu259  N268    2.030   .     S
Cu259  O276    1.959   .     S
Cu259  O269    1.964   .     S
Cu259  O273    1.965   .     S
Cu259  Cu260   2.701   .     S
Cu259  O272    1.959   .     S
Cu260  O271    1.959   .     S
Cu260  O275    1.959   .     S
Cu260  O270    1.964   .     S
Cu260  O274    1.965   .     S
Cu260  N267    2.030   .     S
N267   Cl809   1.726   1_554 S
N267   N820    1.296   1_554 S
N268   N543    1.296   .     S
N268   Cl534   1.726   .     S
C277   C294    1.426   .     S
C277   O317    1.295   .     A
C277   O315    1.289   .     A
C278   C280    1.399   .     A
C278   H312    1.085   .     S
C278   C289    1.390   .     A
C279   C297    1.455   .     S
C279   C298    1.399   .     A
C279   C281    1.399   .     A
C280   C296    1.455   .     S
C280   C282    1.399   .     A
C281   C283    1.398   .     A
C281   H307    1.082   .     S
C282   H308    1.082   .     S
C282   C284    1.398   .     A
C283   C285    1.418   .     A
C283   C290    1.411   .     A
C284   C286    1.418   .     A
C284   C291    1.411   .     A
C285   C287    1.411   .     A
C285   C332    1.402   .     S
C286   C289    1.411   .     A
C286   C331    1.402   1_455 S
C287   C293    1.399   .     A
C287   C298    1.390   .     A
C288   O316    1.289   .     A
C288   C295    1.426   .     S
C288   O318    1.295   .     A
C289   C292    1.399   .     A
C290   C338    1.393   .     S
C291   C339    1.393   1_455 S
C291   Cl576   1.764   .     S
C292   H309    1.084   .     S
C292   C336    1.393   1_455 S
C293   H310    1.084   .     S
C293   C337    1.393   .     S
C294   C479    1.350   1_545 S
C294   Cl485   1.779   1_545 S
C295   C386    1.350   .     S
C295   Cl394   1.779   .     S
C296   O321    1.298   .     A
C296   O319    1.301   .     A
C297   O320    1.301   .     A
C297   O322    1.298   .     A
C298   H311    1.085   .     S
Cl299  C566    1.764   .     S
Cl301  C386    1.779   .     S
Cl302  C479    1.779   1_545 S
Cl303  N589    1.726   .     S
Cu305  N314    2.030   .     S
Cu305  O322    1.959   .     S
Cu305  O315    1.964   .     S
Cu305  O319    1.965   .     S
Cu305  Cu306   2.701   .     S
Cu305  O318    1.959   .     S
Cu306  O317    1.959   .     S
Cu306  O321    1.959   .     S
Cu306  O316    1.964   .     S
Cu306  O320    1.965   .     S
Cu306  N313    2.030   .     S
N314   N589    1.296   .     S
N314   Cl580   1.726   .     S
C323   C340    1.426   .     S
C323   O363    1.295   .     A
C323   O361    1.289   .     A
C324   C326    1.399   .     A
C324   H358    1.085   .     S
C324   C335    1.390   .     A
C325   C343    1.455   .     S
C325   C344    1.399   .     A
C325   C327    1.399   .     A
C326   C342    1.455   .     S
C326   C328    1.399   .     A
C327   C329    1.398   .     A
C327   H353    1.082   .     S
C328   H354    1.082   .     S
C328   C330    1.398   .     A
C329   C331    1.418   .     A
C329   C336    1.411   .     A
C330   C332    1.418   .     A
C330   C337    1.411   .     A
C331   C333    1.411   .     A
C331   C286    1.402   1_655 S
C332   C335    1.411   .     A
C333   C339    1.399   .     A
C333   C344    1.390   .     A
C334   O362    1.289   .     A
C334   C341    1.426   .     S
C334   O364    1.295   .     A
C335   C338    1.399   .     A
C336   C292    1.393   1_655 S
C337   Cl622   1.764   .     S
C338   H355    1.084   .     S
C339   H356    1.084   .     S
C339   C291    1.393   1_655 S
C340   C525    1.350   1_545 S
C340   Cl531   1.779   1_545 S
C341   C432    1.350   .     S
C341   Cl440   1.779   .     S
C342   O367    1.298   .     A
C342   O365    1.301   .     A
C343   O366    1.301   .     A
C343   O368    1.298   .     A
C344   H357    1.085   .     S
Cl345  C612    1.764   .     S
Cl347  C432    1.779   .     S
Cl348  C525    1.779   1_545 S
Cl349  N635    1.726   .     S
Cu351  N360    2.030   .     S
Cu351  O368    1.959   .     S
Cu351  O361    1.964   .     S
Cu351  O365    1.965   .     S
Cu351  Cu352   2.701   .     S
Cu351  O364    1.959   .     S
Cu352  O363    1.959   .     S
Cu352  O367    1.959   .     S
Cu352  O362    1.964   .     S
Cu352  O366    1.965   .     S
Cu352  N359    2.030   .     S
N360   N635    1.296   .     S
N360   Cl626   1.726   .     S
C369   C386    1.426   .     S
C369   O409    1.295   .     A
C369   O407    1.289   .     A
C370   C372    1.399   .     A
C370   H404    1.085   .     S
C370   C381    1.390   .     A
C371   C389    1.455   .     S
C371   C390    1.399   .     A
C371   C373    1.399   .     A
C372   C388    1.455   .     S
C372   C374    1.399   .     A
C373   C375    1.398   .     A
C373   H399    1.082   .     S
C374   H400    1.082   .     S
C374   C376    1.398   .     A
C375   C377    1.418   .     A
C375   C382    1.411   .     A
C376   C378    1.418   .     A
C376   C383    1.411   .     A
C377   C379    1.411   .     A
C377   C424    1.402   .     S
C378   C381    1.411   .     A
C378   C423    1.402   1_455 S
C379   C385    1.399   .     A
C379   C390    1.390   .     A
C380   O408    1.289   .     A
C380   C387    1.426   .     S
C380   O410    1.295   .     A
C381   C384    1.399   .     A
C382   C430    1.393   .     S
C383   C431    1.393   1_455 S
C383   Cl668   1.764   .     S
C384   H401    1.084   .     S
C384   C428    1.393   1_455 S
C385   H402    1.084   .     S
C385   C429    1.393   .     S
C387   C478    1.350   .     S
C387   Cl486   1.779   .     S
C388   O413    1.298   .     A
C388   O411    1.301   .     A
C389   O412    1.301   .     A
C389   O414    1.298   .     A
C390   H403    1.085   .     S
Cl391  C658    1.764   .     S
Cl393  C478    1.779   .     S
Cl395  N681    1.726   .     S
Cu397  N406    2.030   .     S
Cu397  O414    1.959   .     S
Cu397  O407    1.964   .     S
Cu397  O411    1.965   .     S
Cu397  Cu398   2.701   .     S
Cu397  O410    1.959   .     S
Cu398  O409    1.959   .     S
Cu398  O413    1.959   .     S
Cu398  O408    1.964   .     S
Cu398  O412    1.965   .     S
Cu398  N405    2.030   .     S
N406   N681    1.296   .     S
N406   Cl672   1.726   .     S
C415   C432    1.426   .     S
C415   O455    1.295   .     A
C415   O453    1.289   .     A
C416   C418    1.399   .     A
C416   H450    1.085   .     S
C416   C427    1.390   .     A
C417   C435    1.455   .     S
C417   C436    1.399   .     A
C417   C419    1.399   .     A
C418   C434    1.455   .     S
C418   C420    1.399   .     A
C419   C421    1.398   .     A
C419   H445    1.082   .     S
C420   H446    1.082   .     S
C420   C422    1.398   .     A
C421   C423    1.418   .     A
C421   C428    1.411   .     A
C422   C424    1.418   .     A
C422   C429    1.411   .     A
C423   C425    1.411   .     A
C423   C378    1.402   1_655 S
C424   C427    1.411   .     A
C425   C431    1.399   .     A
C425   C436    1.390   .     A
C426   O454    1.289   .     A
C426   C433    1.426   .     S
C426   O456    1.295   .     A
C427   C430    1.399   .     A
C428   C384    1.393   1_655 S
C429   Cl714   1.764   .     S
C430   H447    1.084   .     S
C431   H448    1.084   .     S
C431   C383    1.393   1_655 S
C433   C524    1.350   .     S
C433   Cl532   1.779   .     S
C434   O459    1.298   .     A
C434   O457    1.301   .     A
C435   O458    1.301   .     A
C435   O460    1.298   .     A
C436   H449    1.085   .     S
Cl437  C704    1.764   .     S
Cl439  C524    1.779   .     S
Cl441  N727    1.726   .     S
Cu443  N452    2.030   .     S
Cu443  O460    1.959   .     S
Cu443  O453    1.964   .     S
Cu443  O457    1.965   .     S
Cu443  Cu444   2.701   .     S
Cu443  O456    1.959   .     S
Cu444  O455    1.959   .     S
Cu444  O459    1.959   .     S
Cu444  O454    1.964   .     S
Cu444  O458    1.965   .     S
Cu444  N451    2.030   .     S
N452   N727    1.296   .     S
N452   Cl718   1.726   .     S
C461   C478    1.426   .     S
C461   O501    1.295   .     A
C461   O499    1.289   .     A
C462   C464    1.399   .     A
C462   H496    1.085   .     S
C462   C473    1.390   .     A
C463   C481    1.455   .     S
C463   C482    1.399   .     A
C463   C465    1.399   .     A
C464   C480    1.455   .     S
C464   C466    1.399   .     A
C465   C467    1.398   .     A
C465   H491    1.082   .     S
C466   H492    1.082   .     S
C466   C468    1.398   .     A
C467   C469    1.418   .     A
C467   C474    1.411   .     A
C468   C470    1.418   .     A
C468   C475    1.411   .     A
C469   C471    1.411   .     A
C469   C516    1.402   .     S
C470   C473    1.411   .     A
C470   C515    1.402   1_455 S
C471   C477    1.399   .     A
C471   C482    1.390   .     A
C472   O500    1.289   .     A
C472   C479    1.426   .     S
C472   O502    1.295   .     A
C473   C476    1.399   .     A
C474   C522    1.393   .     S
C475   C523    1.393   1_455 S
C475   Cl760   1.764   .     S
C476   H493    1.084   .     S
C476   C520    1.393   1_455 S
C477   H494    1.084   .     S
C477   C521    1.393   .     S
C479   C294    1.350   1_565 S
C479   Cl302   1.779   1_565 S
C480   O505    1.298   .     A
C480   O503    1.301   .     A
C481   O504    1.301   .     A
C481   O506    1.298   .     A
C482   H495    1.085   .     S
Cl483  C750    1.764   .     S
Cl485  C294    1.779   1_565 S
Cl487  N773    1.726   .     S
Cu489  N498    2.030   .     S
Cu489  O506    1.959   .     S
Cu489  O499    1.964   .     S
Cu489  O503    1.965   .     S
Cu489  Cu490   2.701   .     S
Cu489  O502    1.959   .     S
Cu490  O501    1.959   .     S
Cu490  O505    1.959   .     S
Cu490  O500    1.964   .     S
Cu490  O504    1.965   .     S
Cu490  N497    2.030   .     S
N498   N773    1.296   .     S
N498   Cl764   1.726   .     S
C507   C524    1.426   .     S
C507   O547    1.295   .     A
C507   O545    1.289   .     A
C508   C510    1.399   .     A
C508   H542    1.085   .     S
C508   C519    1.390   .     A
C509   C527    1.455   .     S
C509   C528    1.399   .     A
C509   C511    1.399   .     A
C510   C526    1.455   .     S
C510   C512    1.399   .     A
C511   C513    1.398   .     A
C511   H537    1.082   .     S
C512   H538    1.082   .     S
C512   C514    1.398   .     A
C513   C515    1.418   .     A
C513   C520    1.411   .     A
C514   C516    1.418   .     A
C514   C521    1.411   .     A
C515   C517    1.411   .     A
C515   C470    1.402   1_655 S
C516   C519    1.411   .     A
C517   C523    1.399   .     A
C517   C528    1.390   .     A
C518   O546    1.289   .     A
C518   C525    1.426   .     S
C518   O548    1.295   .     A
C519   C522    1.399   .     A
C520   C476    1.393   1_655 S
C521   Cl806   1.764   .     S
C522   H539    1.084   .     S
C523   H540    1.084   .     S
C523   C475    1.393   1_655 S
C525   C340    1.350   1_565 S
C525   Cl348   1.779   1_565 S
C526   O551    1.298   .     A
C526   O549    1.301   .     A
C527   O550    1.301   .     A
C527   O552    1.298   .     A
C528   H541    1.085   .     S
Cl529  C796    1.764   .     S
Cl531  C340    1.779   1_565 S
Cl533  N819    1.726   .     S
Cu535  N544    2.030   .     S
Cu535  O552    1.959   .     S
Cu535  O545    1.964   .     S
Cu535  O549    1.965   .     S
Cu535  Cu536   2.701   .     S
Cu535  O548    1.959   .     S
Cu536  O547    1.959   .     S
Cu536  O551    1.959   .     S
Cu536  O546    1.964   .     S
Cu536  O550    1.965   .     S
Cu536  N543    2.030   .     S
N544   N819    1.296   .     S
N544   Cl810   1.726   .     S
C553   C570    1.426   .     S
C553   O593    1.295   .     A
C553   O591    1.289   .     A
C554   C556    1.399   .     A
C554   H588    1.085   .     S
C554   C565    1.390   .     A
C555   C573    1.455   .     S
C555   C574    1.399   .     A
C555   C557    1.399   .     A
C556   C572    1.455   .     S
C556   C558    1.399   .     A
C557   C559    1.398   .     A
C557   H583    1.082   .     S
C558   H584    1.082   .     S
C558   C560    1.398   .     A
C559   C561    1.418   .     A
C559   C566    1.411   .     A
C560   C562    1.418   .     A
C560   C567    1.411   .     A
C561   C563    1.411   .     A
C561   C608    1.402   .     S
C562   C565    1.411   .     A
C562   C607    1.402   1_455 S
C563   C569    1.399   .     A
C563   C574    1.390   .     A
C564   O592    1.289   .     A
C564   C571    1.426   .     S
C564   O594    1.295   .     A
C565   C568    1.399   .     A
C566   C614    1.393   .     S
C567   C615    1.393   1_455 S
C567   Cl24    1.764   1_556 S
C568   H585    1.084   .     S
C568   C612    1.393   1_455 S
C569   H586    1.084   .     S
C569   C613    1.393   .     S
C570   C755    1.350   1_545 S
C570   Cl761   1.779   1_545 S
C571   C662    1.350   .     S
C571   Cl670   1.779   .     S
C572   O597    1.298   .     A
C572   O595    1.301   .     A
C573   O596    1.301   .     A
C573   O598    1.298   .     A
C574   H587    1.085   .     S
Cl575  C14     1.764   1_556 S
Cl577  C662    1.779   .     S
Cl578  C755    1.779   1_545 S
Cl579  N37     1.726   1_556 S
Cu581  N590    2.030   .     S
Cu581  O598    1.959   .     S
Cu581  O591    1.964   .     S
Cu581  O595    1.965   .     S
Cu581  Cu582   2.701   .     S
Cu581  O594    1.959   .     S
Cu582  O593    1.959   .     S
Cu582  O597    1.959   .     S
Cu582  O592    1.964   .     S
Cu582  O596    1.965   .     S
Cu582  N589    2.030   .     S
N590   N37     1.296   1_556 S
N590   Cl28    1.726   1_556 S
C599   C616    1.426   .     S
C599   O639    1.295   .     A
C599   O637    1.289   .     A
C600   C602    1.399   .     A
C600   H634    1.085   .     S
C600   C611    1.390   .     A
C601   C619    1.455   .     S
C601   C620    1.399   .     A
C601   C603    1.399   .     A
C602   C618    1.455   .     S
C602   C604    1.399   .     A
C603   C605    1.398   .     A
C603   H629    1.082   .     S
C604   H630    1.082   .     S
C604   C606    1.398   .     A
C605   C607    1.418   .     A
C605   C612    1.411   .     A
C606   C608    1.418   .     A
C606   C613    1.411   .     A
C607   C609    1.411   .     A
C607   C562    1.402   1_655 S
C608   C611    1.411   .     A
C609   C615    1.399   .     A
C609   C620    1.390   .     A
C610   O638    1.289   .     A
C610   C617    1.426   .     S
C610   O640    1.295   .     A
C611   C614    1.399   .     A
C612   C568    1.393   1_655 S
C613   Cl70    1.764   1_556 S
C614   H631    1.084   .     S
C615   H632    1.084   .     S
C615   C567    1.393   1_655 S
C616   C801    1.350   1_545 S
C616   Cl807   1.779   1_545 S
C617   C708    1.350   .     S
C617   Cl716   1.779   .     S
C618   O643    1.298   .     A
C618   O641    1.301   .     A
C619   O642    1.301   .     A
C619   O644    1.298   .     A
C620   H633    1.085   .     S
Cl621  C60     1.764   1_556 S
Cl623  C708    1.779   .     S
Cl624  C801    1.779   1_545 S
Cl625  N83     1.726   1_556 S
Cu627  N636    2.030   .     S
Cu627  O644    1.959   .     S
Cu627  O637    1.964   .     S
Cu627  O641    1.965   .     S
Cu627  Cu628   2.701   .     S
Cu627  O640    1.959   .     S
Cu628  O639    1.959   .     S
Cu628  O643    1.959   .     S
Cu628  O638    1.964   .     S
Cu628  O642    1.965   .     S
Cu628  N635    2.030   .     S
N636   N83     1.296   1_556 S
N636   Cl74    1.726   1_556 S
C645   C662    1.426   .     S
C645   O685    1.295   .     A
C645   O683    1.289   .     A
C646   C648    1.399   .     A
C646   H680    1.085   .     S
C646   C657    1.390   .     A
C647   C665    1.455   .     S
C647   C666    1.399   .     A
C647   C649    1.399   .     A
C648   C664    1.455   .     S
C648   C650    1.399   .     A
C649   C651    1.398   .     A
C649   H675    1.082   .     S
C650   H676    1.082   .     S
C650   C652    1.398   .     A
C651   C653    1.418   .     A
C651   C658    1.411   .     A
C652   C654    1.418   .     A
C652   C659    1.411   .     A
C653   C655    1.411   .     A
C653   C700    1.402   .     S
C654   C657    1.411   .     A
C654   C699    1.402   1_455 S
C655   C661    1.399   .     A
C655   C666    1.390   .     A
C656   O684    1.289   .     A
C656   C663    1.426   .     S
C656   O686    1.295   .     A
C657   C660    1.399   .     A
C658   C706    1.393   .     S
C659   C707    1.393   1_455 S
C659   Cl116   1.764   1_556 S
C660   H677    1.084   .     S
C660   C704    1.393   1_455 S
C661   H678    1.084   .     S
C661   C705    1.393   .     S
C663   C754    1.350   .     S
C663   Cl762   1.779   .     S
C664   O689    1.298   .     A
C664   O687    1.301   .     A
C665   O688    1.301   .     A
C665   O690    1.298   .     A
C666   H679    1.085   .     S
Cl667  C106    1.764   1_556 S
Cl669  C754    1.779   .     S
Cl671  N129    1.726   1_556 S
Cu673  N682    2.030   .     S
Cu673  O690    1.959   .     S
Cu673  O683    1.964   .     S
Cu673  O687    1.965   .     S
Cu673  Cu674   2.701   .     S
Cu673  O686    1.959   .     S
Cu674  O685    1.959   .     S
Cu674  O689    1.959   .     S
Cu674  O684    1.964   .     S
Cu674  O688    1.965   .     S
Cu674  N681    2.030   .     S
N682   N129    1.296   1_556 S
N682   Cl120   1.726   1_556 S
C691   C708    1.426   .     S
C691   O731    1.295   .     A
C691   O729    1.289   .     A
C692   C694    1.399   .     A
C692   H726    1.085   .     S
C692   C703    1.390   .     A
C693   C711    1.455   .     S
C693   C712    1.399   .     A
C693   C695    1.399   .     A
C694   C710    1.455   .     S
C694   C696    1.399   .     A
C695   C697    1.398   .     A
C695   H721    1.082   .     S
C696   H722    1.082   .     S
C696   C698    1.398   .     A
C697   C699    1.418   .     A
C697   C704    1.411   .     A
C698   C700    1.418   .     A
C698   C705    1.411   .     A
C699   C701    1.411   .     A
C699   C654    1.402   1_655 S
C700   C703    1.411   .     A
C701   C707    1.399   .     A
C701   C712    1.390   .     A
C702   O730    1.289   .     A
C702   C709    1.426   .     S
C702   O732    1.295   .     A
C703   C706    1.399   .     A
C704   C660    1.393   1_655 S
C705   Cl162   1.764   1_556 S
C706   H723    1.084   .     S
C707   H724    1.084   .     S
C707   C659    1.393   1_655 S
C709   C800    1.350   .     S
C709   Cl808   1.779   .     S
C710   O735    1.298   .     A
C710   O733    1.301   .     A
C711   O734    1.301   .     A
C711   O736    1.298   .     A
C712   H725    1.085   .     S
Cl713  C152    1.764   1_556 S
Cl715  C800    1.779   .     S
Cl717  N175    1.726   1_556 S
Cu719  N728    2.030   .     S
Cu719  O736    1.959   .     S
Cu719  O729    1.964   .     S
Cu719  O733    1.965   .     S
Cu719  Cu720   2.701   .     S
Cu719  O732    1.959   .     S
Cu720  O731    1.959   .     S
Cu720  O735    1.959   .     S
Cu720  O730    1.964   .     S
Cu720  O734    1.965   .     S
Cu720  N727    2.030   .     S
N728   N175    1.296   1_556 S
N728   Cl166   1.726   1_556 S
C737   C754    1.426   .     S
C737   O777    1.295   .     A
C737   O775    1.289   .     A
C738   C740    1.399   .     A
C738   H772    1.085   .     S
C738   C749    1.390   .     A
C739   C757    1.455   .     S
C739   C758    1.399   .     A
C739   C741    1.399   .     A
C740   C756    1.455   .     S
C740   C742    1.399   .     A
C741   C743    1.398   .     A
C741   H767    1.082   .     S
C742   H768    1.082   .     S
C742   C744    1.398   .     A
C743   C745    1.418   .     A
C743   C750    1.411   .     A
C744   C746    1.418   .     A
C744   C751    1.411   .     A
C745   C747    1.411   .     A
C745   C792    1.402   .     S
C746   C749    1.411   .     A
C746   C791    1.402   1_455 S
C747   C753    1.399   .     A
C747   C758    1.390   .     A
C748   O776    1.289   .     A
C748   C755    1.426   .     S
C748   O778    1.295   .     A
C749   C752    1.399   .     A
C750   C798    1.393   .     S
C751   C799    1.393   1_455 S
C751   Cl208   1.764   1_556 S
C752   H769    1.084   .     S
C752   C796    1.393   1_455 S
C753   H770    1.084   .     S
C753   C797    1.393   .     S
C755   C570    1.350   1_565 S
C755   Cl578   1.779   1_565 S
C756   O781    1.298   .     A
C756   O779    1.301   .     A
C757   O780    1.301   .     A
C757   O782    1.298   .     A
C758   H771    1.085   .     S
Cl759  C198    1.764   1_556 S
Cl761  C570    1.779   1_565 S
Cl763  N221    1.726   1_556 S
Cu765  N774    2.030   .     S
Cu765  O782    1.959   .     S
Cu765  O775    1.964   .     S
Cu765  O779    1.965   .     S
Cu765  Cu766   2.701   .     S
Cu765  O778    1.959   .     S
Cu766  O777    1.959   .     S
Cu766  O781    1.959   .     S
Cu766  O776    1.964   .     S
Cu766  O780    1.965   .     S
Cu766  N773    2.030   .     S
N774   N221    1.296   1_556 S
N774   Cl212   1.726   1_556 S
C783   C800    1.426   .     S
C783   O823    1.295   .     A
C783   O821    1.289   .     A
C784   C786    1.399   .     A
C784   H818    1.085   .     S
C784   C795    1.390   .     A
C785   C803    1.455   .     S
C785   C804    1.399   .     A
C785   C787    1.399   .     A
C786   C802    1.455   .     S
C786   C788    1.399   .     A
C787   C789    1.398   .     A
C787   H813    1.082   .     S
C788   H814    1.082   .     S
C788   C790    1.398   .     A
C789   C791    1.418   .     A
C789   C796    1.411   .     A
C790   C792    1.418   .     A
C790   C797    1.411   .     A
C791   C793    1.411   .     A
C791   C746    1.402   1_655 S
C792   C795    1.411   .     A
C793   C799    1.399   .     A
C793   C804    1.390   .     A
C794   O822    1.289   .     A
C794   C801    1.426   .     S
C794   O824    1.295   .     A
C795   C798    1.399   .     A
C796   C752    1.393   1_655 S
C797   Cl254   1.764   1_556 S
C798   H815    1.084   .     S
C799   H816    1.084   .     S
C799   C751    1.393   1_655 S
C801   C616    1.350   1_565 S
C801   Cl624   1.779   1_565 S
C802   O827    1.298   .     A
C802   O825    1.301   .     A
C803   O826    1.301   .     A
C803   O828    1.298   .     A
C804   H817    1.085   .     S
Cl805  C244    1.764   1_556 S
Cl807  C616    1.779   1_565 S
Cl809  N267    1.726   1_556 S
Cu811  N820    2.030   .     S
Cu811  O828    1.959   .     S
Cu811  O821    1.964   .     S
Cu811  O825    1.965   .     S
Cu811  Cu812   2.701   .     S
Cu811  O824    1.959   .     S
Cu812  O823    1.959   .     S
Cu812  O827    1.959   .     S
Cu812  O822    1.964   .     S
Cu812  O826    1.965   .     S
Cu812  N819    2.030   .     S
N820   N267    1.296   1_556 S
N820   Cl258   1.726   1_556 S
