data_str_m2_o10_o17_pcu_sym.202
_audit_creation_date              2020-01-03
_audit_creation_method            'Materials Studio'
_symmetry_space_group_name_H-M    'P1'
_symmetry_Int_Tables_number       1
_symmetry_cell_setting            triclinic
loop_
_symmetry_equiv_pos_as_xyz
  x,y,z
_cell_length_a                    30.1105
_cell_length_b                    26.3337
_cell_length_c                    22.2996
_cell_angle_alpha                 103.0432
_cell_angle_beta                  93.9708
_cell_angle_gamma                 92.7441
loop_
_atom_site_label
_atom_site_type_symbol
_atom_site_fract_x
_atom_site_fract_y
_atom_site_fract_z
_atom_site_U_iso_or_equiv
_atom_site_adp_type
_atom_site_occupancy
O1     O     0.25325   0.09538   0.20659   0.00000  Uiso   1.00
O2     O     0.24674   0.23796   0.12674   0.00000  Uiso   1.00
O3     O     0.24480   0.08559   0.10279   0.00000  Uiso   1.00
O4     O     0.25520   0.24774   0.23055   0.00000  Uiso   1.00
C5     C     0.24880   0.06680   0.15124   0.00000  Uiso   1.00
C6     C     0.25120   0.26653   0.18209   0.00000  Uiso   1.00
O7     O     0.18935   0.17155   0.21857   0.00000  Uiso   1.00
O8     O     0.31064   0.16179   0.11476   0.00000  Uiso   1.00
O9     O     0.18090   0.16176   0.11477   0.00000  Uiso   1.00
O10    O     0.31910   0.17157   0.21857   0.00000  Uiso   1.00
C11    C     0.16458   0.16711   0.16764   0.00000  Uiso   1.00
C12    C     0.33542   0.16622   0.16570   0.00000  Uiso   1.00
Cu13   Cu    0.25500   0.17246   0.22813   0.00000  Uiso   1.00
Cu14   Cu    0.24499   0.16087   0.10521   0.00000  Uiso   1.00
C15    C     0.40624   0.19750   0.13224   0.00000  Uiso   1.00
C16    C     0.09376   0.13582   0.20108   0.00000  Uiso   1.00
C17    C     0.38352   0.16504   0.16385   0.00000  Uiso   1.00
C18    C     0.11648   0.16828   0.16948   0.00000  Uiso   1.00
C19    C     0.40667   0.13260   0.19568   0.00000  Uiso   1.00
C20    C     0.09333   0.20071   0.13764   0.00000  Uiso   1.00
C21    C     0.45328   0.13290   0.19648   0.00000  Uiso   1.00
C22    C     0.04672   0.20041   0.13683   0.00000  Uiso   1.00
C23    C     0.47651   0.16616   0.16585   0.00000  Uiso   1.00
C24    C     0.02348   0.16715   0.16747   0.00000  Uiso   1.00
C25    C     0.45296   0.19850   0.13368   0.00000  Uiso   1.00
C26    C     0.04704   0.13481   0.19964   0.00000  Uiso   1.00
C27    C     0.47711   0.09999   0.22655   0.00000  Uiso   1.00
C28    C     0.02289   0.23331   0.10675   0.00000  Uiso   1.00
C29    C     0.02325   0.10096   0.22813   0.00000  Uiso   1.00
C30    C     0.47675   0.23234   0.10517   0.00000  Uiso   1.00
H31    H     0.46037   0.07291   0.24886   0.00000  Uiso   1.00
H32    H     0.03963   0.26038   0.08443   0.00000  Uiso   1.00
H33    H     0.03996   0.07450   0.25147   0.00000  Uiso   1.00
H34    H     0.46004   0.25879   0.08181   0.00000  Uiso   1.00
C35    C     0.25004   0.01138   0.14234   0.00000  Uiso   1.00
C36    C     0.24996   0.32195   0.19099   0.00000  Uiso   1.00
N37    N     0.23744   0.15214   0.01284   0.00000  Uiso   1.00
N38    N     0.26255   0.18119   0.32049   0.00000  Uiso   1.00
N39    N     0.38190   0.23097   0.10110   0.00000  Uiso   1.00
O40    O     0.38074   0.22357   0.04130   0.00000  Uiso   1.00
O41    O     0.35951   0.26759   0.13229   0.00000  Uiso   1.00
N42    N     0.11810   0.10234   0.23222   0.00000  Uiso   1.00
O43    O     0.11924   0.10972   0.29201   0.00000  Uiso   1.00
O44    O     0.14054   0.06577   0.20104   0.00000  Uiso   1.00
N45    N     0.38254   0.09858   0.22594   0.00000  Uiso   1.00
O46    O     0.35506   0.06116   0.19371   0.00000  Uiso   1.00
O47    O     0.38640   0.10657   0.28587   0.00000  Uiso   1.00
N48    N     0.11746   0.23473   0.10738   0.00000  Uiso   1.00
O49    O     0.14490   0.27219   0.13961   0.00000  Uiso   1.00
O50    O     0.11363   0.22670   0.04745   0.00000  Uiso   1.00
N51    N     0.25267   0.31558   0.08006   0.00000  Uiso   1.00
O52    O     0.21623   0.29817   0.04514   0.00000  Uiso   1.00
O53    O     0.29075   0.31397   0.05574   0.00000  Uiso   1.00
N54    N     0.24733   0.01776   0.25328   0.00000  Uiso   1.00
O55    O     0.28377   0.03516   0.28819   0.00000  Uiso   1.00
O56    O     0.20926   0.01936   0.27760   0.00000  Uiso   1.00
H57    H     0.21446   0.12695   0.31619   0.00000  Uiso   1.00
H58    H     0.28554   0.20638   0.01714   0.00000  Uiso   1.00
O59    O     0.75325   0.09538   0.20659   0.00000  Uiso   1.00
O60    O     0.74674   0.23796   0.12674   0.00000  Uiso   1.00
O61    O     0.74480   0.08559   0.10279   0.00000  Uiso   1.00
O62    O     0.75520   0.24774   0.23055   0.00000  Uiso   1.00
C63    C     0.74880   0.06680   0.15124   0.00000  Uiso   1.00
C64    C     0.75120   0.26653   0.18209   0.00000  Uiso   1.00
O65    O     0.68935   0.17155   0.21857   0.00000  Uiso   1.00
O66    O     0.81064   0.16179   0.11476   0.00000  Uiso   1.00
O67    O     0.68090   0.16176   0.11477   0.00000  Uiso   1.00
O68    O     0.81910   0.17157   0.21857   0.00000  Uiso   1.00
C69    C     0.66458   0.16711   0.16764   0.00000  Uiso   1.00
C70    C     0.83542   0.16622   0.16570   0.00000  Uiso   1.00
Cu71   Cu    0.75500   0.17246   0.22813   0.00000  Uiso   1.00
Cu72   Cu    0.74499   0.16087   0.10521   0.00000  Uiso   1.00
C73    C     0.90624   0.19750   0.13224   0.00000  Uiso   1.00
C74    C     0.59376   0.13582   0.20108   0.00000  Uiso   1.00
C75    C     0.88352   0.16504   0.16385   0.00000  Uiso   1.00
C76    C     0.61648   0.16828   0.16948   0.00000  Uiso   1.00
C77    C     0.90667   0.13260   0.19568   0.00000  Uiso   1.00
C78    C     0.59333   0.20071   0.13764   0.00000  Uiso   1.00
C79    C     0.95328   0.13290   0.19648   0.00000  Uiso   1.00
C80    C     0.54672   0.20041   0.13683   0.00000  Uiso   1.00
C81    C     0.97651   0.16616   0.16585   0.00000  Uiso   1.00
C82    C     0.52348   0.16715   0.16747   0.00000  Uiso   1.00
C83    C     0.95296   0.19850   0.13368   0.00000  Uiso   1.00
C84    C     0.54704   0.13481   0.19964   0.00000  Uiso   1.00
C85    C     0.97711   0.09999   0.22655   0.00000  Uiso   1.00
C86    C     0.52289   0.23331   0.10675   0.00000  Uiso   1.00
C87    C     0.52325   0.10096   0.22813   0.00000  Uiso   1.00
C88    C     0.97675   0.23234   0.10517   0.00000  Uiso   1.00
H89    H     0.96037   0.07291   0.24886   0.00000  Uiso   1.00
H90    H     0.53963   0.26038   0.08443   0.00000  Uiso   1.00
H91    H     0.53996   0.07450   0.25147   0.00000  Uiso   1.00
H92    H     0.96004   0.25879   0.08181   0.00000  Uiso   1.00
C93    C     0.75004   0.01138   0.14234   0.00000  Uiso   1.00
C94    C     0.74996   0.32195   0.19099   0.00000  Uiso   1.00
N95    N     0.73744   0.15214   0.01284   0.00000  Uiso   1.00
N96    N     0.76255   0.18119   0.32049   0.00000  Uiso   1.00
N97    N     0.88190   0.23097   0.10110   0.00000  Uiso   1.00
O98    O     0.88074   0.22357   0.04130   0.00000  Uiso   1.00
O99    O     0.85951   0.26759   0.13229   0.00000  Uiso   1.00
N100   N     0.61810   0.10234   0.23222   0.00000  Uiso   1.00
O101   O     0.61924   0.10972   0.29201   0.00000  Uiso   1.00
O102   O     0.64054   0.06577   0.20104   0.00000  Uiso   1.00
N103   N     0.88254   0.09858   0.22594   0.00000  Uiso   1.00
O104   O     0.85506   0.06116   0.19371   0.00000  Uiso   1.00
O105   O     0.88640   0.10657   0.28587   0.00000  Uiso   1.00
N106   N     0.61746   0.23473   0.10738   0.00000  Uiso   1.00
O107   O     0.64490   0.27219   0.13961   0.00000  Uiso   1.00
O108   O     0.61363   0.22670   0.04745   0.00000  Uiso   1.00
N109   N     0.75267   0.31558   0.08006   0.00000  Uiso   1.00
O110   O     0.71623   0.29817   0.04514   0.00000  Uiso   1.00
O111   O     0.79075   0.31397   0.05574   0.00000  Uiso   1.00
N112   N     0.74733   0.01776   0.25328   0.00000  Uiso   1.00
O113   O     0.78377   0.03516   0.28819   0.00000  Uiso   1.00
O114   O     0.70926   0.01936   0.27760   0.00000  Uiso   1.00
H115   H     0.71446   0.12695   0.31619   0.00000  Uiso   1.00
H116   H     0.78554   0.20638   0.01714   0.00000  Uiso   1.00
O117   O     0.25325   0.42871   0.20659   0.00000  Uiso   1.00
O118   O     0.24674   0.57129   0.12674   0.00000  Uiso   1.00
O119   O     0.24480   0.41892   0.10279   0.00000  Uiso   1.00
O120   O     0.25520   0.58108   0.23055   0.00000  Uiso   1.00
C121   C     0.24880   0.40014   0.15124   0.00000  Uiso   1.00
C122   C     0.25120   0.59986   0.18209   0.00000  Uiso   1.00
O123   O     0.18935   0.50488   0.21857   0.00000  Uiso   1.00
O124   O     0.31064   0.49512   0.11476   0.00000  Uiso   1.00
O125   O     0.18090   0.49510   0.11477   0.00000  Uiso   1.00
O126   O     0.31910   0.50490   0.21857   0.00000  Uiso   1.00
C127   C     0.16458   0.50044   0.16764   0.00000  Uiso   1.00
C128   C     0.33542   0.49955   0.16570   0.00000  Uiso   1.00
Cu129  Cu    0.25500   0.50579   0.22813   0.00000  Uiso   1.00
Cu130  Cu    0.24499   0.49421   0.10521   0.00000  Uiso   1.00
C131   C     0.40624   0.53083   0.13224   0.00000  Uiso   1.00
C132   C     0.09376   0.46915   0.20108   0.00000  Uiso   1.00
C133   C     0.38352   0.49838   0.16385   0.00000  Uiso   1.00
C134   C     0.11648   0.50161   0.16948   0.00000  Uiso   1.00
C135   C     0.40667   0.46594   0.19568   0.00000  Uiso   1.00
C136   C     0.09333   0.53405   0.13764   0.00000  Uiso   1.00
C137   C     0.45328   0.46623   0.19648   0.00000  Uiso   1.00
C138   C     0.04672   0.53375   0.13683   0.00000  Uiso   1.00
C139   C     0.47651   0.49950   0.16585   0.00000  Uiso   1.00
C140   C     0.02348   0.50048   0.16747   0.00000  Uiso   1.00
C141   C     0.45296   0.53183   0.13368   0.00000  Uiso   1.00
C142   C     0.04704   0.46815   0.19964   0.00000  Uiso   1.00
C143   C     0.47711   0.43333   0.22655   0.00000  Uiso   1.00
C144   C     0.02289   0.56664   0.10675   0.00000  Uiso   1.00
C145   C     0.02325   0.43429   0.22813   0.00000  Uiso   1.00
C146   C     0.47675   0.56567   0.10517   0.00000  Uiso   1.00
H147   H     0.46037   0.40624   0.24886   0.00000  Uiso   1.00
H148   H     0.03963   0.59371   0.08443   0.00000  Uiso   1.00
H149   H     0.03996   0.40783   0.25147   0.00000  Uiso   1.00
H150   H     0.46004   0.59213   0.08181   0.00000  Uiso   1.00
C151   C     0.25004   0.34472   0.14234   0.00000  Uiso   1.00
C152   C     0.24996   0.65528   0.19099   0.00000  Uiso   1.00
N153   N     0.23744   0.48547   0.01284   0.00000  Uiso   1.00
N154   N     0.26255   0.51453   0.32049   0.00000  Uiso   1.00
N155   N     0.38190   0.56431   0.10110   0.00000  Uiso   1.00
O156   O     0.38074   0.55691   0.04130   0.00000  Uiso   1.00
O157   O     0.35951   0.60092   0.13229   0.00000  Uiso   1.00
N158   N     0.11810   0.43568   0.23222   0.00000  Uiso   1.00
O159   O     0.11924   0.44305   0.29201   0.00000  Uiso   1.00
O160   O     0.14054   0.39910   0.20104   0.00000  Uiso   1.00
N161   N     0.38254   0.43192   0.22594   0.00000  Uiso   1.00
O162   O     0.35506   0.39449   0.19371   0.00000  Uiso   1.00
O163   O     0.38640   0.43990   0.28587   0.00000  Uiso   1.00
N164   N     0.11746   0.56807   0.10738   0.00000  Uiso   1.00
O165   O     0.14490   0.60552   0.13961   0.00000  Uiso   1.00
O166   O     0.11363   0.56004   0.04745   0.00000  Uiso   1.00
N167   N     0.25267   0.64891   0.08006   0.00000  Uiso   1.00
O168   O     0.21623   0.63151   0.04514   0.00000  Uiso   1.00
O169   O     0.29075   0.64731   0.05574   0.00000  Uiso   1.00
N170   N     0.24733   0.35109   0.25328   0.00000  Uiso   1.00
O171   O     0.28377   0.36849   0.28819   0.00000  Uiso   1.00
O172   O     0.20926   0.35269   0.27760   0.00000  Uiso   1.00
H173   H     0.21446   0.46028   0.31619   0.00000  Uiso   1.00
H174   H     0.28554   0.53972   0.01714   0.00000  Uiso   1.00
O175   O     0.75325   0.42871   0.20659   0.00000  Uiso   1.00
O176   O     0.74674   0.57129   0.12674   0.00000  Uiso   1.00
O177   O     0.74480   0.41892   0.10279   0.00000  Uiso   1.00
O178   O     0.75520   0.58108   0.23055   0.00000  Uiso   1.00
C179   C     0.74880   0.40014   0.15124   0.00000  Uiso   1.00
C180   C     0.75120   0.59986   0.18209   0.00000  Uiso   1.00
O181   O     0.68935   0.50488   0.21857   0.00000  Uiso   1.00
O182   O     0.81064   0.49512   0.11476   0.00000  Uiso   1.00
O183   O     0.68090   0.49510   0.11477   0.00000  Uiso   1.00
O184   O     0.81910   0.50490   0.21857   0.00000  Uiso   1.00
C185   C     0.66458   0.50044   0.16764   0.00000  Uiso   1.00
C186   C     0.83542   0.49955   0.16570   0.00000  Uiso   1.00
Cu187  Cu    0.75500   0.50579   0.22813   0.00000  Uiso   1.00
Cu188  Cu    0.74499   0.49421   0.10521   0.00000  Uiso   1.00
C189   C     0.90624   0.53083   0.13224   0.00000  Uiso   1.00
C190   C     0.59376   0.46915   0.20108   0.00000  Uiso   1.00
C191   C     0.88352   0.49838   0.16385   0.00000  Uiso   1.00
C192   C     0.61648   0.50161   0.16948   0.00000  Uiso   1.00
C193   C     0.90667   0.46594   0.19568   0.00000  Uiso   1.00
C194   C     0.59333   0.53405   0.13764   0.00000  Uiso   1.00
C195   C     0.95328   0.46623   0.19648   0.00000  Uiso   1.00
C196   C     0.54672   0.53375   0.13683   0.00000  Uiso   1.00
C197   C     0.97651   0.49950   0.16585   0.00000  Uiso   1.00
C198   C     0.52348   0.50048   0.16747   0.00000  Uiso   1.00
C199   C     0.95296   0.53183   0.13368   0.00000  Uiso   1.00
C200   C     0.54704   0.46815   0.19964   0.00000  Uiso   1.00
C201   C     0.97711   0.43333   0.22655   0.00000  Uiso   1.00
C202   C     0.52289   0.56664   0.10675   0.00000  Uiso   1.00
C203   C     0.52325   0.43429   0.22813   0.00000  Uiso   1.00
C204   C     0.97675   0.56567   0.10517   0.00000  Uiso   1.00
H205   H     0.96037   0.40624   0.24886   0.00000  Uiso   1.00
H206   H     0.53963   0.59371   0.08443   0.00000  Uiso   1.00
H207   H     0.53996   0.40783   0.25147   0.00000  Uiso   1.00
H208   H     0.96004   0.59213   0.08181   0.00000  Uiso   1.00
C209   C     0.75004   0.34472   0.14234   0.00000  Uiso   1.00
C210   C     0.74996   0.65528   0.19099   0.00000  Uiso   1.00
N211   N     0.73744   0.48547   0.01284   0.00000  Uiso   1.00
N212   N     0.76255   0.51453   0.32049   0.00000  Uiso   1.00
N213   N     0.88190   0.56431   0.10110   0.00000  Uiso   1.00
O214   O     0.88074   0.55691   0.04130   0.00000  Uiso   1.00
O215   O     0.85951   0.60092   0.13229   0.00000  Uiso   1.00
N216   N     0.61810   0.43568   0.23222   0.00000  Uiso   1.00
O217   O     0.61924   0.44305   0.29201   0.00000  Uiso   1.00
O218   O     0.64054   0.39910   0.20104   0.00000  Uiso   1.00
N219   N     0.88254   0.43192   0.22594   0.00000  Uiso   1.00
O220   O     0.85506   0.39449   0.19371   0.00000  Uiso   1.00
O221   O     0.88640   0.43990   0.28587   0.00000  Uiso   1.00
N222   N     0.61746   0.56807   0.10738   0.00000  Uiso   1.00
O223   O     0.64490   0.60552   0.13961   0.00000  Uiso   1.00
O224   O     0.61363   0.56004   0.04745   0.00000  Uiso   1.00
N225   N     0.75267   0.64891   0.08006   0.00000  Uiso   1.00
O226   O     0.71623   0.63151   0.04514   0.00000  Uiso   1.00
O227   O     0.79075   0.64731   0.05574   0.00000  Uiso   1.00
N228   N     0.74733   0.35109   0.25328   0.00000  Uiso   1.00
O229   O     0.78377   0.36849   0.28819   0.00000  Uiso   1.00
O230   O     0.70926   0.35269   0.27760   0.00000  Uiso   1.00
H231   H     0.71446   0.46028   0.31619   0.00000  Uiso   1.00
H232   H     0.78554   0.53972   0.01714   0.00000  Uiso   1.00
O233   O     0.25325   0.76204   0.20659   0.00000  Uiso   1.00
O234   O     0.24674   0.90462   0.12674   0.00000  Uiso   1.00
O235   O     0.24480   0.75226   0.10279   0.00000  Uiso   1.00
O236   O     0.25520   0.91441   0.23055   0.00000  Uiso   1.00
C237   C     0.24880   0.73347   0.15124   0.00000  Uiso   1.00
C238   C     0.25120   0.93320   0.18209   0.00000  Uiso   1.00
O239   O     0.18935   0.83821   0.21857   0.00000  Uiso   1.00
O240   O     0.31064   0.82845   0.11476   0.00000  Uiso   1.00
O241   O     0.18090   0.82843   0.11477   0.00000  Uiso   1.00
O242   O     0.31910   0.83824   0.21857   0.00000  Uiso   1.00
C243   C     0.16458   0.83378   0.16764   0.00000  Uiso   1.00
C244   C     0.33542   0.83289   0.16570   0.00000  Uiso   1.00
Cu245  Cu    0.25500   0.83913   0.22813   0.00000  Uiso   1.00
Cu246  Cu    0.24499   0.82754   0.10521   0.00000  Uiso   1.00
C247   C     0.40624   0.86416   0.13224   0.00000  Uiso   1.00
C248   C     0.09376   0.80249   0.20108   0.00000  Uiso   1.00
C249   C     0.38352   0.83171   0.16385   0.00000  Uiso   1.00
C250   C     0.11648   0.83495   0.16948   0.00000  Uiso   1.00
C251   C     0.40667   0.79927   0.19568   0.00000  Uiso   1.00
C252   C     0.09333   0.86738   0.13764   0.00000  Uiso   1.00
C253   C     0.45328   0.79956   0.19648   0.00000  Uiso   1.00
C254   C     0.04672   0.86708   0.13683   0.00000  Uiso   1.00
C255   C     0.47651   0.83283   0.16585   0.00000  Uiso   1.00
C256   C     0.02348   0.83382   0.16747   0.00000  Uiso   1.00
C257   C     0.45296   0.86516   0.13368   0.00000  Uiso   1.00
C258   C     0.04704   0.80148   0.19964   0.00000  Uiso   1.00
C259   C     0.47711   0.76666   0.22655   0.00000  Uiso   1.00
C260   C     0.02289   0.89997   0.10675   0.00000  Uiso   1.00
C261   C     0.02325   0.76763   0.22813   0.00000  Uiso   1.00
C262   C     0.47675   0.89901   0.10517   0.00000  Uiso   1.00
H263   H     0.46037   0.73957   0.24886   0.00000  Uiso   1.00
H264   H     0.03963   0.92705   0.08443   0.00000  Uiso   1.00
H265   H     0.03996   0.74116   0.25147   0.00000  Uiso   1.00
H266   H     0.46004   0.92546   0.08181   0.00000  Uiso   1.00
C267   C     0.25004   0.67805   0.14234   0.00000  Uiso   1.00
C268   C     0.24996   0.98862   0.19099   0.00000  Uiso   1.00
N269   N     0.23744   0.81881   0.01284   0.00000  Uiso   1.00
N270   N     0.26255   0.84786   0.32049   0.00000  Uiso   1.00
N271   N     0.38190   0.89764   0.10110   0.00000  Uiso   1.00
O272   O     0.38074   0.89024   0.04130   0.00000  Uiso   1.00
O273   O     0.35951   0.93425   0.13229   0.00000  Uiso   1.00
N274   N     0.11810   0.76901   0.23222   0.00000  Uiso   1.00
O275   O     0.11924   0.77639   0.29201   0.00000  Uiso   1.00
O276   O     0.14054   0.73244   0.20104   0.00000  Uiso   1.00
N277   N     0.38254   0.76525   0.22594   0.00000  Uiso   1.00
O278   O     0.35506   0.72782   0.19371   0.00000  Uiso   1.00
O279   O     0.38640   0.77323   0.28587   0.00000  Uiso   1.00
N280   N     0.11746   0.90140   0.10738   0.00000  Uiso   1.00
O281   O     0.14490   0.93886   0.13961   0.00000  Uiso   1.00
O282   O     0.11363   0.89337   0.04745   0.00000  Uiso   1.00
N283   N     0.25267   0.98224   0.08006   0.00000  Uiso   1.00
O284   O     0.21623   0.96484   0.04514   0.00000  Uiso   1.00
O285   O     0.29075   0.98064   0.05574   0.00000  Uiso   1.00
N286   N     0.24733   0.68442   0.25328   0.00000  Uiso   1.00
O287   O     0.28377   0.70183   0.28819   0.00000  Uiso   1.00
O288   O     0.20926   0.68602   0.27760   0.00000  Uiso   1.00
H289   H     0.21446   0.79362   0.31619   0.00000  Uiso   1.00
H290   H     0.28554   0.87305   0.01714   0.00000  Uiso   1.00
O291   O     0.75325   0.76204   0.20659   0.00000  Uiso   1.00
O292   O     0.74674   0.90462   0.12674   0.00000  Uiso   1.00
O293   O     0.74480   0.75226   0.10279   0.00000  Uiso   1.00
O294   O     0.75520   0.91441   0.23055   0.00000  Uiso   1.00
C295   C     0.74880   0.73347   0.15124   0.00000  Uiso   1.00
C296   C     0.75120   0.93320   0.18209   0.00000  Uiso   1.00
O297   O     0.68935   0.83821   0.21857   0.00000  Uiso   1.00
O298   O     0.81064   0.82845   0.11476   0.00000  Uiso   1.00
O299   O     0.68090   0.82843   0.11477   0.00000  Uiso   1.00
O300   O     0.81910   0.83824   0.21857   0.00000  Uiso   1.00
C301   C     0.66458   0.83378   0.16764   0.00000  Uiso   1.00
C302   C     0.83542   0.83289   0.16570   0.00000  Uiso   1.00
Cu303  Cu    0.75500   0.83913   0.22813   0.00000  Uiso   1.00
Cu304  Cu    0.74499   0.82754   0.10521   0.00000  Uiso   1.00
C305   C     0.90624   0.86416   0.13224   0.00000  Uiso   1.00
C306   C     0.59376   0.80249   0.20108   0.00000  Uiso   1.00
C307   C     0.88352   0.83171   0.16385   0.00000  Uiso   1.00
C308   C     0.61648   0.83495   0.16948   0.00000  Uiso   1.00
C309   C     0.90667   0.79927   0.19568   0.00000  Uiso   1.00
C310   C     0.59333   0.86738   0.13764   0.00000  Uiso   1.00
C311   C     0.95328   0.79956   0.19648   0.00000  Uiso   1.00
C312   C     0.54672   0.86708   0.13683   0.00000  Uiso   1.00
C313   C     0.97651   0.83283   0.16585   0.00000  Uiso   1.00
C314   C     0.52348   0.83382   0.16747   0.00000  Uiso   1.00
C315   C     0.95296   0.86516   0.13368   0.00000  Uiso   1.00
C316   C     0.54704   0.80148   0.19964   0.00000  Uiso   1.00
C317   C     0.97711   0.76666   0.22655   0.00000  Uiso   1.00
C318   C     0.52289   0.89997   0.10675   0.00000  Uiso   1.00
C319   C     0.52325   0.76763   0.22813   0.00000  Uiso   1.00
C320   C     0.97675   0.89901   0.10517   0.00000  Uiso   1.00
H321   H     0.96037   0.73957   0.24886   0.00000  Uiso   1.00
H322   H     0.53963   0.92705   0.08443   0.00000  Uiso   1.00
H323   H     0.53996   0.74116   0.25147   0.00000  Uiso   1.00
H324   H     0.96004   0.92546   0.08181   0.00000  Uiso   1.00
C325   C     0.75004   0.67805   0.14234   0.00000  Uiso   1.00
C326   C     0.74996   0.98862   0.19099   0.00000  Uiso   1.00
N327   N     0.73744   0.81881   0.01284   0.00000  Uiso   1.00
N328   N     0.76255   0.84786   0.32049   0.00000  Uiso   1.00
N329   N     0.88190   0.89764   0.10110   0.00000  Uiso   1.00
O330   O     0.88074   0.89024   0.04130   0.00000  Uiso   1.00
O331   O     0.85951   0.93425   0.13229   0.00000  Uiso   1.00
N332   N     0.61810   0.76901   0.23222   0.00000  Uiso   1.00
O333   O     0.61924   0.77639   0.29201   0.00000  Uiso   1.00
O334   O     0.64054   0.73244   0.20104   0.00000  Uiso   1.00
N335   N     0.88254   0.76525   0.22594   0.00000  Uiso   1.00
O336   O     0.85506   0.72782   0.19371   0.00000  Uiso   1.00
O337   O     0.88640   0.77323   0.28587   0.00000  Uiso   1.00
N338   N     0.61746   0.90140   0.10738   0.00000  Uiso   1.00
O339   O     0.64490   0.93886   0.13961   0.00000  Uiso   1.00
O340   O     0.61363   0.89337   0.04745   0.00000  Uiso   1.00
N341   N     0.75267   0.98224   0.08006   0.00000  Uiso   1.00
O342   O     0.71623   0.96484   0.04514   0.00000  Uiso   1.00
O343   O     0.79075   0.98064   0.05574   0.00000  Uiso   1.00
N344   N     0.74733   0.68442   0.25328   0.00000  Uiso   1.00
O345   O     0.78377   0.70183   0.28819   0.00000  Uiso   1.00
O346   O     0.70926   0.68602   0.27760   0.00000  Uiso   1.00
H347   H     0.71446   0.79362   0.31619   0.00000  Uiso   1.00
H348   H     0.78554   0.87305   0.01714   0.00000  Uiso   1.00
O349   O     0.25325   0.09538   0.53992   0.00000  Uiso   1.00
O350   O     0.24674   0.23796   0.46008   0.00000  Uiso   1.00
O351   O     0.24480   0.08559   0.43612   0.00000  Uiso   1.00
O352   O     0.25520   0.24774   0.56388   0.00000  Uiso   1.00
C353   C     0.24880   0.06680   0.48458   0.00000  Uiso   1.00
C354   C     0.25120   0.26653   0.51542   0.00000  Uiso   1.00
O355   O     0.18935   0.17155   0.55191   0.00000  Uiso   1.00
O356   O     0.31064   0.16179   0.44809   0.00000  Uiso   1.00
O357   O     0.18090   0.16176   0.44810   0.00000  Uiso   1.00
O358   O     0.31910   0.17157   0.55190   0.00000  Uiso   1.00
C359   C     0.16458   0.16711   0.50097   0.00000  Uiso   1.00
C360   C     0.33542   0.16622   0.49903   0.00000  Uiso   1.00
Cu361  Cu    0.25500   0.17246   0.56146   0.00000  Uiso   1.00
Cu362  Cu    0.24499   0.16087   0.43854   0.00000  Uiso   1.00
C363   C     0.40624   0.19750   0.46558   0.00000  Uiso   1.00
C364   C     0.09376   0.13582   0.53441   0.00000  Uiso   1.00
C365   C     0.38352   0.16504   0.49718   0.00000  Uiso   1.00
C366   C     0.11648   0.16828   0.50281   0.00000  Uiso   1.00
C367   C     0.40667   0.13260   0.52902   0.00000  Uiso   1.00
C368   C     0.09333   0.20071   0.47098   0.00000  Uiso   1.00
C369   C     0.45328   0.13290   0.52981   0.00000  Uiso   1.00
C370   C     0.04672   0.20041   0.47017   0.00000  Uiso   1.00
C371   C     0.47651   0.16616   0.49918   0.00000  Uiso   1.00
C372   C     0.02348   0.16715   0.50080   0.00000  Uiso   1.00
C373   C     0.45296   0.19850   0.46701   0.00000  Uiso   1.00
C374   C     0.04704   0.13481   0.53297   0.00000  Uiso   1.00
C375   C     0.47711   0.09999   0.55988   0.00000  Uiso   1.00
C376   C     0.02289   0.23331   0.44009   0.00000  Uiso   1.00
C377   C     0.02325   0.10096   0.56146   0.00000  Uiso   1.00
C378   C     0.47675   0.23234   0.43850   0.00000  Uiso   1.00
H379   H     0.46037   0.07291   0.58219   0.00000  Uiso   1.00
H380   H     0.03963   0.26038   0.41776   0.00000  Uiso   1.00
H381   H     0.03996   0.07450   0.58480   0.00000  Uiso   1.00
H382   H     0.46004   0.25879   0.41515   0.00000  Uiso   1.00
C383   C     0.25004   0.01138   0.47567   0.00000  Uiso   1.00
C384   C     0.24996   0.32195   0.52433   0.00000  Uiso   1.00
N385   N     0.23744   0.15214   0.34617   0.00000  Uiso   1.00
N386   N     0.26255   0.18119   0.65383   0.00000  Uiso   1.00
N387   N     0.38190   0.23097   0.43444   0.00000  Uiso   1.00
O388   O     0.38074   0.22357   0.37464   0.00000  Uiso   1.00
O389   O     0.35951   0.26759   0.46563   0.00000  Uiso   1.00
N390   N     0.11810   0.10234   0.56555   0.00000  Uiso   1.00
O391   O     0.11924   0.10972   0.62535   0.00000  Uiso   1.00
O392   O     0.14054   0.06577   0.53437   0.00000  Uiso   1.00
N393   N     0.38254   0.09858   0.55927   0.00000  Uiso   1.00
O394   O     0.35506   0.06116   0.52705   0.00000  Uiso   1.00
O395   O     0.38640   0.10657   0.61920   0.00000  Uiso   1.00
N396   N     0.11746   0.23473   0.44072   0.00000  Uiso   1.00
O397   O     0.14490   0.27219   0.47294   0.00000  Uiso   1.00
O398   O     0.11363   0.22670   0.38078   0.00000  Uiso   1.00
N399   N     0.25267   0.31558   0.41339   0.00000  Uiso   1.00
O400   O     0.21623   0.29817   0.37847   0.00000  Uiso   1.00
O401   O     0.29075   0.31397   0.38907   0.00000  Uiso   1.00
N402   N     0.24733   0.01776   0.58661   0.00000  Uiso   1.00
O403   O     0.28377   0.03516   0.62152   0.00000  Uiso   1.00
O404   O     0.20926   0.01936   0.61093   0.00000  Uiso   1.00
H405   H     0.21446   0.12695   0.64952   0.00000  Uiso   1.00
H406   H     0.28554   0.20638   0.35048   0.00000  Uiso   1.00
O407   O     0.75325   0.09538   0.53992   0.00000  Uiso   1.00
O408   O     0.74674   0.23796   0.46008   0.00000  Uiso   1.00
O409   O     0.74480   0.08559   0.43612   0.00000  Uiso   1.00
O410   O     0.75520   0.24774   0.56388   0.00000  Uiso   1.00
C411   C     0.74880   0.06680   0.48458   0.00000  Uiso   1.00
C412   C     0.75120   0.26653   0.51542   0.00000  Uiso   1.00
O413   O     0.68935   0.17155   0.55191   0.00000  Uiso   1.00
O414   O     0.81064   0.16179   0.44809   0.00000  Uiso   1.00
O415   O     0.68090   0.16176   0.44810   0.00000  Uiso   1.00
O416   O     0.81910   0.17157   0.55190   0.00000  Uiso   1.00
C417   C     0.66458   0.16711   0.50097   0.00000  Uiso   1.00
C418   C     0.83542   0.16622   0.49903   0.00000  Uiso   1.00
Cu419  Cu    0.75500   0.17246   0.56146   0.00000  Uiso   1.00
Cu420  Cu    0.74499   0.16087   0.43854   0.00000  Uiso   1.00
C421   C     0.90624   0.19750   0.46558   0.00000  Uiso   1.00
C422   C     0.59376   0.13582   0.53441   0.00000  Uiso   1.00
C423   C     0.88352   0.16504   0.49718   0.00000  Uiso   1.00
C424   C     0.61648   0.16828   0.50281   0.00000  Uiso   1.00
C425   C     0.90667   0.13260   0.52902   0.00000  Uiso   1.00
C426   C     0.59333   0.20071   0.47098   0.00000  Uiso   1.00
C427   C     0.95328   0.13290   0.52981   0.00000  Uiso   1.00
C428   C     0.54672   0.20041   0.47017   0.00000  Uiso   1.00
C429   C     0.97651   0.16616   0.49918   0.00000  Uiso   1.00
C430   C     0.52348   0.16715   0.50080   0.00000  Uiso   1.00
C431   C     0.95296   0.19850   0.46701   0.00000  Uiso   1.00
C432   C     0.54704   0.13481   0.53297   0.00000  Uiso   1.00
C433   C     0.97711   0.09999   0.55988   0.00000  Uiso   1.00
C434   C     0.52289   0.23331   0.44009   0.00000  Uiso   1.00
C435   C     0.52325   0.10096   0.56146   0.00000  Uiso   1.00
C436   C     0.97675   0.23234   0.43850   0.00000  Uiso   1.00
H437   H     0.96037   0.07291   0.58219   0.00000  Uiso   1.00
H438   H     0.53963   0.26038   0.41776   0.00000  Uiso   1.00
H439   H     0.53996   0.07450   0.58480   0.00000  Uiso   1.00
H440   H     0.96004   0.25879   0.41515   0.00000  Uiso   1.00
C441   C     0.75004   0.01138   0.47567   0.00000  Uiso   1.00
C442   C     0.74996   0.32195   0.52433   0.00000  Uiso   1.00
N443   N     0.73744   0.15214   0.34617   0.00000  Uiso   1.00
N444   N     0.76255   0.18119   0.65383   0.00000  Uiso   1.00
N445   N     0.88190   0.23097   0.43444   0.00000  Uiso   1.00
O446   O     0.88074   0.22357   0.37464   0.00000  Uiso   1.00
O447   O     0.85951   0.26759   0.46563   0.00000  Uiso   1.00
N448   N     0.61810   0.10234   0.56555   0.00000  Uiso   1.00
O449   O     0.61924   0.10972   0.62535   0.00000  Uiso   1.00
O450   O     0.64054   0.06577   0.53437   0.00000  Uiso   1.00
N451   N     0.88254   0.09858   0.55927   0.00000  Uiso   1.00
O452   O     0.85506   0.06116   0.52705   0.00000  Uiso   1.00
O453   O     0.88640   0.10657   0.61920   0.00000  Uiso   1.00
N454   N     0.61746   0.23473   0.44072   0.00000  Uiso   1.00
O455   O     0.64490   0.27219   0.47294   0.00000  Uiso   1.00
O456   O     0.61363   0.22670   0.38078   0.00000  Uiso   1.00
N457   N     0.75267   0.31558   0.41339   0.00000  Uiso   1.00
O458   O     0.71623   0.29817   0.37847   0.00000  Uiso   1.00
O459   O     0.79075   0.31397   0.38907   0.00000  Uiso   1.00
N460   N     0.74733   0.01776   0.58661   0.00000  Uiso   1.00
O461   O     0.78377   0.03516   0.62152   0.00000  Uiso   1.00
O462   O     0.70926   0.01936   0.61093   0.00000  Uiso   1.00
H463   H     0.71446   0.12695   0.64952   0.00000  Uiso   1.00
H464   H     0.78554   0.20638   0.35048   0.00000  Uiso   1.00
O465   O     0.25325   0.42871   0.53992   0.00000  Uiso   1.00
O466   O     0.24674   0.57129   0.46008   0.00000  Uiso   1.00
O467   O     0.24480   0.41892   0.43612   0.00000  Uiso   1.00
O468   O     0.25520   0.58108   0.56388   0.00000  Uiso   1.00
C469   C     0.24880   0.40014   0.48458   0.00000  Uiso   1.00
C470   C     0.25120   0.59986   0.51542   0.00000  Uiso   1.00
O471   O     0.18935   0.50488   0.55191   0.00000  Uiso   1.00
O472   O     0.31064   0.49512   0.44809   0.00000  Uiso   1.00
O473   O     0.18090   0.49510   0.44810   0.00000  Uiso   1.00
O474   O     0.31910   0.50490   0.55190   0.00000  Uiso   1.00
C475   C     0.16458   0.50044   0.50097   0.00000  Uiso   1.00
C476   C     0.33542   0.49955   0.49903   0.00000  Uiso   1.00
Cu477  Cu    0.25500   0.50579   0.56146   0.00000  Uiso   1.00
Cu478  Cu    0.24499   0.49421   0.43854   0.00000  Uiso   1.00
C479   C     0.40624   0.53083   0.46558   0.00000  Uiso   1.00
C480   C     0.09376   0.46915   0.53441   0.00000  Uiso   1.00
C481   C     0.38352   0.49838   0.49718   0.00000  Uiso   1.00
C482   C     0.11648   0.50161   0.50281   0.00000  Uiso   1.00
C483   C     0.40667   0.46594   0.52902   0.00000  Uiso   1.00
C484   C     0.09333   0.53405   0.47098   0.00000  Uiso   1.00
C485   C     0.45328   0.46623   0.52981   0.00000  Uiso   1.00
C486   C     0.04672   0.53375   0.47017   0.00000  Uiso   1.00
C487   C     0.47651   0.49950   0.49918   0.00000  Uiso   1.00
C488   C     0.02348   0.50048   0.50080   0.00000  Uiso   1.00
C489   C     0.45296   0.53183   0.46701   0.00000  Uiso   1.00
C490   C     0.04704   0.46815   0.53297   0.00000  Uiso   1.00
C491   C     0.47711   0.43333   0.55988   0.00000  Uiso   1.00
C492   C     0.02289   0.56664   0.44009   0.00000  Uiso   1.00
C493   C     0.02325   0.43429   0.56146   0.00000  Uiso   1.00
C494   C     0.47675   0.56567   0.43850   0.00000  Uiso   1.00
H495   H     0.46037   0.40624   0.58219   0.00000  Uiso   1.00
H496   H     0.03963   0.59371   0.41776   0.00000  Uiso   1.00
H497   H     0.03996   0.40783   0.58480   0.00000  Uiso   1.00
H498   H     0.46004   0.59213   0.41515   0.00000  Uiso   1.00
C499   C     0.25004   0.34472   0.47567   0.00000  Uiso   1.00
C500   C     0.24996   0.65528   0.52433   0.00000  Uiso   1.00
N501   N     0.23744   0.48547   0.34617   0.00000  Uiso   1.00
N502   N     0.26255   0.51453   0.65383   0.00000  Uiso   1.00
N503   N     0.38190   0.56431   0.43444   0.00000  Uiso   1.00
O504   O     0.38074   0.55691   0.37464   0.00000  Uiso   1.00
O505   O     0.35951   0.60092   0.46563   0.00000  Uiso   1.00
N506   N     0.11810   0.43568   0.56555   0.00000  Uiso   1.00
O507   O     0.11924   0.44305   0.62535   0.00000  Uiso   1.00
O508   O     0.14054   0.39910   0.53437   0.00000  Uiso   1.00
N509   N     0.38254   0.43192   0.55927   0.00000  Uiso   1.00
O510   O     0.35506   0.39449   0.52705   0.00000  Uiso   1.00
O511   O     0.38640   0.43990   0.61920   0.00000  Uiso   1.00
N512   N     0.11746   0.56807   0.44072   0.00000  Uiso   1.00
O513   O     0.14490   0.60552   0.47294   0.00000  Uiso   1.00
O514   O     0.11363   0.56004   0.38078   0.00000  Uiso   1.00
N515   N     0.25267   0.64891   0.41339   0.00000  Uiso   1.00
O516   O     0.21623   0.63151   0.37847   0.00000  Uiso   1.00
O517   O     0.29075   0.64731   0.38907   0.00000  Uiso   1.00
N518   N     0.24733   0.35109   0.58661   0.00000  Uiso   1.00
O519   O     0.28377   0.36849   0.62152   0.00000  Uiso   1.00
O520   O     0.20926   0.35269   0.61093   0.00000  Uiso   1.00
H521   H     0.21446   0.46028   0.64952   0.00000  Uiso   1.00
H522   H     0.28554   0.53972   0.35048   0.00000  Uiso   1.00
O523   O     0.75325   0.42871   0.53992   0.00000  Uiso   1.00
O524   O     0.74674   0.57129   0.46008   0.00000  Uiso   1.00
O525   O     0.74480   0.41892   0.43612   0.00000  Uiso   1.00
O526   O     0.75520   0.58108   0.56388   0.00000  Uiso   1.00
C527   C     0.74880   0.40014   0.48458   0.00000  Uiso   1.00
C528   C     0.75120   0.59986   0.51542   0.00000  Uiso   1.00
O529   O     0.68935   0.50488   0.55191   0.00000  Uiso   1.00
O530   O     0.81064   0.49512   0.44809   0.00000  Uiso   1.00
O531   O     0.68090   0.49510   0.44810   0.00000  Uiso   1.00
O532   O     0.81910   0.50490   0.55190   0.00000  Uiso   1.00
C533   C     0.66458   0.50044   0.50097   0.00000  Uiso   1.00
C534   C     0.83542   0.49955   0.49903   0.00000  Uiso   1.00
Cu535  Cu    0.75500   0.50579   0.56146   0.00000  Uiso   1.00
Cu536  Cu    0.74499   0.49421   0.43854   0.00000  Uiso   1.00
C537   C     0.90624   0.53083   0.46558   0.00000  Uiso   1.00
C538   C     0.59376   0.46915   0.53441   0.00000  Uiso   1.00
C539   C     0.88352   0.49838   0.49718   0.00000  Uiso   1.00
C540   C     0.61648   0.50161   0.50281   0.00000  Uiso   1.00
C541   C     0.90667   0.46594   0.52902   0.00000  Uiso   1.00
C542   C     0.59333   0.53405   0.47098   0.00000  Uiso   1.00
C543   C     0.95328   0.46623   0.52981   0.00000  Uiso   1.00
C544   C     0.54672   0.53375   0.47017   0.00000  Uiso   1.00
C545   C     0.97651   0.49950   0.49918   0.00000  Uiso   1.00
C546   C     0.52348   0.50048   0.50080   0.00000  Uiso   1.00
C547   C     0.95296   0.53183   0.46701   0.00000  Uiso   1.00
C548   C     0.54704   0.46815   0.53297   0.00000  Uiso   1.00
C549   C     0.97711   0.43333   0.55988   0.00000  Uiso   1.00
C550   C     0.52289   0.56664   0.44009   0.00000  Uiso   1.00
C551   C     0.52325   0.43429   0.56146   0.00000  Uiso   1.00
C552   C     0.97675   0.56567   0.43850   0.00000  Uiso   1.00
H553   H     0.96037   0.40624   0.58219   0.00000  Uiso   1.00
H554   H     0.53963   0.59371   0.41776   0.00000  Uiso   1.00
H555   H     0.53996   0.40783   0.58480   0.00000  Uiso   1.00
H556   H     0.96004   0.59213   0.41515   0.00000  Uiso   1.00
C557   C     0.75004   0.34472   0.47567   0.00000  Uiso   1.00
C558   C     0.74996   0.65528   0.52433   0.00000  Uiso   1.00
N559   N     0.73744   0.48547   0.34617   0.00000  Uiso   1.00
N560   N     0.76255   0.51453   0.65383   0.00000  Uiso   1.00
N561   N     0.88190   0.56431   0.43444   0.00000  Uiso   1.00
O562   O     0.88074   0.55691   0.37464   0.00000  Uiso   1.00
O563   O     0.85951   0.60092   0.46563   0.00000  Uiso   1.00
N564   N     0.61810   0.43568   0.56555   0.00000  Uiso   1.00
O565   O     0.61924   0.44305   0.62535   0.00000  Uiso   1.00
O566   O     0.64054   0.39910   0.53437   0.00000  Uiso   1.00
N567   N     0.88254   0.43192   0.55927   0.00000  Uiso   1.00
O568   O     0.85506   0.39449   0.52705   0.00000  Uiso   1.00
O569   O     0.88640   0.43990   0.61920   0.00000  Uiso   1.00
N570   N     0.61746   0.56807   0.44072   0.00000  Uiso   1.00
O571   O     0.64490   0.60552   0.47294   0.00000  Uiso   1.00
O572   O     0.61363   0.56004   0.38078   0.00000  Uiso   1.00
N573   N     0.75267   0.64891   0.41339   0.00000  Uiso   1.00
O574   O     0.71623   0.63151   0.37847   0.00000  Uiso   1.00
O575   O     0.79075   0.64731   0.38907   0.00000  Uiso   1.00
N576   N     0.74733   0.35109   0.58661   0.00000  Uiso   1.00
O577   O     0.78377   0.36849   0.62152   0.00000  Uiso   1.00
O578   O     0.70926   0.35269   0.61093   0.00000  Uiso   1.00
H579   H     0.71446   0.46028   0.64952   0.00000  Uiso   1.00
H580   H     0.78554   0.53972   0.35048   0.00000  Uiso   1.00
O581   O     0.25325   0.76204   0.53992   0.00000  Uiso   1.00
O582   O     0.24674   0.90462   0.46008   0.00000  Uiso   1.00
O583   O     0.24480   0.75226   0.43612   0.00000  Uiso   1.00
O584   O     0.25520   0.91441   0.56388   0.00000  Uiso   1.00
C585   C     0.24880   0.73347   0.48458   0.00000  Uiso   1.00
C586   C     0.25120   0.93320   0.51542   0.00000  Uiso   1.00
O587   O     0.18935   0.83821   0.55191   0.00000  Uiso   1.00
O588   O     0.31064   0.82845   0.44809   0.00000  Uiso   1.00
O589   O     0.18090   0.82843   0.44810   0.00000  Uiso   1.00
O590   O     0.31910   0.83824   0.55190   0.00000  Uiso   1.00
C591   C     0.16458   0.83378   0.50097   0.00000  Uiso   1.00
C592   C     0.33542   0.83289   0.49903   0.00000  Uiso   1.00
Cu593  Cu    0.25500   0.83913   0.56146   0.00000  Uiso   1.00
Cu594  Cu    0.24499   0.82754   0.43854   0.00000  Uiso   1.00
C595   C     0.40624   0.86416   0.46558   0.00000  Uiso   1.00
C596   C     0.09376   0.80249   0.53441   0.00000  Uiso   1.00
C597   C     0.38352   0.83171   0.49718   0.00000  Uiso   1.00
C598   C     0.11648   0.83495   0.50281   0.00000  Uiso   1.00
C599   C     0.40667   0.79927   0.52902   0.00000  Uiso   1.00
C600   C     0.09333   0.86738   0.47098   0.00000  Uiso   1.00
C601   C     0.45328   0.79956   0.52981   0.00000  Uiso   1.00
C602   C     0.04672   0.86708   0.47017   0.00000  Uiso   1.00
C603   C     0.47651   0.83283   0.49918   0.00000  Uiso   1.00
C604   C     0.02348   0.83382   0.50080   0.00000  Uiso   1.00
C605   C     0.45296   0.86516   0.46701   0.00000  Uiso   1.00
C606   C     0.04704   0.80148   0.53297   0.00000  Uiso   1.00
C607   C     0.47711   0.76666   0.55988   0.00000  Uiso   1.00
C608   C     0.02289   0.89997   0.44009   0.00000  Uiso   1.00
C609   C     0.02325   0.76763   0.56146   0.00000  Uiso   1.00
C610   C     0.47675   0.89901   0.43850   0.00000  Uiso   1.00
H611   H     0.46037   0.73957   0.58219   0.00000  Uiso   1.00
H612   H     0.03963   0.92705   0.41776   0.00000  Uiso   1.00
H613   H     0.03996   0.74116   0.58480   0.00000  Uiso   1.00
H614   H     0.46004   0.92546   0.41515   0.00000  Uiso   1.00
C615   C     0.25004   0.67805   0.47567   0.00000  Uiso   1.00
C616   C     0.24996   0.98862   0.52433   0.00000  Uiso   1.00
N617   N     0.23744   0.81881   0.34617   0.00000  Uiso   1.00
N618   N     0.26255   0.84786   0.65383   0.00000  Uiso   1.00
N619   N     0.38190   0.89764   0.43444   0.00000  Uiso   1.00
O620   O     0.38074   0.89024   0.37464   0.00000  Uiso   1.00
O621   O     0.35951   0.93425   0.46563   0.00000  Uiso   1.00
N622   N     0.11810   0.76901   0.56555   0.00000  Uiso   1.00
O623   O     0.11924   0.77639   0.62535   0.00000  Uiso   1.00
O624   O     0.14054   0.73244   0.53437   0.00000  Uiso   1.00
N625   N     0.38254   0.76525   0.55927   0.00000  Uiso   1.00
O626   O     0.35506   0.72782   0.52705   0.00000  Uiso   1.00
O627   O     0.38640   0.77323   0.61920   0.00000  Uiso   1.00
N628   N     0.11746   0.90140   0.44072   0.00000  Uiso   1.00
O629   O     0.14490   0.93886   0.47294   0.00000  Uiso   1.00
O630   O     0.11363   0.89337   0.38078   0.00000  Uiso   1.00
N631   N     0.25267   0.98224   0.41339   0.00000  Uiso   1.00
O632   O     0.21623   0.96484   0.37847   0.00000  Uiso   1.00
O633   O     0.29075   0.98064   0.38907   0.00000  Uiso   1.00
N634   N     0.24733   0.68442   0.58661   0.00000  Uiso   1.00
O635   O     0.28377   0.70183   0.62152   0.00000  Uiso   1.00
O636   O     0.20926   0.68602   0.61093   0.00000  Uiso   1.00
H637   H     0.21446   0.79362   0.64952   0.00000  Uiso   1.00
H638   H     0.28554   0.87305   0.35048   0.00000  Uiso   1.00
O639   O     0.75325   0.76204   0.53992   0.00000  Uiso   1.00
O640   O     0.74674   0.90462   0.46008   0.00000  Uiso   1.00
O641   O     0.74480   0.75226   0.43612   0.00000  Uiso   1.00
O642   O     0.75520   0.91441   0.56388   0.00000  Uiso   1.00
C643   C     0.74880   0.73347   0.48458   0.00000  Uiso   1.00
C644   C     0.75120   0.93320   0.51542   0.00000  Uiso   1.00
O645   O     0.68935   0.83821   0.55191   0.00000  Uiso   1.00
O646   O     0.81064   0.82845   0.44809   0.00000  Uiso   1.00
O647   O     0.68090   0.82843   0.44810   0.00000  Uiso   1.00
O648   O     0.81910   0.83824   0.55190   0.00000  Uiso   1.00
C649   C     0.66458   0.83378   0.50097   0.00000  Uiso   1.00
C650   C     0.83542   0.83289   0.49903   0.00000  Uiso   1.00
Cu651  Cu    0.75500   0.83913   0.56146   0.00000  Uiso   1.00
Cu652  Cu    0.74499   0.82754   0.43854   0.00000  Uiso   1.00
C653   C     0.90624   0.86416   0.46558   0.00000  Uiso   1.00
C654   C     0.59376   0.80249   0.53441   0.00000  Uiso   1.00
C655   C     0.88352   0.83171   0.49718   0.00000  Uiso   1.00
C656   C     0.61648   0.83495   0.50281   0.00000  Uiso   1.00
C657   C     0.90667   0.79927   0.52902   0.00000  Uiso   1.00
C658   C     0.59333   0.86738   0.47098   0.00000  Uiso   1.00
C659   C     0.95328   0.79956   0.52981   0.00000  Uiso   1.00
C660   C     0.54672   0.86708   0.47017   0.00000  Uiso   1.00
C661   C     0.97651   0.83283   0.49918   0.00000  Uiso   1.00
C662   C     0.52348   0.83382   0.50080   0.00000  Uiso   1.00
C663   C     0.95296   0.86516   0.46701   0.00000  Uiso   1.00
C664   C     0.54704   0.80148   0.53297   0.00000  Uiso   1.00
C665   C     0.97711   0.76666   0.55988   0.00000  Uiso   1.00
C666   C     0.52289   0.89997   0.44009   0.00000  Uiso   1.00
C667   C     0.52325   0.76763   0.56146   0.00000  Uiso   1.00
C668   C     0.97675   0.89901   0.43850   0.00000  Uiso   1.00
H669   H     0.96037   0.73957   0.58219   0.00000  Uiso   1.00
H670   H     0.53963   0.92705   0.41776   0.00000  Uiso   1.00
H671   H     0.53996   0.74116   0.58480   0.00000  Uiso   1.00
H672   H     0.96004   0.92546   0.41515   0.00000  Uiso   1.00
C673   C     0.75004   0.67805   0.47567   0.00000  Uiso   1.00
C674   C     0.74996   0.98862   0.52433   0.00000  Uiso   1.00
N675   N     0.73744   0.81881   0.34617   0.00000  Uiso   1.00
N676   N     0.76255   0.84786   0.65383   0.00000  Uiso   1.00
N677   N     0.88190   0.89764   0.43444   0.00000  Uiso   1.00
O678   O     0.88074   0.89024   0.37464   0.00000  Uiso   1.00
O679   O     0.85951   0.93425   0.46563   0.00000  Uiso   1.00
N680   N     0.61810   0.76901   0.56555   0.00000  Uiso   1.00
O681   O     0.61924   0.77639   0.62535   0.00000  Uiso   1.00
O682   O     0.64054   0.73244   0.53437   0.00000  Uiso   1.00
N683   N     0.88254   0.76525   0.55927   0.00000  Uiso   1.00
O684   O     0.85506   0.72782   0.52705   0.00000  Uiso   1.00
O685   O     0.88640   0.77323   0.61920   0.00000  Uiso   1.00
N686   N     0.61746   0.90140   0.44072   0.00000  Uiso   1.00
O687   O     0.64490   0.93886   0.47294   0.00000  Uiso   1.00
O688   O     0.61363   0.89337   0.38078   0.00000  Uiso   1.00
N689   N     0.75267   0.98224   0.41339   0.00000  Uiso   1.00
O690   O     0.71623   0.96484   0.37847   0.00000  Uiso   1.00
O691   O     0.79075   0.98064   0.38907   0.00000  Uiso   1.00
N692   N     0.74733   0.68442   0.58661   0.00000  Uiso   1.00
O693   O     0.78377   0.70183   0.62152   0.00000  Uiso   1.00
O694   O     0.70926   0.68602   0.61093   0.00000  Uiso   1.00
H695   H     0.71446   0.79362   0.64952   0.00000  Uiso   1.00
H696   H     0.78554   0.87305   0.35048   0.00000  Uiso   1.00
O697   O     0.25325   0.09538   0.87326   0.00000  Uiso   1.00
O698   O     0.24674   0.23796   0.79341   0.00000  Uiso   1.00
O699   O     0.24480   0.08559   0.76945   0.00000  Uiso   1.00
O700   O     0.25520   0.24774   0.89721   0.00000  Uiso   1.00
C701   C     0.24880   0.06680   0.81791   0.00000  Uiso   1.00
C702   C     0.25120   0.26653   0.84876   0.00000  Uiso   1.00
O703   O     0.18935   0.17155   0.88524   0.00000  Uiso   1.00
O704   O     0.31064   0.16179   0.78143   0.00000  Uiso   1.00
O705   O     0.18090   0.16176   0.78143   0.00000  Uiso   1.00
O706   O     0.31910   0.17157   0.88523   0.00000  Uiso   1.00
C707   C     0.16458   0.16711   0.83430   0.00000  Uiso   1.00
C708   C     0.33542   0.16622   0.83236   0.00000  Uiso   1.00
Cu709  Cu    0.25500   0.17246   0.89479   0.00000  Uiso   1.00
Cu710  Cu    0.24499   0.16087   0.77187   0.00000  Uiso   1.00
C711   C     0.40624   0.19750   0.79891   0.00000  Uiso   1.00
C712   C     0.09376   0.13582   0.86774   0.00000  Uiso   1.00
C713   C     0.38352   0.16504   0.83052   0.00000  Uiso   1.00
C714   C     0.11648   0.16828   0.83615   0.00000  Uiso   1.00
C715   C     0.40667   0.13260   0.86235   0.00000  Uiso   1.00
C716   C     0.09333   0.20071   0.80431   0.00000  Uiso   1.00
C717   C     0.45328   0.13290   0.86315   0.00000  Uiso   1.00
C718   C     0.04672   0.20041   0.80350   0.00000  Uiso   1.00
C719   C     0.47651   0.16616   0.83252   0.00000  Uiso   1.00
C720   C     0.02348   0.16715   0.83414   0.00000  Uiso   1.00
C721   C     0.45296   0.19850   0.80035   0.00000  Uiso   1.00
C722   C     0.04704   0.13481   0.86630   0.00000  Uiso   1.00
C723   C     0.47711   0.09999   0.89321   0.00000  Uiso   1.00
C724   C     0.02289   0.23331   0.77342   0.00000  Uiso   1.00
C725   C     0.02325   0.10096   0.89480   0.00000  Uiso   1.00
C726   C     0.47675   0.23234   0.77184   0.00000  Uiso   1.00
H727   H     0.46037   0.07291   0.91552   0.00000  Uiso   1.00
H728   H     0.03963   0.26038   0.75109   0.00000  Uiso   1.00
H729   H     0.03996   0.07450   0.91814   0.00000  Uiso   1.00
H730   H     0.46004   0.25879   0.74848   0.00000  Uiso   1.00
C731   C     0.25004   0.01138   0.80901   0.00000  Uiso   1.00
C732   C     0.24996   0.32195   0.85766   0.00000  Uiso   1.00
N733   N     0.23744   0.15214   0.67951   0.00000  Uiso   1.00
N734   N     0.26255   0.18119   0.98716   0.00000  Uiso   1.00
N735   N     0.38190   0.23097   0.76777   0.00000  Uiso   1.00
O736   O     0.38074   0.22357   0.70797   0.00000  Uiso   1.00
O737   O     0.35951   0.26759   0.79896   0.00000  Uiso   1.00
N738   N     0.11810   0.10234   0.89889   0.00000  Uiso   1.00
O739   O     0.11924   0.10972   0.95868   0.00000  Uiso   1.00
O740   O     0.14054   0.06577   0.86771   0.00000  Uiso   1.00
N741   N     0.38254   0.09858   0.89260   0.00000  Uiso   1.00
O742   O     0.35506   0.06116   0.86038   0.00000  Uiso   1.00
O743   O     0.38640   0.10657   0.95253   0.00000  Uiso   1.00
N744   N     0.11746   0.23473   0.77405   0.00000  Uiso   1.00
O745   O     0.14490   0.27219   0.80627   0.00000  Uiso   1.00
O746   O     0.11363   0.22670   0.71411   0.00000  Uiso   1.00
N747   N     0.25267   0.31558   0.74672   0.00000  Uiso   1.00
O748   O     0.21623   0.29817   0.71181   0.00000  Uiso   1.00
O749   O     0.29075   0.31397   0.72240   0.00000  Uiso   1.00
N750   N     0.24733   0.01776   0.91994   0.00000  Uiso   1.00
O751   O     0.28377   0.03516   0.95486   0.00000  Uiso   1.00
O752   O     0.20926   0.01936   0.94427   0.00000  Uiso   1.00
H753   H     0.21446   0.12695   0.98286   0.00000  Uiso   1.00
H754   H     0.28554   0.20638   0.68381   0.00000  Uiso   1.00
O755   O     0.75325   0.09538   0.87326   0.00000  Uiso   1.00
O756   O     0.74674   0.23796   0.79341   0.00000  Uiso   1.00
O757   O     0.74480   0.08559   0.76945   0.00000  Uiso   1.00
O758   O     0.75520   0.24774   0.89721   0.00000  Uiso   1.00
C759   C     0.74880   0.06680   0.81791   0.00000  Uiso   1.00
C760   C     0.75120   0.26653   0.84876   0.00000  Uiso   1.00
O761   O     0.68935   0.17155   0.88524   0.00000  Uiso   1.00
O762   O     0.81064   0.16179   0.78143   0.00000  Uiso   1.00
O763   O     0.68090   0.16176   0.78143   0.00000  Uiso   1.00
O764   O     0.81910   0.17157   0.88523   0.00000  Uiso   1.00
C765   C     0.66458   0.16711   0.83430   0.00000  Uiso   1.00
C766   C     0.83542   0.16622   0.83236   0.00000  Uiso   1.00
Cu767  Cu    0.75500   0.17246   0.89479   0.00000  Uiso   1.00
Cu768  Cu    0.74499   0.16087   0.77187   0.00000  Uiso   1.00
C769   C     0.90624   0.19750   0.79891   0.00000  Uiso   1.00
C770   C     0.59376   0.13582   0.86774   0.00000  Uiso   1.00
C771   C     0.88352   0.16504   0.83052   0.00000  Uiso   1.00
C772   C     0.61648   0.16828   0.83615   0.00000  Uiso   1.00
C773   C     0.90667   0.13260   0.86235   0.00000  Uiso   1.00
C774   C     0.59333   0.20071   0.80431   0.00000  Uiso   1.00
C775   C     0.95328   0.13290   0.86315   0.00000  Uiso   1.00
C776   C     0.54672   0.20041   0.80350   0.00000  Uiso   1.00
C777   C     0.97651   0.16616   0.83252   0.00000  Uiso   1.00
C778   C     0.52348   0.16715   0.83414   0.00000  Uiso   1.00
C779   C     0.95296   0.19850   0.80035   0.00000  Uiso   1.00
C780   C     0.54704   0.13481   0.86630   0.00000  Uiso   1.00
C781   C     0.97711   0.09999   0.89321   0.00000  Uiso   1.00
C782   C     0.52289   0.23331   0.77342   0.00000  Uiso   1.00
C783   C     0.52325   0.10096   0.89480   0.00000  Uiso   1.00
C784   C     0.97675   0.23234   0.77184   0.00000  Uiso   1.00
H785   H     0.96037   0.07291   0.91552   0.00000  Uiso   1.00
H786   H     0.53963   0.26038   0.75109   0.00000  Uiso   1.00
H787   H     0.53996   0.07450   0.91814   0.00000  Uiso   1.00
H788   H     0.96004   0.25879   0.74848   0.00000  Uiso   1.00
C789   C     0.75004   0.01138   0.80901   0.00000  Uiso   1.00
C790   C     0.74996   0.32195   0.85766   0.00000  Uiso   1.00
N791   N     0.73744   0.15214   0.67951   0.00000  Uiso   1.00
N792   N     0.76255   0.18119   0.98716   0.00000  Uiso   1.00
N793   N     0.88190   0.23097   0.76777   0.00000  Uiso   1.00
O794   O     0.88074   0.22357   0.70797   0.00000  Uiso   1.00
O795   O     0.85951   0.26759   0.79896   0.00000  Uiso   1.00
N796   N     0.61810   0.10234   0.89889   0.00000  Uiso   1.00
O797   O     0.61924   0.10972   0.95868   0.00000  Uiso   1.00
O798   O     0.64054   0.06577   0.86771   0.00000  Uiso   1.00
N799   N     0.88254   0.09858   0.89260   0.00000  Uiso   1.00
O800   O     0.85506   0.06116   0.86038   0.00000  Uiso   1.00
O801   O     0.88640   0.10657   0.95253   0.00000  Uiso   1.00
N802   N     0.61746   0.23473   0.77405   0.00000  Uiso   1.00
O803   O     0.64490   0.27219   0.80627   0.00000  Uiso   1.00
O804   O     0.61363   0.22670   0.71411   0.00000  Uiso   1.00
N805   N     0.75267   0.31558   0.74672   0.00000  Uiso   1.00
O806   O     0.71623   0.29817   0.71181   0.00000  Uiso   1.00
O807   O     0.79075   0.31397   0.72240   0.00000  Uiso   1.00
N808   N     0.74733   0.01776   0.91994   0.00000  Uiso   1.00
O809   O     0.78377   0.03516   0.95486   0.00000  Uiso   1.00
O810   O     0.70926   0.01936   0.94427   0.00000  Uiso   1.00
H811   H     0.71446   0.12695   0.98286   0.00000  Uiso   1.00
H812   H     0.78554   0.20638   0.68381   0.00000  Uiso   1.00
O813   O     0.25325   0.42871   0.87326   0.00000  Uiso   1.00
O814   O     0.24674   0.57129   0.79341   0.00000  Uiso   1.00
O815   O     0.24480   0.41892   0.76945   0.00000  Uiso   1.00
O816   O     0.25520   0.58108   0.89721   0.00000  Uiso   1.00
C817   C     0.24880   0.40014   0.81791   0.00000  Uiso   1.00
C818   C     0.25120   0.59986   0.84876   0.00000  Uiso   1.00
O819   O     0.18935   0.50488   0.88524   0.00000  Uiso   1.00
O820   O     0.31064   0.49512   0.78143   0.00000  Uiso   1.00
O821   O     0.18090   0.49510   0.78143   0.00000  Uiso   1.00
O822   O     0.31910   0.50490   0.88523   0.00000  Uiso   1.00
C823   C     0.16458   0.50044   0.83430   0.00000  Uiso   1.00
C824   C     0.33542   0.49955   0.83236   0.00000  Uiso   1.00
Cu825  Cu    0.25500   0.50579   0.89479   0.00000  Uiso   1.00
Cu826  Cu    0.24499   0.49421   0.77187   0.00000  Uiso   1.00
C827   C     0.40624   0.53083   0.79891   0.00000  Uiso   1.00
C828   C     0.09376   0.46915   0.86774   0.00000  Uiso   1.00
C829   C     0.38352   0.49838   0.83052   0.00000  Uiso   1.00
C830   C     0.11648   0.50161   0.83615   0.00000  Uiso   1.00
C831   C     0.40667   0.46594   0.86235   0.00000  Uiso   1.00
C832   C     0.09333   0.53405   0.80431   0.00000  Uiso   1.00
C833   C     0.45328   0.46623   0.86315   0.00000  Uiso   1.00
C834   C     0.04672   0.53375   0.80350   0.00000  Uiso   1.00
C835   C     0.47651   0.49950   0.83252   0.00000  Uiso   1.00
C836   C     0.02348   0.50048   0.83414   0.00000  Uiso   1.00
C837   C     0.45296   0.53183   0.80035   0.00000  Uiso   1.00
C838   C     0.04704   0.46815   0.86630   0.00000  Uiso   1.00
C839   C     0.47711   0.43333   0.89321   0.00000  Uiso   1.00
C840   C     0.02289   0.56664   0.77342   0.00000  Uiso   1.00
C841   C     0.02325   0.43429   0.89480   0.00000  Uiso   1.00
C842   C     0.47675   0.56567   0.77184   0.00000  Uiso   1.00
H843   H     0.46037   0.40624   0.91552   0.00000  Uiso   1.00
H844   H     0.03963   0.59371   0.75109   0.00000  Uiso   1.00
H845   H     0.03996   0.40783   0.91814   0.00000  Uiso   1.00
H846   H     0.46004   0.59213   0.74848   0.00000  Uiso   1.00
C847   C     0.25004   0.34472   0.80901   0.00000  Uiso   1.00
C848   C     0.24996   0.65528   0.85766   0.00000  Uiso   1.00
N849   N     0.23744   0.48547   0.67951   0.00000  Uiso   1.00
N850   N     0.26255   0.51453   0.98716   0.00000  Uiso   1.00
N851   N     0.38190   0.56431   0.76777   0.00000  Uiso   1.00
O852   O     0.38074   0.55691   0.70797   0.00000  Uiso   1.00
O853   O     0.35951   0.60092   0.79896   0.00000  Uiso   1.00
N854   N     0.11810   0.43568   0.89889   0.00000  Uiso   1.00
O855   O     0.11924   0.44305   0.95868   0.00000  Uiso   1.00
O856   O     0.14054   0.39910   0.86771   0.00000  Uiso   1.00
N857   N     0.38254   0.43192   0.89260   0.00000  Uiso   1.00
O858   O     0.35506   0.39449   0.86038   0.00000  Uiso   1.00
O859   O     0.38640   0.43990   0.95253   0.00000  Uiso   1.00
N860   N     0.11746   0.56807   0.77405   0.00000  Uiso   1.00
O861   O     0.14490   0.60552   0.80627   0.00000  Uiso   1.00
O862   O     0.11363   0.56004   0.71411   0.00000  Uiso   1.00
N863   N     0.25267   0.64891   0.74672   0.00000  Uiso   1.00
O864   O     0.21623   0.63151   0.71181   0.00000  Uiso   1.00
O865   O     0.29075   0.64731   0.72240   0.00000  Uiso   1.00
N866   N     0.24733   0.35109   0.91994   0.00000  Uiso   1.00
O867   O     0.28377   0.36849   0.95486   0.00000  Uiso   1.00
O868   O     0.20926   0.35269   0.94427   0.00000  Uiso   1.00
H869   H     0.21446   0.46028   0.98286   0.00000  Uiso   1.00
H870   H     0.28554   0.53972   0.68381   0.00000  Uiso   1.00
O871   O     0.75325   0.42871   0.87326   0.00000  Uiso   1.00
O872   O     0.74674   0.57129   0.79341   0.00000  Uiso   1.00
O873   O     0.74480   0.41892   0.76945   0.00000  Uiso   1.00
O874   O     0.75520   0.58108   0.89721   0.00000  Uiso   1.00
C875   C     0.74880   0.40014   0.81791   0.00000  Uiso   1.00
C876   C     0.75120   0.59986   0.84876   0.00000  Uiso   1.00
O877   O     0.68935   0.50488   0.88524   0.00000  Uiso   1.00
O878   O     0.81064   0.49512   0.78143   0.00000  Uiso   1.00
O879   O     0.68090   0.49510   0.78143   0.00000  Uiso   1.00
O880   O     0.81910   0.50490   0.88523   0.00000  Uiso   1.00
C881   C     0.66458   0.50044   0.83430   0.00000  Uiso   1.00
C882   C     0.83542   0.49955   0.83236   0.00000  Uiso   1.00
Cu883  Cu    0.75500   0.50579   0.89479   0.00000  Uiso   1.00
Cu884  Cu    0.74499   0.49421   0.77187   0.00000  Uiso   1.00
C885   C     0.90624   0.53083   0.79891   0.00000  Uiso   1.00
C886   C     0.59376   0.46915   0.86774   0.00000  Uiso   1.00
C887   C     0.88352   0.49838   0.83052   0.00000  Uiso   1.00
C888   C     0.61648   0.50161   0.83615   0.00000  Uiso   1.00
C889   C     0.90667   0.46594   0.86235   0.00000  Uiso   1.00
C890   C     0.59333   0.53405   0.80431   0.00000  Uiso   1.00
C891   C     0.95328   0.46623   0.86315   0.00000  Uiso   1.00
C892   C     0.54672   0.53375   0.80350   0.00000  Uiso   1.00
C893   C     0.97651   0.49950   0.83252   0.00000  Uiso   1.00
C894   C     0.52348   0.50048   0.83414   0.00000  Uiso   1.00
C895   C     0.95296   0.53183   0.80035   0.00000  Uiso   1.00
C896   C     0.54704   0.46815   0.86630   0.00000  Uiso   1.00
C897   C     0.97711   0.43333   0.89321   0.00000  Uiso   1.00
C898   C     0.52289   0.56664   0.77342   0.00000  Uiso   1.00
C899   C     0.52325   0.43429   0.89480   0.00000  Uiso   1.00
C900   C     0.97675   0.56567   0.77184   0.00000  Uiso   1.00
H901   H     0.96037   0.40624   0.91552   0.00000  Uiso   1.00
H902   H     0.53963   0.59371   0.75109   0.00000  Uiso   1.00
H903   H     0.53996   0.40783   0.91814   0.00000  Uiso   1.00
H904   H     0.96004   0.59213   0.74848   0.00000  Uiso   1.00
C905   C     0.75004   0.34472   0.80901   0.00000  Uiso   1.00
C906   C     0.74996   0.65528   0.85766   0.00000  Uiso   1.00
N907   N     0.73744   0.48547   0.67951   0.00000  Uiso   1.00
N908   N     0.76255   0.51453   0.98716   0.00000  Uiso   1.00
N909   N     0.88190   0.56431   0.76777   0.00000  Uiso   1.00
O910   O     0.88074   0.55691   0.70797   0.00000  Uiso   1.00
O911   O     0.85951   0.60092   0.79896   0.00000  Uiso   1.00
N912   N     0.61810   0.43568   0.89889   0.00000  Uiso   1.00
O913   O     0.61924   0.44305   0.95868   0.00000  Uiso   1.00
O914   O     0.64054   0.39910   0.86771   0.00000  Uiso   1.00
N915   N     0.88254   0.43192   0.89260   0.00000  Uiso   1.00
O916   O     0.85506   0.39449   0.86038   0.00000  Uiso   1.00
O917   O     0.88640   0.43990   0.95253   0.00000  Uiso   1.00
N918   N     0.61746   0.56807   0.77405   0.00000  Uiso   1.00
O919   O     0.64490   0.60552   0.80627   0.00000  Uiso   1.00
O920   O     0.61363   0.56004   0.71411   0.00000  Uiso   1.00
N921   N     0.75267   0.64891   0.74672   0.00000  Uiso   1.00
O922   O     0.71623   0.63151   0.71181   0.00000  Uiso   1.00
O923   O     0.79075   0.64731   0.72240   0.00000  Uiso   1.00
N924   N     0.74733   0.35109   0.91994   0.00000  Uiso   1.00
O925   O     0.78377   0.36849   0.95486   0.00000  Uiso   1.00
O926   O     0.70926   0.35269   0.94427   0.00000  Uiso   1.00
H927   H     0.71446   0.46028   0.98286   0.00000  Uiso   1.00
H928   H     0.78554   0.53972   0.68381   0.00000  Uiso   1.00
O929   O     0.25325   0.76204   0.87326   0.00000  Uiso   1.00
O930   O     0.24674   0.90462   0.79341   0.00000  Uiso   1.00
O931   O     0.24480   0.75226   0.76945   0.00000  Uiso   1.00
O932   O     0.25520   0.91441   0.89721   0.00000  Uiso   1.00
C933   C     0.24880   0.73347   0.81791   0.00000  Uiso   1.00
C934   C     0.25120   0.93320   0.84876   0.00000  Uiso   1.00
O935   O     0.18935   0.83821   0.88524   0.00000  Uiso   1.00
O936   O     0.31064   0.82845   0.78143   0.00000  Uiso   1.00
O937   O     0.18090   0.82843   0.78143   0.00000  Uiso   1.00
O938   O     0.31910   0.83824   0.88523   0.00000  Uiso   1.00
C939   C     0.16458   0.83378   0.83430   0.00000  Uiso   1.00
C940   C     0.33542   0.83289   0.83236   0.00000  Uiso   1.00
Cu941  Cu    0.25500   0.83913   0.89479   0.00000  Uiso   1.00
Cu942  Cu    0.24499   0.82754   0.77187   0.00000  Uiso   1.00
C943   C     0.40624   0.86416   0.79891   0.00000  Uiso   1.00
C944   C     0.09376   0.80249   0.86774   0.00000  Uiso   1.00
C945   C     0.38352   0.83171   0.83052   0.00000  Uiso   1.00
C946   C     0.11648   0.83495   0.83615   0.00000  Uiso   1.00
C947   C     0.40667   0.79927   0.86235   0.00000  Uiso   1.00
C948   C     0.09333   0.86738   0.80431   0.00000  Uiso   1.00
C949   C     0.45328   0.79956   0.86315   0.00000  Uiso   1.00
C950   C     0.04672   0.86708   0.80350   0.00000  Uiso   1.00
C951   C     0.47651   0.83283   0.83252   0.00000  Uiso   1.00
C952   C     0.02348   0.83382   0.83414   0.00000  Uiso   1.00
C953   C     0.45296   0.86516   0.80035   0.00000  Uiso   1.00
C954   C     0.04704   0.80148   0.86630   0.00000  Uiso   1.00
C955   C     0.47711   0.76666   0.89321   0.00000  Uiso   1.00
C956   C     0.02289   0.89997   0.77342   0.00000  Uiso   1.00
C957   C     0.02325   0.76763   0.89480   0.00000  Uiso   1.00
C958   C     0.47675   0.89901   0.77184   0.00000  Uiso   1.00
H959   H     0.46037   0.73957   0.91552   0.00000  Uiso   1.00
H960   H     0.03963   0.92705   0.75109   0.00000  Uiso   1.00
H961   H     0.03996   0.74116   0.91814   0.00000  Uiso   1.00
H962   H     0.46004   0.92546   0.74848   0.00000  Uiso   1.00
C963   C     0.25004   0.67805   0.80901   0.00000  Uiso   1.00
C964   C     0.24996   0.98862   0.85766   0.00000  Uiso   1.00
N965   N     0.23744   0.81881   0.67951   0.00000  Uiso   1.00
N966   N     0.26255   0.84786   0.98716   0.00000  Uiso   1.00
N967   N     0.38190   0.89764   0.76777   0.00000  Uiso   1.00
O968   O     0.38074   0.89024   0.70797   0.00000  Uiso   1.00
O969   O     0.35951   0.93425   0.79896   0.00000  Uiso   1.00
N970   N     0.11810   0.76901   0.89889   0.00000  Uiso   1.00
O971   O     0.11924   0.77639   0.95868   0.00000  Uiso   1.00
O972   O     0.14054   0.73244   0.86771   0.00000  Uiso   1.00
N973   N     0.38254   0.76525   0.89260   0.00000  Uiso   1.00
O974   O     0.35506   0.72782   0.86038   0.00000  Uiso   1.00
O975   O     0.38640   0.77323   0.95253   0.00000  Uiso   1.00
N976   N     0.11746   0.90140   0.77405   0.00000  Uiso   1.00
O977   O     0.14490   0.93886   0.80627   0.00000  Uiso   1.00
O978   O     0.11363   0.89337   0.71411   0.00000  Uiso   1.00
N979   N     0.25267   0.98224   0.74672   0.00000  Uiso   1.00
O980   O     0.21623   0.96484   0.71181   0.00000  Uiso   1.00
O981   O     0.29075   0.98064   0.72240   0.00000  Uiso   1.00
N982   N     0.24733   0.68442   0.91994   0.00000  Uiso   1.00
O983   O     0.28377   0.70183   0.95486   0.00000  Uiso   1.00
O984   O     0.20926   0.68602   0.94427   0.00000  Uiso   1.00
H985   H     0.21446   0.79362   0.98286   0.00000  Uiso   1.00
H986   H     0.28554   0.87305   0.68381   0.00000  Uiso   1.00
O987   O     0.75325   0.76204   0.87326   0.00000  Uiso   1.00
O988   O     0.74674   0.90462   0.79341   0.00000  Uiso   1.00
O989   O     0.74480   0.75226   0.76945   0.00000  Uiso   1.00
O990   O     0.75520   0.91441   0.89721   0.00000  Uiso   1.00
C991   C     0.74880   0.73347   0.81791   0.00000  Uiso   1.00
C992   C     0.75120   0.93320   0.84876   0.00000  Uiso   1.00
O993   O     0.68935   0.83821   0.88524   0.00000  Uiso   1.00
O994   O     0.81064   0.82845   0.78143   0.00000  Uiso   1.00
O995   O     0.68090   0.82843   0.78143   0.00000  Uiso   1.00
O996   O     0.81910   0.83824   0.88523   0.00000  Uiso   1.00
C997   C     0.66458   0.83378   0.83430   0.00000  Uiso   1.00
C998   C     0.83542   0.83289   0.83236   0.00000  Uiso   1.00
Cu999  Cu    0.75500   0.83913   0.89479   0.00000  Uiso   1.00
Cu1000 Cu    0.74499   0.82754   0.77187   0.00000  Uiso   1.00
C1001  C     0.90624   0.86416   0.79891   0.00000  Uiso   1.00
C1002  C     0.59376   0.80249   0.86774   0.00000  Uiso   1.00
C1003  C     0.88352   0.83171   0.83052   0.00000  Uiso   1.00
C1004  C     0.61648   0.83495   0.83615   0.00000  Uiso   1.00
C1005  C     0.90667   0.79927   0.86235   0.00000  Uiso   1.00
C1006  C     0.59333   0.86738   0.80431   0.00000  Uiso   1.00
C1007  C     0.95328   0.79956   0.86315   0.00000  Uiso   1.00
C1008  C     0.54672   0.86708   0.80350   0.00000  Uiso   1.00
C1009  C     0.97651   0.83283   0.83252   0.00000  Uiso   1.00
C1010  C     0.52348   0.83382   0.83414   0.00000  Uiso   1.00
C1011  C     0.95296   0.86516   0.80035   0.00000  Uiso   1.00
C1012  C     0.54704   0.80148   0.86630   0.00000  Uiso   1.00
C1013  C     0.97711   0.76666   0.89321   0.00000  Uiso   1.00
C1014  C     0.52289   0.89997   0.77342   0.00000  Uiso   1.00
C1015  C     0.52325   0.76763   0.89480   0.00000  Uiso   1.00
C1016  C     0.97675   0.89901   0.77184   0.00000  Uiso   1.00
H1017  H     0.96037   0.73957   0.91552   0.00000  Uiso   1.00
H1018  H     0.53963   0.92705   0.75109   0.00000  Uiso   1.00
H1019  H     0.53996   0.74116   0.91814   0.00000  Uiso   1.00
H1020  H     0.96004   0.92546   0.74848   0.00000  Uiso   1.00
C1021  C     0.75004   0.67805   0.80901   0.00000  Uiso   1.00
C1022  C     0.74996   0.98862   0.85766   0.00000  Uiso   1.00
N1023  N     0.73744   0.81881   0.67951   0.00000  Uiso   1.00
N1024  N     0.76255   0.84786   0.98716   0.00000  Uiso   1.00
N1025  N     0.88190   0.89764   0.76777   0.00000  Uiso   1.00
O1026  O     0.88074   0.89024   0.70797   0.00000  Uiso   1.00
O1027  O     0.85951   0.93425   0.79896   0.00000  Uiso   1.00
N1028  N     0.61810   0.76901   0.89889   0.00000  Uiso   1.00
O1029  O     0.61924   0.77639   0.95868   0.00000  Uiso   1.00
O1030  O     0.64054   0.73244   0.86771   0.00000  Uiso   1.00
N1031  N     0.88254   0.76525   0.89260   0.00000  Uiso   1.00
O1032  O     0.85506   0.72782   0.86038   0.00000  Uiso   1.00
O1033  O     0.88640   0.77323   0.95253   0.00000  Uiso   1.00
N1034  N     0.61746   0.90140   0.77405   0.00000  Uiso   1.00
O1035  O     0.64490   0.93886   0.80627   0.00000  Uiso   1.00
O1036  O     0.61363   0.89337   0.71411   0.00000  Uiso   1.00
N1037  N     0.75267   0.98224   0.74672   0.00000  Uiso   1.00
O1038  O     0.71623   0.96484   0.71181   0.00000  Uiso   1.00
O1039  O     0.79075   0.98064   0.72240   0.00000  Uiso   1.00
N1040  N     0.74733   0.68442   0.91994   0.00000  Uiso   1.00
O1041  O     0.78377   0.70183   0.95486   0.00000  Uiso   1.00
O1042  O     0.70926   0.68602   0.94427   0.00000  Uiso   1.00
H1043  H     0.71446   0.79362   0.98286   0.00000  Uiso   1.00
H1044  H     0.78554   0.87305   0.68381   0.00000  Uiso   1.00
loop_
_geom_bond_atom_site_label_1
_geom_bond_atom_site_label_2
_geom_bond_distance
_geom_bond_site_symmetry_2
_ccdc_geom_bond_type
O1     C5      1.287   .     A
O1     Cu13    1.975   .     S
O2     Cu14    1.975   .     S
O2     C6      1.287   .     A
O3     Cu14    1.971   .     S
O3     C5      1.287   .     A
O4     C6      1.287   .     A
O4     Cu13    1.971   .     S
C5     C35     1.430   .     S
C6     C36     1.430   .     S
O7     Cu13    1.972   .     S
O7     C11     1.294   .     A
O8     C12     1.294   .     A
O8     Cu14    1.972   .     S
O9     Cu14    1.957   .     S
O9     C11     1.290   .     A
O10    C12     1.290   .     A
O10    Cu13    1.957   .     S
C11    C18     1.453   .     S
C12    C17     1.453   .     S
Cu13   Cu14    2.683   .     S
Cu13   N38     2.016   .     S
Cu14   N37     2.016   .     S
C15    N39     1.437   .     S
C15    C25     1.404   .     A
C15    C17     1.406   .     A
C16    N42     1.437   .     S
C16    C18     1.406   .     A
C16    C26     1.404   .     A
C17    C19     1.408   .     A
C18    C20     1.408   .     A
C19    N45     1.437   .     S
C19    C21     1.402   .     A
C20    N48     1.437   .     S
C20    C22     1.402   .     A
C21    C27     1.404   .     A
C21    C23     1.415   .     A
C22    C28     1.404   .     A
C22    C24     1.415   .     A
C23    C25     1.416   .     A
C23    C82     1.411   .     S
C24    C26     1.416   .     A
C24    C81     1.411   1_455 S
C25    C30     1.403   .     A
C26    C29     1.403   .     A
C27    H31     1.082   .     S
C27    C87     1.386   .     S
C28    H32     1.082   .     S
C28    C88     1.386   1_455 S
C29    H33     1.082   .     S
C29    C85     1.386   1_455 S
C30    H34     1.082   .     S
C30    C86     1.386   .     S
C35    C268    1.353   1_545 S
C35    N283    1.437   1_545 S
C36    C151    1.353   .     S
C36    N170    1.437   .     S
N37    N734    1.299   1_554 S
N37    H753    1.029   1_554 S
N38    N385    1.299   .     S
N38    H406    1.028   .     S
N39    O41     1.301   .     A
N39    O40     1.301   .     A
N42    O44     1.301   .     A
N42    O43     1.301   .     A
N45    O47     1.301   .     A
N45    O46     1.301   .     A
N48    O50     1.301   .     A
N48    O49     1.301   .     A
N51    O53     1.300   .     A
N51    O52     1.301   .     A
N51    C151    1.437   .     S
N54    O56     1.300   .     A
N54    O55     1.301   .     A
N54    C268    1.437   1_545 S
H57    N385    1.029   .     S
H58    N734    1.028   1_554 S
O59    C63     1.287   .     A
O59    Cu71    1.975   .     S
O60    Cu72    1.975   .     S
O60    C64     1.287   .     A
O61    Cu72    1.971   .     S
O61    C63     1.287   .     A
O62    C64     1.287   .     A
O62    Cu71    1.971   .     S
C63    C93     1.430   .     S
C64    C94     1.430   .     S
O65    Cu71    1.972   .     S
O65    C69     1.294   .     A
O66    C70     1.294   .     A
O66    Cu72    1.972   .     S
O67    Cu72    1.957   .     S
O67    C69     1.290   .     A
O68    C70     1.290   .     A
O68    Cu71    1.957   .     S
C69    C76     1.453   .     S
C70    C75     1.453   .     S
Cu71   Cu72    2.683   .     S
Cu71   N96     2.016   .     S
Cu72   N95     2.016   .     S
C73    N97     1.437   .     S
C73    C83     1.404   .     A
C73    C75     1.406   .     A
C74    N100    1.437   .     S
C74    C76     1.406   .     A
C74    C84     1.404   .     A
C75    C77     1.408   .     A
C76    C78     1.408   .     A
C77    N103    1.437   .     S
C77    C79     1.402   .     A
C78    N106    1.437   .     S
C78    C80     1.402   .     A
C79    C85     1.404   .     A
C79    C81     1.415   .     A
C80    C86     1.404   .     A
C80    C82     1.415   .     A
C81    C83     1.416   .     A
C81    C24     1.411   1_655 S
C82    C84     1.416   .     A
C83    C88     1.403   .     A
C84    C87     1.403   .     A
C85    H89     1.082   .     S
C85    C29     1.386   1_655 S
C86    H90     1.082   .     S
C87    H91     1.082   .     S
C88    H92     1.082   .     S
C88    C28     1.386   1_655 S
C93    C326    1.353   1_545 S
C93    N341    1.437   1_545 S
C94    C209    1.353   .     S
C94    N228    1.437   .     S
N95    N792    1.299   1_554 S
N95    H811    1.029   1_554 S
N96    N443    1.299   .     S
N96    H464    1.028   .     S
N97    O99     1.301   .     A
N97    O98     1.301   .     A
N100   O102    1.301   .     A
N100   O101    1.301   .     A
N103   O105    1.301   .     A
N103   O104    1.301   .     A
N106   O108    1.301   .     A
N106   O107    1.301   .     A
N109   O111    1.300   .     A
N109   O110    1.301   .     A
N109   C209    1.437   .     S
N112   O114    1.300   .     A
N112   O113    1.301   .     A
N112   C326    1.437   1_545 S
H115   N443    1.029   .     S
H116   N792    1.028   1_554 S
O117   C121    1.287   .     A
O117   Cu129   1.975   .     S
O118   Cu130   1.975   .     S
O118   C122    1.287   .     A
O119   Cu130   1.971   .     S
O119   C121    1.287   .     A
O120   C122    1.287   .     A
O120   Cu129   1.971   .     S
C121   C151    1.430   .     S
C122   C152    1.430   .     S
O123   Cu129   1.972   .     S
O123   C127    1.294   .     A
O124   C128    1.294   .     A
O124   Cu130   1.972   .     S
O125   Cu130   1.957   .     S
O125   C127    1.290   .     A
O126   C128    1.290   .     A
O126   Cu129   1.957   .     S
C127   C134    1.453   .     S
C128   C133    1.453   .     S
Cu129  Cu130   2.683   .     S
Cu129  N154    2.016   .     S
Cu130  N153    2.016   .     S
C131   N155    1.437   .     S
C131   C141    1.404   .     A
C131   C133    1.406   .     A
C132   N158    1.437   .     S
C132   C134    1.406   .     A
C132   C142    1.404   .     A
C133   C135    1.408   .     A
C134   C136    1.408   .     A
C135   N161    1.437   .     S
C135   C137    1.402   .     A
C136   N164    1.437   .     S
C136   C138    1.402   .     A
C137   C143    1.404   .     A
C137   C139    1.415   .     A
C138   C144    1.404   .     A
C138   C140    1.415   .     A
C139   C141    1.416   .     A
C139   C198    1.411   .     S
C140   C142    1.416   .     A
C140   C197    1.411   1_455 S
C141   C146    1.403   .     A
C142   C145    1.403   .     A
C143   H147    1.082   .     S
C143   C203    1.386   .     S
C144   H148    1.082   .     S
C144   C204    1.386   1_455 S
C145   H149    1.082   .     S
C145   C201    1.386   1_455 S
C146   H150    1.082   .     S
C146   C202    1.386   .     S
C152   C267    1.353   .     S
C152   N286    1.437   .     S
N153   N850    1.299   1_554 S
N153   H869    1.029   1_554 S
N154   N501    1.299   .     S
N154   H522    1.028   .     S
N155   O157    1.301   .     A
N155   O156    1.301   .     A
N158   O160    1.301   .     A
N158   O159    1.301   .     A
N161   O163    1.301   .     A
N161   O162    1.301   .     A
N164   O166    1.301   .     A
N164   O165    1.301   .     A
N167   O169    1.300   .     A
N167   O168    1.301   .     A
N167   C267    1.437   .     S
N170   O172    1.300   .     A
N170   O171    1.301   .     A
H173   N501    1.029   .     S
H174   N850    1.028   1_554 S
O175   C179    1.287   .     A
O175   Cu187   1.975   .     S
O176   Cu188   1.975   .     S
O176   C180    1.287   .     A
O177   Cu188   1.971   .     S
O177   C179    1.287   .     A
O178   C180    1.287   .     A
O178   Cu187   1.971   .     S
C179   C209    1.430   .     S
C180   C210    1.430   .     S
O181   Cu187   1.972   .     S
O181   C185    1.294   .     A
O182   C186    1.294   .     A
O182   Cu188   1.972   .     S
O183   Cu188   1.957   .     S
O183   C185    1.290   .     A
O184   C186    1.290   .     A
O184   Cu187   1.957   .     S
C185   C192    1.453   .     S
C186   C191    1.453   .     S
Cu187  Cu188   2.683   .     S
Cu187  N212    2.016   .     S
Cu188  N211    2.016   .     S
C189   N213    1.437   .     S
C189   C199    1.404   .     A
C189   C191    1.406   .     A
C190   N216    1.437   .     S
C190   C192    1.406   .     A
C190   C200    1.404   .     A
C191   C193    1.408   .     A
C192   C194    1.408   .     A
C193   N219    1.437   .     S
C193   C195    1.402   .     A
C194   N222    1.437   .     S
C194   C196    1.402   .     A
C195   C201    1.404   .     A
C195   C197    1.415   .     A
C196   C202    1.404   .     A
C196   C198    1.415   .     A
C197   C199    1.416   .     A
C197   C140    1.411   1_655 S
C198   C200    1.416   .     A
C199   C204    1.403   .     A
C200   C203    1.403   .     A
C201   H205    1.082   .     S
C201   C145    1.386   1_655 S
C202   H206    1.082   .     S
C203   H207    1.082   .     S
C204   H208    1.082   .     S
C204   C144    1.386   1_655 S
C210   C325    1.353   .     S
C210   N344    1.437   .     S
N211   N908    1.299   1_554 S
N211   H927    1.029   1_554 S
N212   N559    1.299   .     S
N212   H580    1.028   .     S
N213   O215    1.301   .     A
N213   O214    1.301   .     A
N216   O218    1.301   .     A
N216   O217    1.301   .     A
N219   O221    1.301   .     A
N219   O220    1.301   .     A
N222   O224    1.301   .     A
N222   O223    1.301   .     A
N225   O227    1.300   .     A
N225   O226    1.301   .     A
N225   C325    1.437   .     S
N228   O230    1.300   .     A
N228   O229    1.301   .     A
H231   N559    1.029   .     S
H232   N908    1.028   1_554 S
O233   C237    1.287   .     A
O233   Cu245   1.975   .     S
O234   Cu246   1.975   .     S
O234   C238    1.287   .     A
O235   Cu246   1.971   .     S
O235   C237    1.287   .     A
O236   C238    1.287   .     A
O236   Cu245   1.971   .     S
C237   C267    1.430   .     S
C238   C268    1.430   .     S
O239   Cu245   1.972   .     S
O239   C243    1.294   .     A
O240   C244    1.294   .     A
O240   Cu246   1.972   .     S
O241   Cu246   1.957   .     S
O241   C243    1.290   .     A
O242   C244    1.290   .     A
O242   Cu245   1.957   .     S
C243   C250    1.453   .     S
C244   C249    1.453   .     S
Cu245  Cu246   2.683   .     S
Cu245  N270    2.016   .     S
Cu246  N269    2.016   .     S
C247   N271    1.437   .     S
C247   C257    1.404   .     A
C247   C249    1.406   .     A
C248   N274    1.437   .     S
C248   C250    1.406   .     A
C248   C258    1.404   .     A
C249   C251    1.408   .     A
C250   C252    1.408   .     A
C251   N277    1.437   .     S
C251   C253    1.402   .     A
C252   N280    1.437   .     S
C252   C254    1.402   .     A
C253   C259    1.404   .     A
C253   C255    1.415   .     A
C254   C260    1.404   .     A
C254   C256    1.415   .     A
C255   C257    1.416   .     A
C255   C314    1.411   .     S
C256   C258    1.416   .     A
C256   C313    1.411   1_455 S
C257   C262    1.403   .     A
C258   C261    1.403   .     A
C259   H263    1.082   .     S
C259   C319    1.386   .     S
C260   H264    1.082   .     S
C260   C320    1.386   1_455 S
C261   H265    1.082   .     S
C261   C317    1.386   1_455 S
C262   H266    1.082   .     S
C262   C318    1.386   .     S
C268   C35     1.353   1_565 S
C268   N54     1.437   1_565 S
N269   N966    1.299   1_554 S
N269   H985    1.029   1_554 S
N270   N617    1.299   .     S
N270   H638    1.028   .     S
N271   O273    1.301   .     A
N271   O272    1.301   .     A
N274   O276    1.301   .     A
N274   O275    1.301   .     A
N277   O279    1.301   .     A
N277   O278    1.301   .     A
N280   O282    1.301   .     A
N280   O281    1.301   .     A
N283   O285    1.300   .     A
N283   O284    1.301   .     A
N283   C35     1.437   1_565 S
N286   O288    1.300   .     A
N286   O287    1.301   .     A
H289   N617    1.029   .     S
H290   N966    1.028   1_554 S
O291   C295    1.287   .     A
O291   Cu303   1.975   .     S
O292   Cu304   1.975   .     S
O292   C296    1.287   .     A
O293   Cu304   1.971   .     S
O293   C295    1.287   .     A
O294   C296    1.287   .     A
O294   Cu303   1.971   .     S
C295   C325    1.430   .     S
C296   C326    1.430   .     S
O297   Cu303   1.972   .     S
O297   C301    1.294   .     A
O298   C302    1.294   .     A
O298   Cu304   1.972   .     S
O299   Cu304   1.957   .     S
O299   C301    1.290   .     A
O300   C302    1.290   .     A
O300   Cu303   1.957   .     S
C301   C308    1.453   .     S
C302   C307    1.453   .     S
Cu303  Cu304   2.683   .     S
Cu303  N328    2.016   .     S
Cu304  N327    2.016   .     S
C305   N329    1.437   .     S
C305   C315    1.404   .     A
C305   C307    1.406   .     A
C306   N332    1.437   .     S
C306   C308    1.406   .     A
C306   C316    1.404   .     A
C307   C309    1.408   .     A
C308   C310    1.408   .     A
C309   N335    1.437   .     S
C309   C311    1.402   .     A
C310   N338    1.437   .     S
C310   C312    1.402   .     A
C311   C317    1.404   .     A
C311   C313    1.415   .     A
C312   C318    1.404   .     A
C312   C314    1.415   .     A
C313   C315    1.416   .     A
C313   C256    1.411   1_655 S
C314   C316    1.416   .     A
C315   C320    1.403   .     A
C316   C319    1.403   .     A
C317   H321    1.082   .     S
C317   C261    1.386   1_655 S
C318   H322    1.082   .     S
C319   H323    1.082   .     S
C320   H324    1.082   .     S
C320   C260    1.386   1_655 S
C326   C93     1.353   1_565 S
C326   N112    1.437   1_565 S
N327   N1024   1.299   1_554 S
N327   H1043   1.029   1_554 S
N328   N675    1.299   .     S
N328   H696    1.028   .     S
N329   O331    1.301   .     A
N329   O330    1.301   .     A
N332   O334    1.301   .     A
N332   O333    1.301   .     A
N335   O337    1.301   .     A
N335   O336    1.301   .     A
N338   O340    1.301   .     A
N338   O339    1.301   .     A
N341   O343    1.300   .     A
N341   O342    1.301   .     A
N341   C93     1.437   1_565 S
N344   O346    1.300   .     A
N344   O345    1.301   .     A
H347   N675    1.029   .     S
H348   N1024   1.028   1_554 S
O349   C353    1.287   .     A
O349   Cu361   1.975   .     S
O350   Cu362   1.975   .     S
O350   C354    1.287   .     A
O351   Cu362   1.971   .     S
O351   C353    1.287   .     A
O352   C354    1.287   .     A
O352   Cu361   1.971   .     S
C353   C383    1.430   .     S
C354   C384    1.430   .     S
O355   Cu361   1.972   .     S
O355   C359    1.294   .     A
O356   C360    1.294   .     A
O356   Cu362   1.972   .     S
O357   Cu362   1.957   .     S
O357   C359    1.290   .     A
O358   C360    1.290   .     A
O358   Cu361   1.957   .     S
C359   C366    1.453   .     S
C360   C365    1.453   .     S
Cu361  Cu362   2.683   .     S
Cu361  N386    2.016   .     S
Cu362  N385    2.016   .     S
C363   N387    1.437   .     S
C363   C373    1.404   .     A
C363   C365    1.406   .     A
C364   N390    1.437   .     S
C364   C366    1.406   .     A
C364   C374    1.404   .     A
C365   C367    1.408   .     A
C366   C368    1.408   .     A
C367   N393    1.437   .     S
C367   C369    1.402   .     A
C368   N396    1.437   .     S
C368   C370    1.402   .     A
C369   C375    1.404   .     A
C369   C371    1.415   .     A
C370   C376    1.404   .     A
C370   C372    1.415   .     A
C371   C373    1.416   .     A
C371   C430    1.411   .     S
C372   C374    1.416   .     A
C372   C429    1.411   1_455 S
C373   C378    1.403   .     A
C374   C377    1.403   .     A
C375   H379    1.082   .     S
C375   C435    1.386   .     S
C376   H380    1.082   .     S
C376   C436    1.386   1_455 S
C377   H381    1.082   .     S
C377   C433    1.386   1_455 S
C378   H382    1.082   .     S
C378   C434    1.386   .     S
C383   C616    1.353   1_545 S
C383   N631    1.437   1_545 S
C384   C499    1.353   .     S
C384   N518    1.437   .     S
N386   N733    1.299   .     S
N386   H754    1.028   .     S
N387   O389    1.301   .     A
N387   O388    1.301   .     A
N390   O392    1.301   .     A
N390   O391    1.301   .     A
N393   O395    1.301   .     A
N393   O394    1.301   .     A
N396   O398    1.301   .     A
N396   O397    1.301   .     A
N399   O401    1.300   .     A
N399   O400    1.301   .     A
N399   C499    1.437   .     S
N402   O404    1.300   .     A
N402   O403    1.301   .     A
N402   C616    1.437   1_545 S
H405   N733    1.029   .     S
O407   C411    1.287   .     A
O407   Cu419   1.975   .     S
O408   Cu420   1.975   .     S
O408   C412    1.287   .     A
O409   Cu420   1.971   .     S
O409   C411    1.287   .     A
O410   C412    1.287   .     A
O410   Cu419   1.971   .     S
C411   C441    1.430   .     S
C412   C442    1.430   .     S
O413   Cu419   1.972   .     S
O413   C417    1.294   .     A
O414   C418    1.294   .     A
O414   Cu420   1.972   .     S
O415   Cu420   1.957   .     S
O415   C417    1.290   .     A
O416   C418    1.290   .     A
O416   Cu419   1.957   .     S
C417   C424    1.453   .     S
C418   C423    1.453   .     S
Cu419  Cu420   2.683   .     S
Cu419  N444    2.016   .     S
Cu420  N443    2.016   .     S
C421   N445    1.437   .     S
C421   C431    1.404   .     A
C421   C423    1.406   .     A
C422   N448    1.437   .     S
C422   C424    1.406   .     A
C422   C432    1.404   .     A
C423   C425    1.408   .     A
C424   C426    1.408   .     A
C425   N451    1.437   .     S
C425   C427    1.402   .     A
C426   N454    1.437   .     S
C426   C428    1.402   .     A
C427   C433    1.404   .     A
C427   C429    1.415   .     A
C428   C434    1.404   .     A
C428   C430    1.415   .     A
C429   C431    1.416   .     A
C429   C372    1.411   1_655 S
C430   C432    1.416   .     A
C431   C436    1.403   .     A
C432   C435    1.403   .     A
C433   H437    1.082   .     S
C433   C377    1.386   1_655 S
C434   H438    1.082   .     S
C435   H439    1.082   .     S
C436   H440    1.082   .     S
C436   C376    1.386   1_655 S
C441   C674    1.353   1_545 S
C441   N689    1.437   1_545 S
C442   C557    1.353   .     S
C442   N576    1.437   .     S
N444   N791    1.299   .     S
N444   H812    1.028   .     S
N445   O447    1.301   .     A
N445   O446    1.301   .     A
N448   O450    1.301   .     A
N448   O449    1.301   .     A
N451   O453    1.301   .     A
N451   O452    1.301   .     A
N454   O456    1.301   .     A
N454   O455    1.301   .     A
N457   O459    1.300   .     A
N457   O458    1.301   .     A
N457   C557    1.437   .     S
N460   O462    1.300   .     A
N460   O461    1.301   .     A
N460   C674    1.437   1_545 S
H463   N791    1.029   .     S
O465   C469    1.287   .     A
O465   Cu477   1.975   .     S
O466   Cu478   1.975   .     S
O466   C470    1.287   .     A
O467   Cu478   1.971   .     S
O467   C469    1.287   .     A
O468   C470    1.287   .     A
O468   Cu477   1.971   .     S
C469   C499    1.430   .     S
C470   C500    1.430   .     S
O471   Cu477   1.972   .     S
O471   C475    1.294   .     A
O472   C476    1.294   .     A
O472   Cu478   1.972   .     S
O473   Cu478   1.957   .     S
O473   C475    1.290   .     A
O474   C476    1.290   .     A
O474   Cu477   1.957   .     S
C475   C482    1.453   .     S
C476   C481    1.453   .     S
Cu477  Cu478   2.683   .     S
Cu477  N502    2.016   .     S
Cu478  N501    2.016   .     S
C479   N503    1.437   .     S
C479   C489    1.404   .     A
C479   C481    1.406   .     A
C480   N506    1.437   .     S
C480   C482    1.406   .     A
C480   C490    1.404   .     A
C481   C483    1.408   .     A
C482   C484    1.408   .     A
C483   N509    1.437   .     S
C483   C485    1.402   .     A
C484   N512    1.437   .     S
C484   C486    1.402   .     A
C485   C491    1.404   .     A
C485   C487    1.415   .     A
C486   C492    1.404   .     A
C486   C488    1.415   .     A
C487   C489    1.416   .     A
C487   C546    1.411   .     S
C488   C490    1.416   .     A
C488   C545    1.411   1_455 S
C489   C494    1.403   .     A
C490   C493    1.403   .     A
C491   H495    1.082   .     S
C491   C551    1.386   .     S
C492   H496    1.082   .     S
C492   C552    1.386   1_455 S
C493   H497    1.082   .     S
C493   C549    1.386   1_455 S
C494   H498    1.082   .     S
C494   C550    1.386   .     S
C500   C615    1.353   .     S
C500   N634    1.437   .     S
N502   N849    1.299   .     S
N502   H870    1.028   .     S
N503   O505    1.301   .     A
N503   O504    1.301   .     A
N506   O508    1.301   .     A
N506   O507    1.301   .     A
N509   O511    1.301   .     A
N509   O510    1.301   .     A
N512   O514    1.301   .     A
N512   O513    1.301   .     A
N515   O517    1.300   .     A
N515   O516    1.301   .     A
N515   C615    1.437   .     S
N518   O520    1.300   .     A
N518   O519    1.301   .     A
H521   N849    1.029   .     S
O523   C527    1.287   .     A
O523   Cu535   1.975   .     S
O524   Cu536   1.975   .     S
O524   C528    1.287   .     A
O525   Cu536   1.971   .     S
O525   C527    1.287   .     A
O526   C528    1.287   .     A
O526   Cu535   1.971   .     S
C527   C557    1.430   .     S
C528   C558    1.430   .     S
O529   Cu535   1.972   .     S
O529   C533    1.294   .     A
O530   C534    1.294   .     A
O530   Cu536   1.972   .     S
O531   Cu536   1.957   .     S
O531   C533    1.290   .     A
O532   C534    1.290   .     A
O532   Cu535   1.957   .     S
C533   C540    1.453   .     S
C534   C539    1.453   .     S
Cu535  Cu536   2.683   .     S
Cu535  N560    2.016   .     S
Cu536  N559    2.016   .     S
C537   N561    1.437   .     S
C537   C547    1.404   .     A
C537   C539    1.406   .     A
C538   N564    1.437   .     S
C538   C540    1.406   .     A
C538   C548    1.404   .     A
C539   C541    1.408   .     A
C540   C542    1.408   .     A
C541   N567    1.437   .     S
C541   C543    1.402   .     A
C542   N570    1.437   .     S
C542   C544    1.402   .     A
C543   C549    1.404   .     A
C543   C545    1.415   .     A
C544   C550    1.404   .     A
C544   C546    1.415   .     A
C545   C547    1.416   .     A
C545   C488    1.411   1_655 S
C546   C548    1.416   .     A
C547   C552    1.403   .     A
C548   C551    1.403   .     A
C549   H553    1.082   .     S
C549   C493    1.386   1_655 S
C550   H554    1.082   .     S
C551   H555    1.082   .     S
C552   H556    1.082   .     S
C552   C492    1.386   1_655 S
C558   C673    1.353   .     S
C558   N692    1.437   .     S
N560   N907    1.299   .     S
N560   H928    1.028   .     S
N561   O563    1.301   .     A
N561   O562    1.301   .     A
N564   O566    1.301   .     A
N564   O565    1.301   .     A
N567   O569    1.301   .     A
N567   O568    1.301   .     A
N570   O572    1.301   .     A
N570   O571    1.301   .     A
N573   O575    1.300   .     A
N573   O574    1.301   .     A
N573   C673    1.437   .     S
N576   O578    1.300   .     A
N576   O577    1.301   .     A
H579   N907    1.029   .     S
O581   C585    1.287   .     A
O581   Cu593   1.975   .     S
O582   Cu594   1.975   .     S
O582   C586    1.287   .     A
O583   Cu594   1.971   .     S
O583   C585    1.287   .     A
O584   C586    1.287   .     A
O584   Cu593   1.971   .     S
C585   C615    1.430   .     S
C586   C616    1.430   .     S
O587   Cu593   1.972   .     S
O587   C591    1.294   .     A
O588   C592    1.294   .     A
O588   Cu594   1.972   .     S
O589   Cu594   1.957   .     S
O589   C591    1.290   .     A
O590   C592    1.290   .     A
O590   Cu593   1.957   .     S
C591   C598    1.453   .     S
C592   C597    1.453   .     S
Cu593  Cu594   2.683   .     S
Cu593  N618    2.016   .     S
Cu594  N617    2.016   .     S
C595   N619    1.437   .     S
C595   C605    1.404   .     A
C595   C597    1.406   .     A
C596   N622    1.437   .     S
C596   C598    1.406   .     A
C596   C606    1.404   .     A
C597   C599    1.408   .     A
C598   C600    1.408   .     A
C599   N625    1.437   .     S
C599   C601    1.402   .     A
C600   N628    1.437   .     S
C600   C602    1.402   .     A
C601   C607    1.404   .     A
C601   C603    1.415   .     A
C602   C608    1.404   .     A
C602   C604    1.415   .     A
C603   C605    1.416   .     A
C603   C662    1.411   .     S
C604   C606    1.416   .     A
C604   C661    1.411   1_455 S
C605   C610    1.403   .     A
C606   C609    1.403   .     A
C607   H611    1.082   .     S
C607   C667    1.386   .     S
C608   H612    1.082   .     S
C608   C668    1.386   1_455 S
C609   H613    1.082   .     S
C609   C665    1.386   1_455 S
C610   H614    1.082   .     S
C610   C666    1.386   .     S
C616   C383    1.353   1_565 S
C616   N402    1.437   1_565 S
N618   N965    1.299   .     S
N618   H986    1.028   .     S
N619   O621    1.301   .     A
N619   O620    1.301   .     A
N622   O624    1.301   .     A
N622   O623    1.301   .     A
N625   O627    1.301   .     A
N625   O626    1.301   .     A
N628   O630    1.301   .     A
N628   O629    1.301   .     A
N631   O633    1.300   .     A
N631   O632    1.301   .     A
N631   C383    1.437   1_565 S
N634   O636    1.300   .     A
N634   O635    1.301   .     A
H637   N965    1.029   .     S
O639   C643    1.287   .     A
O639   Cu651   1.975   .     S
O640   Cu652   1.975   .     S
O640   C644    1.287   .     A
O641   Cu652   1.971   .     S
O641   C643    1.287   .     A
O642   C644    1.287   .     A
O642   Cu651   1.971   .     S
C643   C673    1.430   .     S
C644   C674    1.430   .     S
O645   Cu651   1.972   .     S
O645   C649    1.294   .     A
O646   C650    1.294   .     A
O646   Cu652   1.972   .     S
O647   Cu652   1.957   .     S
O647   C649    1.290   .     A
O648   C650    1.290   .     A
O648   Cu651   1.957   .     S
C649   C656    1.453   .     S
C650   C655    1.453   .     S
Cu651  Cu652   2.683   .     S
Cu651  N676    2.016   .     S
Cu652  N675    2.016   .     S
C653   N677    1.437   .     S
C653   C663    1.404   .     A
C653   C655    1.406   .     A
C654   N680    1.437   .     S
C654   C656    1.406   .     A
C654   C664    1.404   .     A
C655   C657    1.408   .     A
C656   C658    1.408   .     A
C657   N683    1.437   .     S
C657   C659    1.402   .     A
C658   N686    1.437   .     S
C658   C660    1.402   .     A
C659   C665    1.404   .     A
C659   C661    1.415   .     A
C660   C666    1.404   .     A
C660   C662    1.415   .     A
C661   C663    1.416   .     A
C661   C604    1.411   1_655 S
C662   C664    1.416   .     A
C663   C668    1.403   .     A
C664   C667    1.403   .     A
C665   H669    1.082   .     S
C665   C609    1.386   1_655 S
C666   H670    1.082   .     S
C667   H671    1.082   .     S
C668   H672    1.082   .     S
C668   C608    1.386   1_655 S
C674   C441    1.353   1_565 S
C674   N460    1.437   1_565 S
N676   N1023   1.299   .     S
N676   H1044   1.028   .     S
N677   O679    1.301   .     A
N677   O678    1.301   .     A
N680   O682    1.301   .     A
N680   O681    1.301   .     A
N683   O685    1.301   .     A
N683   O684    1.301   .     A
N686   O688    1.301   .     A
N686   O687    1.301   .     A
N689   O691    1.300   .     A
N689   O690    1.301   .     A
N689   C441    1.437   1_565 S
N692   O694    1.300   .     A
N692   O693    1.301   .     A
H695   N1023   1.029   .     S
O697   C701    1.287   .     A
O697   Cu709   1.975   .     S
O698   Cu710   1.975   .     S
O698   C702    1.287   .     A
O699   Cu710   1.971   .     S
O699   C701    1.287   .     A
O700   C702    1.287   .     A
O700   Cu709   1.971   .     S
C701   C731    1.430   .     S
C702   C732    1.430   .     S
O703   Cu709   1.972   .     S
O703   C707    1.294   .     A
O704   C708    1.294   .     A
O704   Cu710   1.972   .     S
O705   Cu710   1.957   .     S
O705   C707    1.290   .     A
O706   C708    1.290   .     A
O706   Cu709   1.957   .     S
C707   C714    1.453   .     S
C708   C713    1.453   .     S
Cu709  Cu710   2.683   .     S
Cu709  N734    2.016   .     S
Cu710  N733    2.016   .     S
C711   N735    1.437   .     S
C711   C721    1.404   .     A
C711   C713    1.406   .     A
C712   N738    1.437   .     S
C712   C714    1.406   .     A
C712   C722    1.404   .     A
C713   C715    1.408   .     A
C714   C716    1.408   .     A
C715   N741    1.437   .     S
C715   C717    1.402   .     A
C716   N744    1.437   .     S
C716   C718    1.402   .     A
C717   C723    1.404   .     A
C717   C719    1.415   .     A
C718   C724    1.404   .     A
C718   C720    1.415   .     A
C719   C721    1.416   .     A
C719   C778    1.411   .     S
C720   C722    1.416   .     A
C720   C777    1.411   1_455 S
C721   C726    1.403   .     A
C722   C725    1.403   .     A
C723   H727    1.082   .     S
C723   C783    1.386   .     S
C724   H728    1.082   .     S
C724   C784    1.386   1_455 S
C725   H729    1.082   .     S
C725   C781    1.386   1_455 S
C726   H730    1.082   .     S
C726   C782    1.386   .     S
C731   C964    1.353   1_545 S
C731   N979    1.437   1_545 S
C732   C847    1.353   .     S
C732   N866    1.437   .     S
N734   N37     1.299   1_556 S
N734   H58     1.028   1_556 S
N735   O737    1.301   .     A
N735   O736    1.301   .     A
N738   O740    1.301   .     A
N738   O739    1.301   .     A
N741   O743    1.301   .     A
N741   O742    1.301   .     A
N744   O746    1.301   .     A
N744   O745    1.301   .     A
N747   O749    1.300   .     A
N747   O748    1.301   .     A
N747   C847    1.437   .     S
N750   O752    1.300   .     A
N750   O751    1.301   .     A
N750   C964    1.437   1_545 S
H753   N37     1.029   1_556 S
O755   C759    1.287   .     A
O755   Cu767   1.975   .     S
O756   Cu768   1.975   .     S
O756   C760    1.287   .     A
O757   Cu768   1.971   .     S
O757   C759    1.287   .     A
O758   C760    1.287   .     A
O758   Cu767   1.971   .     S
C759   C789    1.430   .     S
C760   C790    1.430   .     S
O761   Cu767   1.972   .     S
O761   C765    1.294   .     A
O762   C766    1.294   .     A
O762   Cu768   1.972   .     S
O763   Cu768   1.957   .     S
O763   C765    1.290   .     A
O764   C766    1.290   .     A
O764   Cu767   1.957   .     S
C765   C772    1.453   .     S
C766   C771    1.453   .     S
Cu767  Cu768   2.683   .     S
Cu767  N792    2.016   .     S
Cu768  N791    2.016   .     S
C769   N793    1.437   .     S
C769   C779    1.404   .     A
C769   C771    1.406   .     A
C770   N796    1.437   .     S
C770   C772    1.406   .     A
C770   C780    1.404   .     A
C771   C773    1.408   .     A
C772   C774    1.408   .     A
C773   N799    1.437   .     S
C773   C775    1.402   .     A
C774   N802    1.437   .     S
C774   C776    1.402   .     A
C775   C781    1.404   .     A
C775   C777    1.415   .     A
C776   C782    1.404   .     A
C776   C778    1.415   .     A
C777   C779    1.416   .     A
C777   C720    1.411   1_655 S
C778   C780    1.416   .     A
C779   C784    1.403   .     A
C780   C783    1.403   .     A
C781   H785    1.082   .     S
C781   C725    1.386   1_655 S
C782   H786    1.082   .     S
C783   H787    1.082   .     S
C784   H788    1.082   .     S
C784   C724    1.386   1_655 S
C789   C1022   1.353   1_545 S
C789   N1037   1.437   1_545 S
C790   C905    1.353   .     S
C790   N924    1.437   .     S
N792   N95     1.299   1_556 S
N792   H116    1.028   1_556 S
N793   O795    1.301   .     A
N793   O794    1.301   .     A
N796   O798    1.301   .     A
N796   O797    1.301   .     A
N799   O801    1.301   .     A
N799   O800    1.301   .     A
N802   O804    1.301   .     A
N802   O803    1.301   .     A
N805   O807    1.300   .     A
N805   O806    1.301   .     A
N805   C905    1.437   .     S
N808   O810    1.300   .     A
N808   O809    1.301   .     A
N808   C1022   1.437   1_545 S
H811   N95     1.029   1_556 S
O813   C817    1.287   .     A
O813   Cu825   1.975   .     S
O814   Cu826   1.975   .     S
O814   C818    1.287   .     A
O815   Cu826   1.971   .     S
O815   C817    1.287   .     A
O816   C818    1.287   .     A
O816   Cu825   1.971   .     S
C817   C847    1.430   .     S
C818   C848    1.430   .     S
O819   Cu825   1.972   .     S
O819   C823    1.294   .     A
O820   C824    1.294   .     A
O820   Cu826   1.972   .     S
O821   Cu826   1.957   .     S
O821   C823    1.290   .     A
O822   C824    1.290   .     A
O822   Cu825   1.957   .     S
C823   C830    1.453   .     S
C824   C829    1.453   .     S
Cu825  Cu826   2.683   .     S
Cu825  N850    2.016   .     S
Cu826  N849    2.016   .     S
C827   N851    1.437   .     S
C827   C837    1.404   .     A
C827   C829    1.406   .     A
C828   N854    1.437   .     S
C828   C830    1.406   .     A
C828   C838    1.404   .     A
C829   C831    1.408   .     A
C830   C832    1.408   .     A
C831   N857    1.437   .     S
C831   C833    1.402   .     A
C832   N860    1.437   .     S
C832   C834    1.402   .     A
C833   C839    1.404   .     A
C833   C835    1.415   .     A
C834   C840    1.404   .     A
C834   C836    1.415   .     A
C835   C837    1.416   .     A
C835   C894    1.411   .     S
C836   C838    1.416   .     A
C836   C893    1.411   1_455 S
C837   C842    1.403   .     A
C838   C841    1.403   .     A
C839   H843    1.082   .     S
C839   C899    1.386   .     S
C840   H844    1.082   .     S
C840   C900    1.386   1_455 S
C841   H845    1.082   .     S
C841   C897    1.386   1_455 S
C842   H846    1.082   .     S
C842   C898    1.386   .     S
C848   C963    1.353   .     S
C848   N982    1.437   .     S
N850   N153    1.299   1_556 S
N850   H174    1.028   1_556 S
N851   O853    1.301   .     A
N851   O852    1.301   .     A
N854   O856    1.301   .     A
N854   O855    1.301   .     A
N857   O859    1.301   .     A
N857   O858    1.301   .     A
N860   O862    1.301   .     A
N860   O861    1.301   .     A
N863   O865    1.300   .     A
N863   O864    1.301   .     A
N863   C963    1.437   .     S
N866   O868    1.300   .     A
N866   O867    1.301   .     A
H869   N153    1.029   1_556 S
O871   C875    1.287   .     A
O871   Cu883   1.975   .     S
O872   Cu884   1.975   .     S
O872   C876    1.287   .     A
O873   Cu884   1.971   .     S
O873   C875    1.287   .     A
O874   C876    1.287   .     A
O874   Cu883   1.971   .     S
C875   C905    1.430   .     S
C876   C906    1.430   .     S
O877   Cu883   1.972   .     S
O877   C881    1.294   .     A
O878   C882    1.294   .     A
O878   Cu884   1.972   .     S
O879   Cu884   1.957   .     S
O879   C881    1.290   .     A
O880   C882    1.290   .     A
O880   Cu883   1.957   .     S
C881   C888    1.453   .     S
C882   C887    1.453   .     S
Cu883  Cu884   2.683   .     S
Cu883  N908    2.016   .     S
Cu884  N907    2.016   .     S
C885   N909    1.437   .     S
C885   C895    1.404   .     A
C885   C887    1.406   .     A
C886   N912    1.437   .     S
C886   C888    1.406   .     A
C886   C896    1.404   .     A
C887   C889    1.408   .     A
C888   C890    1.408   .     A
C889   N915    1.437   .     S
C889   C891    1.402   .     A
C890   N918    1.437   .     S
C890   C892    1.402   .     A
C891   C897    1.404   .     A
C891   C893    1.415   .     A
C892   C898    1.404   .     A
C892   C894    1.415   .     A
C893   C895    1.416   .     A
C893   C836    1.411   1_655 S
C894   C896    1.416   .     A
C895   C900    1.403   .     A
C896   C899    1.403   .     A
C897   H901    1.082   .     S
C897   C841    1.386   1_655 S
C898   H902    1.082   .     S
C899   H903    1.082   .     S
C900   H904    1.082   .     S
C900   C840    1.386   1_655 S
C906   C1021   1.353   .     S
C906   N1040   1.437   .     S
N908   N211    1.299   1_556 S
N908   H232    1.028   1_556 S
N909   O911    1.301   .     A
N909   O910    1.301   .     A
N912   O914    1.301   .     A
N912   O913    1.301   .     A
N915   O917    1.301   .     A
N915   O916    1.301   .     A
N918   O920    1.301   .     A
N918   O919    1.301   .     A
N921   O923    1.300   .     A
N921   O922    1.301   .     A
N921   C1021   1.437   .     S
N924   O926    1.300   .     A
N924   O925    1.301   .     A
H927   N211    1.029   1_556 S
O929   C933    1.287   .     A
O929   Cu941   1.975   .     S
O930   Cu942   1.975   .     S
O930   C934    1.287   .     A
O931   Cu942   1.971   .     S
O931   C933    1.287   .     A
O932   C934    1.287   .     A
O932   Cu941   1.971   .     S
C933   C963    1.430   .     S
C934   C964    1.430   .     S
O935   Cu941   1.972   .     S
O935   C939    1.294   .     A
O936   C940    1.294   .     A
O936   Cu942   1.972   .     S
O937   Cu942   1.957   .     S
O937   C939    1.290   .     A
O938   C940    1.290   .     A
O938   Cu941   1.957   .     S
C939   C946    1.453   .     S
C940   C945    1.453   .     S
Cu941  Cu942   2.683   .     S
Cu941  N966    2.016   .     S
Cu942  N965    2.016   .     S
C943   N967    1.437   .     S
C943   C953    1.404   .     A
C943   C945    1.406   .     A
C944   N970    1.437   .     S
C944   C946    1.406   .     A
C944   C954    1.404   .     A
C945   C947    1.408   .     A
C946   C948    1.408   .     A
C947   N973    1.437   .     S
C947   C949    1.402   .     A
C948   N976    1.437   .     S
C948   C950    1.402   .     A
C949   C955    1.404   .     A
C949   C951    1.415   .     A
C950   C956    1.404   .     A
C950   C952    1.415   .     A
C951   C953    1.416   .     A
C951   C1010   1.411   .     S
C952   C954    1.416   .     A
C952   C1009   1.411   1_455 S
C953   C958    1.403   .     A
C954   C957    1.403   .     A
C955   H959    1.082   .     S
C955   C1015   1.386   .     S
C956   H960    1.082   .     S
C956   C1016   1.386   1_455 S
C957   H961    1.082   .     S
C957   C1013   1.386   1_455 S
C958   H962    1.082   .     S
C958   C1014   1.386   .     S
C964   C731    1.353   1_565 S
C964   N750    1.437   1_565 S
N966   N269    1.299   1_556 S
N966   H290    1.028   1_556 S
N967   O969    1.301   .     A
N967   O968    1.301   .     A
N970   O972    1.301   .     A
N970   O971    1.301   .     A
N973   O975    1.301   .     A
N973   O974    1.301   .     A
N976   O978    1.301   .     A
N976   O977    1.301   .     A
N979   O981    1.300   .     A
N979   O980    1.301   .     A
N979   C731    1.437   1_565 S
N982   O984    1.300   .     A
N982   O983    1.301   .     A
H985   N269    1.029   1_556 S
O987   C991    1.287   .     A
O987   Cu999   1.975   .     S
O988   Cu1000  1.975   .     S
O988   C992    1.287   .     A
O989   Cu1000  1.971   .     S
O989   C991    1.287   .     A
O990   C992    1.287   .     A
O990   Cu999   1.971   .     S
C991   C1021   1.430   .     S
C992   C1022   1.430   .     S
O993   Cu999   1.972   .     S
O993   C997    1.294   .     A
O994   C998    1.294   .     A
O994   Cu1000  1.972   .     S
O995   Cu1000  1.957   .     S
O995   C997    1.290   .     A
O996   C998    1.290   .     A
O996   Cu999   1.957   .     S
C997   C1004   1.453   .     S
C998   C1003   1.453   .     S
Cu999  Cu1000  2.683   .     S
Cu999  N1024   2.016   .     S
Cu1000 N1023   2.016   .     S
C1001  N1025   1.437   .     S
C1001  C1011   1.404   .     A
C1001  C1003   1.406   .     A
C1002  N1028   1.437   .     S
C1002  C1004   1.406   .     A
C1002  C1012   1.404   .     A
C1003  C1005   1.408   .     A
C1004  C1006   1.408   .     A
C1005  N1031   1.437   .     S
C1005  C1007   1.402   .     A
C1006  N1034   1.437   .     S
C1006  C1008   1.402   .     A
C1007  C1013   1.404   .     A
C1007  C1009   1.415   .     A
C1008  C1014   1.404   .     A
C1008  C1010   1.415   .     A
C1009  C1011   1.416   .     A
C1009  C952    1.411   1_655 S
C1010  C1012   1.416   .     A
C1011  C1016   1.403   .     A
C1012  C1015   1.403   .     A
C1013  H1017   1.082   .     S
C1013  C957    1.386   1_655 S
C1014  H1018   1.082   .     S
C1015  H1019   1.082   .     S
C1016  H1020   1.082   .     S
C1016  C956    1.386   1_655 S
C1022  C789    1.353   1_565 S
C1022  N808    1.437   1_565 S
N1024  N327    1.299   1_556 S
N1024  H348    1.028   1_556 S
N1025  O1027   1.301   .     A
N1025  O1026   1.301   .     A
N1028  O1030   1.301   .     A
N1028  O1029   1.301   .     A
N1031  O1033   1.301   .     A
N1031  O1032   1.301   .     A
N1034  O1036   1.301   .     A
N1034  O1035   1.301   .     A
N1037  O1039   1.300   .     A
N1037  O1038   1.301   .     A
N1037  C789    1.437   1_565 S
N1040  O1042   1.300   .     A
N1040  O1041   1.301   .     A
H1043  N327    1.029   1_556 S
