data_str_m2_o1_o10_pcu_sym.179
_audit_creation_date              2020-01-03
_audit_creation_method            'Materials Studio'
_symmetry_space_group_name_H-M    'P1'
_symmetry_Int_Tables_number       1
_symmetry_cell_setting            triclinic
loop_
_symmetry_equiv_pos_as_xyz
  x,y,z
_cell_length_a                    26.5522
_cell_length_b                    32.5485
_cell_length_c                    28.8914
_cell_angle_alpha                 90.3201
_cell_angle_beta                  98.3961
_cell_angle_gamma                 93.5347
loop_
_atom_site_label
_atom_site_type_symbol
_atom_site_fract_x
_atom_site_fract_y
_atom_site_fract_z
_atom_site_U_iso_or_equiv
_atom_site_adp_type
_atom_site_occupancy
C1     C     0.16653   0.08747   0.16645   0.00000  Uiso   1.00
C2     C     0.16680   0.24587   0.16688   0.00000  Uiso   1.00
C3     C     0.06820   0.16693   0.15464   0.00000  Uiso   1.00
C4     C     0.26513   0.16640   0.17870   0.00000  Uiso   1.00
C5     C     0.01294   0.16328   0.14830   0.00000  Uiso   1.00
C6     C     0.32039   0.17006   0.18504   0.00000  Uiso   1.00
C7     C     0.15937   0.02024   0.12379   0.00000  Uiso   1.00
C8     C     0.17396   0.31309   0.20955   0.00000  Uiso   1.00
C9     C     0.15925   0.31109   0.12452   0.00000  Uiso   1.00
C10    C     0.17408   0.02224   0.20881   0.00000  Uiso   1.00
C11    C     0.16669   0.29054   0.16720   0.00000  Uiso   1.00
C12    C     0.16664   0.04280   0.16614   0.00000  Uiso   1.00
C13    C     0.13309   0.14068   0.02003   0.00000  Uiso   1.00
C14    C     0.20024   0.19266   0.31331   0.00000  Uiso   1.00
C15    C     0.13513   0.13922   0.30411   0.00000  Uiso   1.00
C16    C     0.19821   0.19411   0.02922   0.00000  Uiso   1.00
Cu17   Cu    0.16667   0.16667   0.21355   0.00000  Uiso   1.00
Cu18   Cu    0.16667   0.16666   0.11978   0.00000  Uiso   1.00
H19    H     0.15294   0.29435   0.09149   0.00000  Uiso   1.00
H20    H     0.18040   0.03899   0.24185   0.00000  Uiso   1.00
N21    N     0.16668   0.16668   0.28403   0.00000  Uiso   1.00
N22    N     0.16665   0.16666   0.04931   0.00000  Uiso   1.00
O23    O     0.16666   0.10655   0.20625   0.00000  Uiso   1.00
O24    O     0.16667   0.22678   0.12709   0.00000  Uiso   1.00
O25    O     0.16666   0.10654   0.12706   0.00000  Uiso   1.00
O26    O     0.16667   0.22679   0.20628   0.00000  Uiso   1.00
O27    O     0.09161   0.16667   0.19712   0.00000  Uiso   1.00
O28    O     0.24172   0.16666   0.13621   0.00000  Uiso   1.00
O29    O     0.09161   0.16666   0.11793   0.00000  Uiso   1.00
O30    O     0.24172   0.16667   0.21540   0.00000  Uiso   1.00
C31    C     0.32127   0.14646   0.10198   0.00000  Uiso   1.00
H32    H     0.29505   0.11935   0.09998   0.00000  Uiso   1.00
O33    O     0.32905   0.16351   0.06594   0.00000  Uiso   1.00
C34    C     0.01206   0.18687   0.23136   0.00000  Uiso   1.00
H35    H     0.03828   0.21398   0.23336   0.00000  Uiso   1.00
O36    O     0.00428   0.16982   0.26739   0.00000  Uiso   1.00
F37    F     0.15206   0.03884   0.08161   0.00000  Uiso   1.00
F38    F     0.18128   0.29450   0.25172   0.00000  Uiso   1.00
C39    C     0.09114   0.11641   0.03846   0.00000  Uiso   1.00
H40    H     0.09553   0.10404   0.07299   0.00000  Uiso   1.00
O41    O     0.04930   0.11048   0.01470   0.00000  Uiso   1.00
C42    C     0.24220   0.21692   0.29487   0.00000  Uiso   1.00
H43    H     0.23780   0.22929   0.26035   0.00000  Uiso   1.00
O44    O     0.28403   0.22284   0.31863   0.00000  Uiso   1.00
C45    C     0.10680   0.10479   0.27570   0.00000  Uiso   1.00
H46    H     0.08392   0.10969   0.24254   0.00000  Uiso   1.00
O47    O     0.10897   0.06953   0.28975   0.00000  Uiso   1.00
C48    C     0.22653   0.22854   0.05763   0.00000  Uiso   1.00
H49    H     0.24941   0.22364   0.09080   0.00000  Uiso   1.00
O50    O     0.22436   0.26380   0.04358   0.00000  Uiso   1.00
C51    C     0.49986   0.08747   0.16645   0.00000  Uiso   1.00
C52    C     0.50014   0.24587   0.16688   0.00000  Uiso   1.00
C53    C     0.40153   0.16693   0.15464   0.00000  Uiso   1.00
C54    C     0.59847   0.16640   0.17870   0.00000  Uiso   1.00
C55    C     0.34628   0.16328   0.14830   0.00000  Uiso   1.00
C56    C     0.65372   0.17006   0.18504   0.00000  Uiso   1.00
C57    C     0.49271   0.02024   0.12379   0.00000  Uiso   1.00
C58    C     0.50729   0.31309   0.20955   0.00000  Uiso   1.00
C59    C     0.49259   0.31109   0.12452   0.00000  Uiso   1.00
C60    C     0.50741   0.02224   0.20881   0.00000  Uiso   1.00
C61    C     0.50002   0.29054   0.16720   0.00000  Uiso   1.00
C62    C     0.49998   0.04280   0.16614   0.00000  Uiso   1.00
C63    C     0.46643   0.14068   0.02003   0.00000  Uiso   1.00
C64    C     0.53357   0.19266   0.31331   0.00000  Uiso   1.00
C65    C     0.46846   0.13922   0.30411   0.00000  Uiso   1.00
C66    C     0.53154   0.19411   0.02922   0.00000  Uiso   1.00
Cu67   Cu    0.50000   0.16667   0.21355   0.00000  Uiso   1.00
Cu68   Cu    0.50000   0.16666   0.11978   0.00000  Uiso   1.00
H69    H     0.48627   0.29435   0.09149   0.00000  Uiso   1.00
H70    H     0.51373   0.03899   0.24185   0.00000  Uiso   1.00
N71    N     0.50001   0.16668   0.28403   0.00000  Uiso   1.00
N72    N     0.49999   0.16666   0.04931   0.00000  Uiso   1.00
O73    O     0.50000   0.10655   0.20625   0.00000  Uiso   1.00
O74    O     0.50000   0.22678   0.12709   0.00000  Uiso   1.00
O75    O     0.50000   0.10654   0.12706   0.00000  Uiso   1.00
O76    O     0.50000   0.22679   0.20628   0.00000  Uiso   1.00
O77    O     0.42495   0.16667   0.19712   0.00000  Uiso   1.00
O78    O     0.57505   0.16666   0.13621   0.00000  Uiso   1.00
O79    O     0.42494   0.16666   0.11793   0.00000  Uiso   1.00
O80    O     0.57506   0.16667   0.21540   0.00000  Uiso   1.00
C81    C     0.65461   0.14646   0.10198   0.00000  Uiso   1.00
H82    H     0.62839   0.11935   0.09998   0.00000  Uiso   1.00
O83    O     0.66239   0.16351   0.06594   0.00000  Uiso   1.00
C84    C     0.34539   0.18687   0.23136   0.00000  Uiso   1.00
H85    H     0.37161   0.21398   0.23336   0.00000  Uiso   1.00
O86    O     0.33762   0.16982   0.26739   0.00000  Uiso   1.00
F87    F     0.48539   0.03884   0.08161   0.00000  Uiso   1.00
F88    F     0.51461   0.29450   0.25172   0.00000  Uiso   1.00
C89    C     0.42447   0.11641   0.03846   0.00000  Uiso   1.00
H90    H     0.42887   0.10404   0.07299   0.00000  Uiso   1.00
O91    O     0.38264   0.11048   0.01470   0.00000  Uiso   1.00
C92    C     0.57553   0.21692   0.29487   0.00000  Uiso   1.00
H93    H     0.57114   0.22929   0.26035   0.00000  Uiso   1.00
O94    O     0.61737   0.22284   0.31863   0.00000  Uiso   1.00
C95    C     0.44014   0.10479   0.27570   0.00000  Uiso   1.00
H96    H     0.41726   0.10969   0.24254   0.00000  Uiso   1.00
O97    O     0.44231   0.06953   0.28975   0.00000  Uiso   1.00
C98    C     0.55986   0.22854   0.05763   0.00000  Uiso   1.00
H99    H     0.58274   0.22364   0.09080   0.00000  Uiso   1.00
O100   O     0.55770   0.26380   0.04358   0.00000  Uiso   1.00
C101   C     0.83320   0.08747   0.16645   0.00000  Uiso   1.00
C102   C     0.83347   0.24587   0.16688   0.00000  Uiso   1.00
C103   C     0.73487   0.16693   0.15464   0.00000  Uiso   1.00
C104   C     0.93180   0.16640   0.17870   0.00000  Uiso   1.00
C105   C     0.67961   0.16328   0.14830   0.00000  Uiso   1.00
C106   C     0.98706   0.17006   0.18504   0.00000  Uiso   1.00
C107   C     0.82604   0.02024   0.12379   0.00000  Uiso   1.00
C108   C     0.84063   0.31309   0.20955   0.00000  Uiso   1.00
C109   C     0.82592   0.31109   0.12452   0.00000  Uiso   1.00
C110   C     0.84075   0.02224   0.20881   0.00000  Uiso   1.00
C111   C     0.83336   0.29054   0.16720   0.00000  Uiso   1.00
C112   C     0.83331   0.04280   0.16614   0.00000  Uiso   1.00
C113   C     0.79976   0.14068   0.02003   0.00000  Uiso   1.00
C114   C     0.86691   0.19266   0.31331   0.00000  Uiso   1.00
C115   C     0.80180   0.13922   0.30411   0.00000  Uiso   1.00
C116   C     0.86487   0.19411   0.02922   0.00000  Uiso   1.00
Cu117  Cu    0.83333   0.16667   0.21355   0.00000  Uiso   1.00
Cu118  Cu    0.83333   0.16666   0.11978   0.00000  Uiso   1.00
H119   H     0.81960   0.29435   0.09149   0.00000  Uiso   1.00
H120   H     0.84706   0.03899   0.24185   0.00000  Uiso   1.00
N121   N     0.83335   0.16668   0.28403   0.00000  Uiso   1.00
N122   N     0.83332   0.16666   0.04931   0.00000  Uiso   1.00
O123   O     0.83333   0.10655   0.20625   0.00000  Uiso   1.00
O124   O     0.83334   0.22678   0.12709   0.00000  Uiso   1.00
O125   O     0.83333   0.10654   0.12706   0.00000  Uiso   1.00
O126   O     0.83334   0.22679   0.20628   0.00000  Uiso   1.00
O127   O     0.75828   0.16667   0.19712   0.00000  Uiso   1.00
O128   O     0.90839   0.16666   0.13621   0.00000  Uiso   1.00
O129   O     0.75828   0.16666   0.11793   0.00000  Uiso   1.00
O130   O     0.90839   0.16667   0.21540   0.00000  Uiso   1.00
C131   C     0.98794   0.14646   0.10198   0.00000  Uiso   1.00
H132   H     0.96172   0.11935   0.09998   0.00000  Uiso   1.00
O133   O     0.99572   0.16351   0.06594   0.00000  Uiso   1.00
C134   C     0.67873   0.18687   0.23136   0.00000  Uiso   1.00
H135   H     0.70495   0.21398   0.23336   0.00000  Uiso   1.00
O136   O     0.67095   0.16982   0.26739   0.00000  Uiso   1.00
F137   F     0.81872   0.03884   0.08161   0.00000  Uiso   1.00
F138   F     0.84794   0.29450   0.25172   0.00000  Uiso   1.00
C139   C     0.75780   0.11641   0.03846   0.00000  Uiso   1.00
H140   H     0.76220   0.10404   0.07299   0.00000  Uiso   1.00
O141   O     0.71597   0.11048   0.01470   0.00000  Uiso   1.00
C142   C     0.90886   0.21692   0.29487   0.00000  Uiso   1.00
H143   H     0.90447   0.22929   0.26035   0.00000  Uiso   1.00
O144   O     0.95070   0.22284   0.31863   0.00000  Uiso   1.00
C145   C     0.77347   0.10479   0.27570   0.00000  Uiso   1.00
H146   H     0.75059   0.10969   0.24254   0.00000  Uiso   1.00
O147   O     0.77564   0.06953   0.28975   0.00000  Uiso   1.00
C148   C     0.89320   0.22854   0.05763   0.00000  Uiso   1.00
H149   H     0.91608   0.22364   0.09080   0.00000  Uiso   1.00
O150   O     0.89103   0.26380   0.04358   0.00000  Uiso   1.00
C151   C     0.16653   0.42080   0.16645   0.00000  Uiso   1.00
C152   C     0.16680   0.57920   0.16688   0.00000  Uiso   1.00
C153   C     0.06820   0.50027   0.15464   0.00000  Uiso   1.00
C154   C     0.26513   0.49973   0.17870   0.00000  Uiso   1.00
C155   C     0.01294   0.49661   0.14830   0.00000  Uiso   1.00
C156   C     0.32039   0.50339   0.18504   0.00000  Uiso   1.00
C157   C     0.15937   0.35358   0.12379   0.00000  Uiso   1.00
C158   C     0.17396   0.64642   0.20955   0.00000  Uiso   1.00
C159   C     0.15925   0.64442   0.12452   0.00000  Uiso   1.00
C160   C     0.17408   0.35558   0.20881   0.00000  Uiso   1.00
C161   C     0.16669   0.62387   0.16720   0.00000  Uiso   1.00
C162   C     0.16664   0.37613   0.16614   0.00000  Uiso   1.00
C163   C     0.13309   0.47401   0.02003   0.00000  Uiso   1.00
C164   C     0.20024   0.52599   0.31331   0.00000  Uiso   1.00
C165   C     0.13513   0.47255   0.30411   0.00000  Uiso   1.00
C166   C     0.19821   0.52745   0.02922   0.00000  Uiso   1.00
Cu167  Cu    0.16667   0.50001   0.21355   0.00000  Uiso   1.00
Cu168  Cu    0.16667   0.49999   0.11978   0.00000  Uiso   1.00
H169   H     0.15294   0.62768   0.09149   0.00000  Uiso   1.00
H170   H     0.18040   0.37232   0.24185   0.00000  Uiso   1.00
N171   N     0.16668   0.50001   0.28403   0.00000  Uiso   1.00
N172   N     0.16665   0.49999   0.04931   0.00000  Uiso   1.00
O173   O     0.16666   0.43989   0.20625   0.00000  Uiso   1.00
O174   O     0.16667   0.56011   0.12709   0.00000  Uiso   1.00
O175   O     0.16666   0.43988   0.12706   0.00000  Uiso   1.00
O176   O     0.16667   0.56012   0.20628   0.00000  Uiso   1.00
O177   O     0.09161   0.50000   0.19712   0.00000  Uiso   1.00
O178   O     0.24172   0.50000   0.13621   0.00000  Uiso   1.00
O179   O     0.09161   0.49999   0.11793   0.00000  Uiso   1.00
O180   O     0.24172   0.50001   0.21540   0.00000  Uiso   1.00
C181   C     0.32127   0.47980   0.10198   0.00000  Uiso   1.00
H182   H     0.29505   0.45268   0.09998   0.00000  Uiso   1.00
O183   O     0.32905   0.49684   0.06594   0.00000  Uiso   1.00
C184   C     0.01206   0.52020   0.23136   0.00000  Uiso   1.00
H185   H     0.03828   0.54732   0.23336   0.00000  Uiso   1.00
O186   O     0.00428   0.50315   0.26739   0.00000  Uiso   1.00
F187   F     0.15206   0.37217   0.08161   0.00000  Uiso   1.00
F188   F     0.18128   0.62783   0.25172   0.00000  Uiso   1.00
C189   C     0.09114   0.44975   0.03846   0.00000  Uiso   1.00
H190   H     0.09553   0.43737   0.07299   0.00000  Uiso   1.00
O191   O     0.04930   0.44382   0.01470   0.00000  Uiso   1.00
C192   C     0.24220   0.55025   0.29487   0.00000  Uiso   1.00
H193   H     0.23780   0.56263   0.26035   0.00000  Uiso   1.00
O194   O     0.28403   0.55618   0.31863   0.00000  Uiso   1.00
C195   C     0.10680   0.43813   0.27570   0.00000  Uiso   1.00
H196   H     0.08392   0.44303   0.24254   0.00000  Uiso   1.00
O197   O     0.10897   0.40286   0.28975   0.00000  Uiso   1.00
C198   C     0.22653   0.56187   0.05763   0.00000  Uiso   1.00
H199   H     0.24941   0.55697   0.09080   0.00000  Uiso   1.00
O200   O     0.22436   0.59714   0.04358   0.00000  Uiso   1.00
C201   C     0.49986   0.42080   0.16645   0.00000  Uiso   1.00
C202   C     0.50014   0.57920   0.16688   0.00000  Uiso   1.00
C203   C     0.40153   0.50027   0.15464   0.00000  Uiso   1.00
C204   C     0.59847   0.49973   0.17870   0.00000  Uiso   1.00
C205   C     0.34628   0.49661   0.14830   0.00000  Uiso   1.00
C206   C     0.65372   0.50339   0.18504   0.00000  Uiso   1.00
C207   C     0.49271   0.35358   0.12379   0.00000  Uiso   1.00
C208   C     0.50729   0.64642   0.20955   0.00000  Uiso   1.00
C209   C     0.49259   0.64442   0.12452   0.00000  Uiso   1.00
C210   C     0.50741   0.35558   0.20881   0.00000  Uiso   1.00
C211   C     0.50002   0.62387   0.16720   0.00000  Uiso   1.00
C212   C     0.49998   0.37613   0.16614   0.00000  Uiso   1.00
C213   C     0.46643   0.47401   0.02003   0.00000  Uiso   1.00
C214   C     0.53357   0.52599   0.31331   0.00000  Uiso   1.00
C215   C     0.46846   0.47255   0.30411   0.00000  Uiso   1.00
C216   C     0.53154   0.52745   0.02922   0.00000  Uiso   1.00
Cu217  Cu    0.50000   0.50001   0.21355   0.00000  Uiso   1.00
Cu218  Cu    0.50000   0.49999   0.11978   0.00000  Uiso   1.00
H219   H     0.48627   0.62768   0.09149   0.00000  Uiso   1.00
H220   H     0.51373   0.37232   0.24185   0.00000  Uiso   1.00
N221   N     0.50001   0.50001   0.28403   0.00000  Uiso   1.00
N222   N     0.49999   0.49999   0.04931   0.00000  Uiso   1.00
O223   O     0.50000   0.43989   0.20625   0.00000  Uiso   1.00
O224   O     0.50000   0.56011   0.12709   0.00000  Uiso   1.00
O225   O     0.50000   0.43988   0.12706   0.00000  Uiso   1.00
O226   O     0.50000   0.56012   0.20628   0.00000  Uiso   1.00
O227   O     0.42495   0.50000   0.19712   0.00000  Uiso   1.00
O228   O     0.57505   0.50000   0.13621   0.00000  Uiso   1.00
O229   O     0.42494   0.49999   0.11793   0.00000  Uiso   1.00
O230   O     0.57506   0.50001   0.21540   0.00000  Uiso   1.00
C231   C     0.65461   0.47980   0.10198   0.00000  Uiso   1.00
H232   H     0.62839   0.45268   0.09998   0.00000  Uiso   1.00
O233   O     0.66239   0.49684   0.06594   0.00000  Uiso   1.00
C234   C     0.34539   0.52020   0.23136   0.00000  Uiso   1.00
H235   H     0.37161   0.54732   0.23336   0.00000  Uiso   1.00
O236   O     0.33762   0.50315   0.26739   0.00000  Uiso   1.00
F237   F     0.48539   0.37217   0.08161   0.00000  Uiso   1.00
F238   F     0.51461   0.62783   0.25172   0.00000  Uiso   1.00
C239   C     0.42447   0.44975   0.03846   0.00000  Uiso   1.00
H240   H     0.42887   0.43737   0.07299   0.00000  Uiso   1.00
O241   O     0.38264   0.44382   0.01470   0.00000  Uiso   1.00
C242   C     0.57553   0.55025   0.29487   0.00000  Uiso   1.00
H243   H     0.57114   0.56263   0.26035   0.00000  Uiso   1.00
O244   O     0.61737   0.55618   0.31863   0.00000  Uiso   1.00
C245   C     0.44014   0.43813   0.27570   0.00000  Uiso   1.00
H246   H     0.41726   0.44303   0.24254   0.00000  Uiso   1.00
O247   O     0.44231   0.40286   0.28975   0.00000  Uiso   1.00
C248   C     0.55986   0.56187   0.05763   0.00000  Uiso   1.00
H249   H     0.58274   0.55697   0.09080   0.00000  Uiso   1.00
O250   O     0.55770   0.59714   0.04358   0.00000  Uiso   1.00
C251   C     0.83320   0.42080   0.16645   0.00000  Uiso   1.00
C252   C     0.83347   0.57920   0.16688   0.00000  Uiso   1.00
C253   C     0.73487   0.50027   0.15464   0.00000  Uiso   1.00
C254   C     0.93180   0.49973   0.17870   0.00000  Uiso   1.00
C255   C     0.67961   0.49661   0.14830   0.00000  Uiso   1.00
C256   C     0.98706   0.50339   0.18504   0.00000  Uiso   1.00
C257   C     0.82604   0.35358   0.12379   0.00000  Uiso   1.00
C258   C     0.84063   0.64642   0.20955   0.00000  Uiso   1.00
C259   C     0.82592   0.64442   0.12452   0.00000  Uiso   1.00
C260   C     0.84075   0.35558   0.20881   0.00000  Uiso   1.00
C261   C     0.83336   0.62387   0.16720   0.00000  Uiso   1.00
C262   C     0.83331   0.37613   0.16614   0.00000  Uiso   1.00
C263   C     0.79976   0.47401   0.02003   0.00000  Uiso   1.00
C264   C     0.86691   0.52599   0.31331   0.00000  Uiso   1.00
C265   C     0.80180   0.47255   0.30411   0.00000  Uiso   1.00
C266   C     0.86487   0.52745   0.02922   0.00000  Uiso   1.00
Cu267  Cu    0.83333   0.50001   0.21355   0.00000  Uiso   1.00
Cu268  Cu    0.83333   0.49999   0.11978   0.00000  Uiso   1.00
H269   H     0.81960   0.62768   0.09149   0.00000  Uiso   1.00
H270   H     0.84706   0.37232   0.24185   0.00000  Uiso   1.00
N271   N     0.83335   0.50001   0.28403   0.00000  Uiso   1.00
N272   N     0.83332   0.49999   0.04931   0.00000  Uiso   1.00
O273   O     0.83333   0.43989   0.20625   0.00000  Uiso   1.00
O274   O     0.83334   0.56011   0.12709   0.00000  Uiso   1.00
O275   O     0.83333   0.43988   0.12706   0.00000  Uiso   1.00
O276   O     0.83334   0.56012   0.20628   0.00000  Uiso   1.00
O277   O     0.75828   0.50000   0.19712   0.00000  Uiso   1.00
O278   O     0.90839   0.50000   0.13621   0.00000  Uiso   1.00
O279   O     0.75828   0.49999   0.11793   0.00000  Uiso   1.00
O280   O     0.90839   0.50001   0.21540   0.00000  Uiso   1.00
C281   C     0.98794   0.47980   0.10198   0.00000  Uiso   1.00
H282   H     0.96172   0.45268   0.09998   0.00000  Uiso   1.00
O283   O     0.99572   0.49684   0.06594   0.00000  Uiso   1.00
C284   C     0.67873   0.52020   0.23136   0.00000  Uiso   1.00
H285   H     0.70495   0.54732   0.23336   0.00000  Uiso   1.00
O286   O     0.67095   0.50315   0.26739   0.00000  Uiso   1.00
F287   F     0.81872   0.37217   0.08161   0.00000  Uiso   1.00
F288   F     0.84794   0.62783   0.25172   0.00000  Uiso   1.00
C289   C     0.75780   0.44975   0.03846   0.00000  Uiso   1.00
H290   H     0.76220   0.43737   0.07299   0.00000  Uiso   1.00
O291   O     0.71597   0.44382   0.01470   0.00000  Uiso   1.00
C292   C     0.90886   0.55025   0.29487   0.00000  Uiso   1.00
H293   H     0.90447   0.56263   0.26035   0.00000  Uiso   1.00
O294   O     0.95070   0.55618   0.31863   0.00000  Uiso   1.00
C295   C     0.77347   0.43813   0.27570   0.00000  Uiso   1.00
H296   H     0.75059   0.44303   0.24254   0.00000  Uiso   1.00
O297   O     0.77564   0.40286   0.28975   0.00000  Uiso   1.00
C298   C     0.89320   0.56187   0.05763   0.00000  Uiso   1.00
H299   H     0.91608   0.55697   0.09080   0.00000  Uiso   1.00
O300   O     0.89103   0.59714   0.04358   0.00000  Uiso   1.00
C301   C     0.16653   0.75413   0.16645   0.00000  Uiso   1.00
C302   C     0.16680   0.91253   0.16688   0.00000  Uiso   1.00
C303   C     0.06820   0.83360   0.15464   0.00000  Uiso   1.00
C304   C     0.26513   0.83307   0.17870   0.00000  Uiso   1.00
C305   C     0.01294   0.82994   0.14830   0.00000  Uiso   1.00
C306   C     0.32039   0.83672   0.18504   0.00000  Uiso   1.00
C307   C     0.15937   0.68691   0.12379   0.00000  Uiso   1.00
C308   C     0.17396   0.97976   0.20955   0.00000  Uiso   1.00
C309   C     0.15925   0.97776   0.12452   0.00000  Uiso   1.00
C310   C     0.17408   0.68891   0.20881   0.00000  Uiso   1.00
C311   C     0.16669   0.95720   0.16720   0.00000  Uiso   1.00
C312   C     0.16664   0.70946   0.16614   0.00000  Uiso   1.00
C313   C     0.13309   0.80734   0.02003   0.00000  Uiso   1.00
C314   C     0.20024   0.85932   0.31331   0.00000  Uiso   1.00
C315   C     0.13513   0.80589   0.30411   0.00000  Uiso   1.00
C316   C     0.19821   0.86078   0.02922   0.00000  Uiso   1.00
Cu317  Cu    0.16667   0.83334   0.21355   0.00000  Uiso   1.00
Cu318  Cu    0.16667   0.83333   0.11978   0.00000  Uiso   1.00
H319   H     0.15294   0.96101   0.09149   0.00000  Uiso   1.00
H320   H     0.18040   0.70565   0.24185   0.00000  Uiso   1.00
N321   N     0.16668   0.83334   0.28403   0.00000  Uiso   1.00
N322   N     0.16665   0.83332   0.04931   0.00000  Uiso   1.00
O323   O     0.16666   0.77322   0.20625   0.00000  Uiso   1.00
O324   O     0.16667   0.89345   0.12709   0.00000  Uiso   1.00
O325   O     0.16666   0.77321   0.12706   0.00000  Uiso   1.00
O326   O     0.16667   0.89346   0.20628   0.00000  Uiso   1.00
O327   O     0.09161   0.83334   0.19712   0.00000  Uiso   1.00
O328   O     0.24172   0.83333   0.13621   0.00000  Uiso   1.00
O329   O     0.09161   0.83333   0.11793   0.00000  Uiso   1.00
O330   O     0.24172   0.83334   0.21540   0.00000  Uiso   1.00
C331   C     0.32127   0.81313   0.10198   0.00000  Uiso   1.00
H332   H     0.29505   0.78602   0.09998   0.00000  Uiso   1.00
O333   O     0.32905   0.83018   0.06594   0.00000  Uiso   1.00
C334   C     0.01206   0.85353   0.23136   0.00000  Uiso   1.00
H335   H     0.03828   0.88065   0.23336   0.00000  Uiso   1.00
O336   O     0.00428   0.83649   0.26739   0.00000  Uiso   1.00
F337   F     0.15206   0.70550   0.08161   0.00000  Uiso   1.00
F338   F     0.18128   0.96116   0.25172   0.00000  Uiso   1.00
C339   C     0.09114   0.78308   0.03846   0.00000  Uiso   1.00
H340   H     0.09553   0.77071   0.07299   0.00000  Uiso   1.00
O341   O     0.04930   0.77715   0.01470   0.00000  Uiso   1.00
C342   C     0.24220   0.88358   0.29487   0.00000  Uiso   1.00
H343   H     0.23780   0.89596   0.26035   0.00000  Uiso   1.00
O344   O     0.28403   0.88951   0.31863   0.00000  Uiso   1.00
C345   C     0.10680   0.77146   0.27570   0.00000  Uiso   1.00
H346   H     0.08392   0.77636   0.24254   0.00000  Uiso   1.00
O347   O     0.10897   0.73620   0.28975   0.00000  Uiso   1.00
C348   C     0.22653   0.89521   0.05763   0.00000  Uiso   1.00
H349   H     0.24941   0.89031   0.09080   0.00000  Uiso   1.00
O350   O     0.22436   0.93047   0.04358   0.00000  Uiso   1.00
C351   C     0.49986   0.75413   0.16645   0.00000  Uiso   1.00
C352   C     0.50014   0.91253   0.16688   0.00000  Uiso   1.00
C353   C     0.40153   0.83360   0.15464   0.00000  Uiso   1.00
C354   C     0.59847   0.83307   0.17870   0.00000  Uiso   1.00
C355   C     0.34628   0.82994   0.14830   0.00000  Uiso   1.00
C356   C     0.65372   0.83672   0.18504   0.00000  Uiso   1.00
C357   C     0.49271   0.68691   0.12379   0.00000  Uiso   1.00
C358   C     0.50729   0.97976   0.20955   0.00000  Uiso   1.00
C359   C     0.49259   0.97776   0.12452   0.00000  Uiso   1.00
C360   C     0.50741   0.68891   0.20881   0.00000  Uiso   1.00
C361   C     0.50002   0.95720   0.16720   0.00000  Uiso   1.00
C362   C     0.49998   0.70946   0.16614   0.00000  Uiso   1.00
C363   C     0.46643   0.80734   0.02003   0.00000  Uiso   1.00
C364   C     0.53357   0.85932   0.31331   0.00000  Uiso   1.00
C365   C     0.46846   0.80589   0.30411   0.00000  Uiso   1.00
C366   C     0.53154   0.86078   0.02922   0.00000  Uiso   1.00
Cu367  Cu    0.50000   0.83334   0.21355   0.00000  Uiso   1.00
Cu368  Cu    0.50000   0.83333   0.11978   0.00000  Uiso   1.00
H369   H     0.48627   0.96101   0.09149   0.00000  Uiso   1.00
H370   H     0.51373   0.70565   0.24185   0.00000  Uiso   1.00
N371   N     0.50001   0.83334   0.28403   0.00000  Uiso   1.00
N372   N     0.49999   0.83332   0.04931   0.00000  Uiso   1.00
O373   O     0.50000   0.77322   0.20625   0.00000  Uiso   1.00
O374   O     0.50000   0.89345   0.12709   0.00000  Uiso   1.00
O375   O     0.50000   0.77321   0.12706   0.00000  Uiso   1.00
O376   O     0.50000   0.89346   0.20628   0.00000  Uiso   1.00
O377   O     0.42495   0.83334   0.19712   0.00000  Uiso   1.00
O378   O     0.57505   0.83333   0.13621   0.00000  Uiso   1.00
O379   O     0.42494   0.83333   0.11793   0.00000  Uiso   1.00
O380   O     0.57506   0.83334   0.21540   0.00000  Uiso   1.00
C381   C     0.65461   0.81313   0.10198   0.00000  Uiso   1.00
H382   H     0.62839   0.78602   0.09998   0.00000  Uiso   1.00
O383   O     0.66239   0.83018   0.06594   0.00000  Uiso   1.00
C384   C     0.34539   0.85353   0.23136   0.00000  Uiso   1.00
H385   H     0.37161   0.88065   0.23336   0.00000  Uiso   1.00
O386   O     0.33762   0.83649   0.26739   0.00000  Uiso   1.00
F387   F     0.48539   0.70550   0.08161   0.00000  Uiso   1.00
F388   F     0.51461   0.96116   0.25172   0.00000  Uiso   1.00
C389   C     0.42447   0.78308   0.03846   0.00000  Uiso   1.00
H390   H     0.42887   0.77071   0.07299   0.00000  Uiso   1.00
O391   O     0.38264   0.77715   0.01470   0.00000  Uiso   1.00
C392   C     0.57553   0.88358   0.29487   0.00000  Uiso   1.00
H393   H     0.57114   0.89596   0.26035   0.00000  Uiso   1.00
O394   O     0.61737   0.88951   0.31863   0.00000  Uiso   1.00
C395   C     0.44014   0.77146   0.27570   0.00000  Uiso   1.00
H396   H     0.41726   0.77636   0.24254   0.00000  Uiso   1.00
O397   O     0.44231   0.73620   0.28975   0.00000  Uiso   1.00
C398   C     0.55986   0.89521   0.05763   0.00000  Uiso   1.00
H399   H     0.58274   0.89031   0.09080   0.00000  Uiso   1.00
O400   O     0.55770   0.93047   0.04358   0.00000  Uiso   1.00
C401   C     0.83320   0.75413   0.16645   0.00000  Uiso   1.00
C402   C     0.83347   0.91253   0.16688   0.00000  Uiso   1.00
C403   C     0.73487   0.83360   0.15464   0.00000  Uiso   1.00
C404   C     0.93180   0.83307   0.17870   0.00000  Uiso   1.00
C405   C     0.67961   0.82994   0.14830   0.00000  Uiso   1.00
C406   C     0.98706   0.83672   0.18504   0.00000  Uiso   1.00
C407   C     0.82604   0.68691   0.12379   0.00000  Uiso   1.00
C408   C     0.84063   0.97976   0.20955   0.00000  Uiso   1.00
C409   C     0.82592   0.97776   0.12452   0.00000  Uiso   1.00
C410   C     0.84075   0.68891   0.20881   0.00000  Uiso   1.00
C411   C     0.83336   0.95720   0.16720   0.00000  Uiso   1.00
C412   C     0.83331   0.70946   0.16614   0.00000  Uiso   1.00
C413   C     0.79976   0.80734   0.02003   0.00000  Uiso   1.00
C414   C     0.86691   0.85932   0.31331   0.00000  Uiso   1.00
C415   C     0.80180   0.80589   0.30411   0.00000  Uiso   1.00
C416   C     0.86487   0.86078   0.02922   0.00000  Uiso   1.00
Cu417  Cu    0.83333   0.83334   0.21355   0.00000  Uiso   1.00
Cu418  Cu    0.83333   0.83333   0.11978   0.00000  Uiso   1.00
H419   H     0.81960   0.96101   0.09149   0.00000  Uiso   1.00
H420   H     0.84706   0.70565   0.24185   0.00000  Uiso   1.00
N421   N     0.83335   0.83334   0.28403   0.00000  Uiso   1.00
N422   N     0.83332   0.83332   0.04931   0.00000  Uiso   1.00
O423   O     0.83333   0.77322   0.20625   0.00000  Uiso   1.00
O424   O     0.83334   0.89345   0.12709   0.00000  Uiso   1.00
O425   O     0.83333   0.77321   0.12706   0.00000  Uiso   1.00
O426   O     0.83334   0.89346   0.20628   0.00000  Uiso   1.00
O427   O     0.75828   0.83334   0.19712   0.00000  Uiso   1.00
O428   O     0.90839   0.83333   0.13621   0.00000  Uiso   1.00
O429   O     0.75828   0.83333   0.11793   0.00000  Uiso   1.00
O430   O     0.90839   0.83334   0.21540   0.00000  Uiso   1.00
C431   C     0.98794   0.81313   0.10198   0.00000  Uiso   1.00
H432   H     0.96172   0.78602   0.09998   0.00000  Uiso   1.00
O433   O     0.99572   0.83018   0.06594   0.00000  Uiso   1.00
C434   C     0.67873   0.85353   0.23136   0.00000  Uiso   1.00
H435   H     0.70495   0.88065   0.23336   0.00000  Uiso   1.00
O436   O     0.67095   0.83649   0.26739   0.00000  Uiso   1.00
F437   F     0.81872   0.70550   0.08161   0.00000  Uiso   1.00
F438   F     0.84794   0.96116   0.25172   0.00000  Uiso   1.00
C439   C     0.75780   0.78308   0.03846   0.00000  Uiso   1.00
H440   H     0.76220   0.77071   0.07299   0.00000  Uiso   1.00
O441   O     0.71597   0.77715   0.01470   0.00000  Uiso   1.00
C442   C     0.90886   0.88358   0.29487   0.00000  Uiso   1.00
H443   H     0.90447   0.89596   0.26035   0.00000  Uiso   1.00
O444   O     0.95070   0.88951   0.31863   0.00000  Uiso   1.00
C445   C     0.77347   0.77146   0.27570   0.00000  Uiso   1.00
H446   H     0.75059   0.77636   0.24254   0.00000  Uiso   1.00
O447   O     0.77564   0.73620   0.28975   0.00000  Uiso   1.00
C448   C     0.89320   0.89521   0.05763   0.00000  Uiso   1.00
H449   H     0.91608   0.89031   0.09080   0.00000  Uiso   1.00
O450   O     0.89103   0.93047   0.04358   0.00000  Uiso   1.00
C451   C     0.16653   0.08747   0.49978   0.00000  Uiso   1.00
C452   C     0.16680   0.24587   0.50022   0.00000  Uiso   1.00
C453   C     0.06820   0.16693   0.48797   0.00000  Uiso   1.00
C454   C     0.26513   0.16640   0.51203   0.00000  Uiso   1.00
C455   C     0.01294   0.16328   0.48163   0.00000  Uiso   1.00
C456   C     0.32039   0.17006   0.51837   0.00000  Uiso   1.00
C457   C     0.15937   0.02024   0.45712   0.00000  Uiso   1.00
C458   C     0.17396   0.31309   0.54288   0.00000  Uiso   1.00
C459   C     0.15925   0.31109   0.45785   0.00000  Uiso   1.00
C460   C     0.17408   0.02224   0.54215   0.00000  Uiso   1.00
C461   C     0.16669   0.29054   0.50053   0.00000  Uiso   1.00
C462   C     0.16664   0.04280   0.49947   0.00000  Uiso   1.00
C463   C     0.13309   0.14068   0.35336   0.00000  Uiso   1.00
C464   C     0.20024   0.19266   0.64664   0.00000  Uiso   1.00
C465   C     0.13513   0.13922   0.63744   0.00000  Uiso   1.00
C466   C     0.19821   0.19411   0.36256   0.00000  Uiso   1.00
Cu467  Cu    0.16667   0.16667   0.54689   0.00000  Uiso   1.00
Cu468  Cu    0.16667   0.16666   0.45311   0.00000  Uiso   1.00
H469   H     0.15294   0.29435   0.42482   0.00000  Uiso   1.00
H470   H     0.18040   0.03899   0.57518   0.00000  Uiso   1.00
N471   N     0.16668   0.16668   0.61736   0.00000  Uiso   1.00
N472   N     0.16665   0.16666   0.38264   0.00000  Uiso   1.00
O473   O     0.16666   0.10655   0.53958   0.00000  Uiso   1.00
O474   O     0.16667   0.22678   0.46042   0.00000  Uiso   1.00
O475   O     0.16666   0.10654   0.46039   0.00000  Uiso   1.00
O476   O     0.16667   0.22679   0.53961   0.00000  Uiso   1.00
O477   O     0.09161   0.16667   0.53046   0.00000  Uiso   1.00
O478   O     0.24172   0.16666   0.46954   0.00000  Uiso   1.00
O479   O     0.09161   0.16666   0.45127   0.00000  Uiso   1.00
O480   O     0.24172   0.16667   0.54873   0.00000  Uiso   1.00
C481   C     0.32127   0.14646   0.43531   0.00000  Uiso   1.00
H482   H     0.29505   0.11935   0.43331   0.00000  Uiso   1.00
O483   O     0.32905   0.16351   0.39928   0.00000  Uiso   1.00
C484   C     0.01206   0.18687   0.56469   0.00000  Uiso   1.00
H485   H     0.03828   0.21398   0.56669   0.00000  Uiso   1.00
O486   O     0.00428   0.16982   0.60072   0.00000  Uiso   1.00
F487   F     0.15206   0.03884   0.41494   0.00000  Uiso   1.00
F488   F     0.18128   0.29450   0.58505   0.00000  Uiso   1.00
C489   C     0.09114   0.11641   0.37179   0.00000  Uiso   1.00
H490   H     0.09553   0.10404   0.40632   0.00000  Uiso   1.00
O491   O     0.04930   0.11048   0.34803   0.00000  Uiso   1.00
C492   C     0.24220   0.21692   0.62821   0.00000  Uiso   1.00
H493   H     0.23780   0.22929   0.59368   0.00000  Uiso   1.00
O494   O     0.28403   0.22284   0.65196   0.00000  Uiso   1.00
C495   C     0.10680   0.10479   0.60904   0.00000  Uiso   1.00
H496   H     0.08392   0.10969   0.57587   0.00000  Uiso   1.00
O497   O     0.10897   0.06953   0.62308   0.00000  Uiso   1.00
C498   C     0.22653   0.22854   0.39096   0.00000  Uiso   1.00
H499   H     0.24941   0.22364   0.42413   0.00000  Uiso   1.00
O500   O     0.22436   0.26380   0.37691   0.00000  Uiso   1.00
C501   C     0.49986   0.08747   0.49978   0.00000  Uiso   1.00
C502   C     0.50014   0.24587   0.50022   0.00000  Uiso   1.00
C503   C     0.40153   0.16693   0.48797   0.00000  Uiso   1.00
C504   C     0.59847   0.16640   0.51203   0.00000  Uiso   1.00
C505   C     0.34628   0.16328   0.48163   0.00000  Uiso   1.00
C506   C     0.65372   0.17006   0.51837   0.00000  Uiso   1.00
C507   C     0.49271   0.02024   0.45712   0.00000  Uiso   1.00
C508   C     0.50729   0.31309   0.54288   0.00000  Uiso   1.00
C509   C     0.49259   0.31109   0.45785   0.00000  Uiso   1.00
C510   C     0.50741   0.02224   0.54215   0.00000  Uiso   1.00
C511   C     0.50002   0.29054   0.50053   0.00000  Uiso   1.00
C512   C     0.49998   0.04280   0.49947   0.00000  Uiso   1.00
C513   C     0.46643   0.14068   0.35336   0.00000  Uiso   1.00
C514   C     0.53357   0.19266   0.64664   0.00000  Uiso   1.00
C515   C     0.46846   0.13922   0.63744   0.00000  Uiso   1.00
C516   C     0.53154   0.19411   0.36256   0.00000  Uiso   1.00
Cu517  Cu    0.50000   0.16667   0.54689   0.00000  Uiso   1.00
Cu518  Cu    0.50000   0.16666   0.45311   0.00000  Uiso   1.00
H519   H     0.48627   0.29435   0.42482   0.00000  Uiso   1.00
H520   H     0.51373   0.03899   0.57518   0.00000  Uiso   1.00
N521   N     0.50001   0.16668   0.61736   0.00000  Uiso   1.00
N522   N     0.49999   0.16666   0.38264   0.00000  Uiso   1.00
O523   O     0.50000   0.10655   0.53958   0.00000  Uiso   1.00
O524   O     0.50000   0.22678   0.46042   0.00000  Uiso   1.00
O525   O     0.50000   0.10654   0.46039   0.00000  Uiso   1.00
O526   O     0.50000   0.22679   0.53961   0.00000  Uiso   1.00
O527   O     0.42495   0.16667   0.53046   0.00000  Uiso   1.00
O528   O     0.57505   0.16666   0.46954   0.00000  Uiso   1.00
O529   O     0.42494   0.16666   0.45127   0.00000  Uiso   1.00
O530   O     0.57506   0.16667   0.54873   0.00000  Uiso   1.00
C531   C     0.65461   0.14646   0.43531   0.00000  Uiso   1.00
H532   H     0.62839   0.11935   0.43331   0.00000  Uiso   1.00
O533   O     0.66239   0.16351   0.39928   0.00000  Uiso   1.00
C534   C     0.34539   0.18687   0.56469   0.00000  Uiso   1.00
H535   H     0.37161   0.21398   0.56669   0.00000  Uiso   1.00
O536   O     0.33762   0.16982   0.60072   0.00000  Uiso   1.00
F537   F     0.48539   0.03884   0.41494   0.00000  Uiso   1.00
F538   F     0.51461   0.29450   0.58505   0.00000  Uiso   1.00
C539   C     0.42447   0.11641   0.37179   0.00000  Uiso   1.00
H540   H     0.42887   0.10404   0.40632   0.00000  Uiso   1.00
O541   O     0.38264   0.11048   0.34803   0.00000  Uiso   1.00
C542   C     0.57553   0.21692   0.62821   0.00000  Uiso   1.00
H543   H     0.57114   0.22929   0.59368   0.00000  Uiso   1.00
O544   O     0.61737   0.22284   0.65196   0.00000  Uiso   1.00
C545   C     0.44014   0.10479   0.60904   0.00000  Uiso   1.00
H546   H     0.41726   0.10969   0.57587   0.00000  Uiso   1.00
O547   O     0.44231   0.06953   0.62308   0.00000  Uiso   1.00
C548   C     0.55986   0.22854   0.39096   0.00000  Uiso   1.00
H549   H     0.58274   0.22364   0.42413   0.00000  Uiso   1.00
O550   O     0.55770   0.26380   0.37691   0.00000  Uiso   1.00
C551   C     0.83320   0.08747   0.49978   0.00000  Uiso   1.00
C552   C     0.83347   0.24587   0.50022   0.00000  Uiso   1.00
C553   C     0.73487   0.16693   0.48797   0.00000  Uiso   1.00
C554   C     0.93180   0.16640   0.51203   0.00000  Uiso   1.00
C555   C     0.67961   0.16328   0.48163   0.00000  Uiso   1.00
C556   C     0.98706   0.17006   0.51837   0.00000  Uiso   1.00
C557   C     0.82604   0.02024   0.45712   0.00000  Uiso   1.00
C558   C     0.84063   0.31309   0.54288   0.00000  Uiso   1.00
C559   C     0.82592   0.31109   0.45785   0.00000  Uiso   1.00
C560   C     0.84075   0.02224   0.54215   0.00000  Uiso   1.00
C561   C     0.83336   0.29054   0.50053   0.00000  Uiso   1.00
C562   C     0.83331   0.04280   0.49947   0.00000  Uiso   1.00
C563   C     0.79976   0.14068   0.35336   0.00000  Uiso   1.00
C564   C     0.86691   0.19266   0.64664   0.00000  Uiso   1.00
C565   C     0.80180   0.13922   0.63744   0.00000  Uiso   1.00
C566   C     0.86487   0.19411   0.36256   0.00000  Uiso   1.00
Cu567  Cu    0.83333   0.16667   0.54689   0.00000  Uiso   1.00
Cu568  Cu    0.83333   0.16666   0.45311   0.00000  Uiso   1.00
H569   H     0.81960   0.29435   0.42482   0.00000  Uiso   1.00
H570   H     0.84706   0.03899   0.57518   0.00000  Uiso   1.00
N571   N     0.83335   0.16668   0.61736   0.00000  Uiso   1.00
N572   N     0.83332   0.16666   0.38264   0.00000  Uiso   1.00
O573   O     0.83333   0.10655   0.53958   0.00000  Uiso   1.00
O574   O     0.83334   0.22678   0.46042   0.00000  Uiso   1.00
O575   O     0.83333   0.10654   0.46039   0.00000  Uiso   1.00
O576   O     0.83334   0.22679   0.53961   0.00000  Uiso   1.00
O577   O     0.75828   0.16667   0.53046   0.00000  Uiso   1.00
O578   O     0.90839   0.16666   0.46954   0.00000  Uiso   1.00
O579   O     0.75828   0.16666   0.45127   0.00000  Uiso   1.00
O580   O     0.90839   0.16667   0.54873   0.00000  Uiso   1.00
C581   C     0.98794   0.14646   0.43531   0.00000  Uiso   1.00
H582   H     0.96172   0.11935   0.43331   0.00000  Uiso   1.00
O583   O     0.99572   0.16351   0.39928   0.00000  Uiso   1.00
C584   C     0.67873   0.18687   0.56469   0.00000  Uiso   1.00
H585   H     0.70495   0.21398   0.56669   0.00000  Uiso   1.00
O586   O     0.67095   0.16982   0.60072   0.00000  Uiso   1.00
F587   F     0.81872   0.03884   0.41494   0.00000  Uiso   1.00
F588   F     0.84794   0.29450   0.58505   0.00000  Uiso   1.00
C589   C     0.75780   0.11641   0.37179   0.00000  Uiso   1.00
H590   H     0.76220   0.10404   0.40632   0.00000  Uiso   1.00
O591   O     0.71597   0.11048   0.34803   0.00000  Uiso   1.00
C592   C     0.90886   0.21692   0.62821   0.00000  Uiso   1.00
H593   H     0.90447   0.22929   0.59368   0.00000  Uiso   1.00
O594   O     0.95070   0.22284   0.65196   0.00000  Uiso   1.00
C595   C     0.77347   0.10479   0.60904   0.00000  Uiso   1.00
H596   H     0.75059   0.10969   0.57587   0.00000  Uiso   1.00
O597   O     0.77564   0.06953   0.62308   0.00000  Uiso   1.00
C598   C     0.89320   0.22854   0.39096   0.00000  Uiso   1.00
H599   H     0.91608   0.22364   0.42413   0.00000  Uiso   1.00
O600   O     0.89103   0.26380   0.37691   0.00000  Uiso   1.00
C601   C     0.16653   0.42080   0.49978   0.00000  Uiso   1.00
C602   C     0.16680   0.57920   0.50022   0.00000  Uiso   1.00
C603   C     0.06820   0.50027   0.48797   0.00000  Uiso   1.00
C604   C     0.26513   0.49973   0.51203   0.00000  Uiso   1.00
C605   C     0.01294   0.49661   0.48163   0.00000  Uiso   1.00
C606   C     0.32039   0.50339   0.51837   0.00000  Uiso   1.00
C607   C     0.15937   0.35358   0.45712   0.00000  Uiso   1.00
C608   C     0.17396   0.64642   0.54288   0.00000  Uiso   1.00
C609   C     0.15925   0.64442   0.45785   0.00000  Uiso   1.00
C610   C     0.17408   0.35558   0.54215   0.00000  Uiso   1.00
C611   C     0.16669   0.62387   0.50053   0.00000  Uiso   1.00
C612   C     0.16664   0.37613   0.49947   0.00000  Uiso   1.00
C613   C     0.13309   0.47401   0.35336   0.00000  Uiso   1.00
C614   C     0.20024   0.52599   0.64664   0.00000  Uiso   1.00
C615   C     0.13513   0.47255   0.63744   0.00000  Uiso   1.00
C616   C     0.19821   0.52745   0.36256   0.00000  Uiso   1.00
Cu617  Cu    0.16667   0.50001   0.54689   0.00000  Uiso   1.00
Cu618  Cu    0.16667   0.49999   0.45311   0.00000  Uiso   1.00
H619   H     0.15294   0.62768   0.42482   0.00000  Uiso   1.00
H620   H     0.18040   0.37232   0.57518   0.00000  Uiso   1.00
N621   N     0.16668   0.50001   0.61736   0.00000  Uiso   1.00
N622   N     0.16665   0.49999   0.38264   0.00000  Uiso   1.00
O623   O     0.16666   0.43989   0.53958   0.00000  Uiso   1.00
O624   O     0.16667   0.56011   0.46042   0.00000  Uiso   1.00
O625   O     0.16666   0.43988   0.46039   0.00000  Uiso   1.00
O626   O     0.16667   0.56012   0.53961   0.00000  Uiso   1.00
O627   O     0.09161   0.50000   0.53046   0.00000  Uiso   1.00
O628   O     0.24172   0.50000   0.46954   0.00000  Uiso   1.00
O629   O     0.09161   0.49999   0.45127   0.00000  Uiso   1.00
O630   O     0.24172   0.50001   0.54873   0.00000  Uiso   1.00
C631   C     0.32127   0.47980   0.43531   0.00000  Uiso   1.00
H632   H     0.29505   0.45268   0.43331   0.00000  Uiso   1.00
O633   O     0.32905   0.49684   0.39928   0.00000  Uiso   1.00
C634   C     0.01206   0.52020   0.56469   0.00000  Uiso   1.00
H635   H     0.03828   0.54732   0.56669   0.00000  Uiso   1.00
O636   O     0.00428   0.50315   0.60072   0.00000  Uiso   1.00
F637   F     0.15206   0.37217   0.41494   0.00000  Uiso   1.00
F638   F     0.18128   0.62783   0.58505   0.00000  Uiso   1.00
C639   C     0.09114   0.44975   0.37179   0.00000  Uiso   1.00
H640   H     0.09553   0.43737   0.40632   0.00000  Uiso   1.00
O641   O     0.04930   0.44382   0.34803   0.00000  Uiso   1.00
C642   C     0.24220   0.55025   0.62821   0.00000  Uiso   1.00
H643   H     0.23780   0.56263   0.59368   0.00000  Uiso   1.00
O644   O     0.28403   0.55618   0.65196   0.00000  Uiso   1.00
C645   C     0.10680   0.43813   0.60904   0.00000  Uiso   1.00
H646   H     0.08392   0.44303   0.57587   0.00000  Uiso   1.00
O647   O     0.10897   0.40286   0.62308   0.00000  Uiso   1.00
C648   C     0.22653   0.56187   0.39096   0.00000  Uiso   1.00
H649   H     0.24941   0.55697   0.42413   0.00000  Uiso   1.00
O650   O     0.22436   0.59714   0.37691   0.00000  Uiso   1.00
C651   C     0.49986   0.42080   0.49978   0.00000  Uiso   1.00
C652   C     0.50014   0.57920   0.50022   0.00000  Uiso   1.00
C653   C     0.40153   0.50027   0.48797   0.00000  Uiso   1.00
C654   C     0.59847   0.49973   0.51203   0.00000  Uiso   1.00
C655   C     0.34628   0.49661   0.48163   0.00000  Uiso   1.00
C656   C     0.65372   0.50339   0.51837   0.00000  Uiso   1.00
C657   C     0.49271   0.35358   0.45712   0.00000  Uiso   1.00
C658   C     0.50729   0.64642   0.54288   0.00000  Uiso   1.00
C659   C     0.49259   0.64442   0.45785   0.00000  Uiso   1.00
C660   C     0.50741   0.35558   0.54215   0.00000  Uiso   1.00
C661   C     0.50002   0.62387   0.50053   0.00000  Uiso   1.00
C662   C     0.49998   0.37613   0.49947   0.00000  Uiso   1.00
C663   C     0.46643   0.47401   0.35336   0.00000  Uiso   1.00
C664   C     0.53357   0.52599   0.64664   0.00000  Uiso   1.00
C665   C     0.46846   0.47255   0.63744   0.00000  Uiso   1.00
C666   C     0.53154   0.52745   0.36256   0.00000  Uiso   1.00
Cu667  Cu    0.50000   0.50001   0.54689   0.00000  Uiso   1.00
Cu668  Cu    0.50000   0.49999   0.45311   0.00000  Uiso   1.00
H669   H     0.48627   0.62768   0.42482   0.00000  Uiso   1.00
H670   H     0.51373   0.37232   0.57518   0.00000  Uiso   1.00
N671   N     0.50001   0.50001   0.61736   0.00000  Uiso   1.00
N672   N     0.49999   0.49999   0.38264   0.00000  Uiso   1.00
O673   O     0.50000   0.43989   0.53958   0.00000  Uiso   1.00
O674   O     0.50000   0.56011   0.46042   0.00000  Uiso   1.00
O675   O     0.50000   0.43988   0.46039   0.00000  Uiso   1.00
O676   O     0.50000   0.56012   0.53961   0.00000  Uiso   1.00
O677   O     0.42495   0.50000   0.53046   0.00000  Uiso   1.00
O678   O     0.57505   0.50000   0.46954   0.00000  Uiso   1.00
O679   O     0.42494   0.49999   0.45127   0.00000  Uiso   1.00
O680   O     0.57506   0.50001   0.54873   0.00000  Uiso   1.00
C681   C     0.65461   0.47980   0.43531   0.00000  Uiso   1.00
H682   H     0.62839   0.45268   0.43331   0.00000  Uiso   1.00
O683   O     0.66239   0.49684   0.39928   0.00000  Uiso   1.00
C684   C     0.34539   0.52020   0.56469   0.00000  Uiso   1.00
H685   H     0.37161   0.54732   0.56669   0.00000  Uiso   1.00
O686   O     0.33762   0.50315   0.60072   0.00000  Uiso   1.00
F687   F     0.48539   0.37217   0.41494   0.00000  Uiso   1.00
F688   F     0.51461   0.62783   0.58505   0.00000  Uiso   1.00
C689   C     0.42447   0.44975   0.37179   0.00000  Uiso   1.00
H690   H     0.42887   0.43737   0.40632   0.00000  Uiso   1.00
O691   O     0.38264   0.44382   0.34803   0.00000  Uiso   1.00
C692   C     0.57553   0.55025   0.62821   0.00000  Uiso   1.00
H693   H     0.57114   0.56263   0.59368   0.00000  Uiso   1.00
O694   O     0.61737   0.55618   0.65196   0.00000  Uiso   1.00
C695   C     0.44014   0.43813   0.60904   0.00000  Uiso   1.00
H696   H     0.41726   0.44303   0.57587   0.00000  Uiso   1.00
O697   O     0.44231   0.40286   0.62308   0.00000  Uiso   1.00
C698   C     0.55986   0.56187   0.39096   0.00000  Uiso   1.00
H699   H     0.58274   0.55697   0.42413   0.00000  Uiso   1.00
O700   O     0.55770   0.59714   0.37691   0.00000  Uiso   1.00
C701   C     0.83320   0.42080   0.49978   0.00000  Uiso   1.00
C702   C     0.83347   0.57920   0.50022   0.00000  Uiso   1.00
C703   C     0.73487   0.50027   0.48797   0.00000  Uiso   1.00
C704   C     0.93180   0.49973   0.51203   0.00000  Uiso   1.00
C705   C     0.67961   0.49661   0.48163   0.00000  Uiso   1.00
C706   C     0.98706   0.50339   0.51837   0.00000  Uiso   1.00
C707   C     0.82604   0.35358   0.45712   0.00000  Uiso   1.00
C708   C     0.84063   0.64642   0.54288   0.00000  Uiso   1.00
C709   C     0.82592   0.64442   0.45785   0.00000  Uiso   1.00
C710   C     0.84075   0.35558   0.54215   0.00000  Uiso   1.00
C711   C     0.83336   0.62387   0.50053   0.00000  Uiso   1.00
C712   C     0.83331   0.37613   0.49947   0.00000  Uiso   1.00
C713   C     0.79976   0.47401   0.35336   0.00000  Uiso   1.00
C714   C     0.86691   0.52599   0.64664   0.00000  Uiso   1.00
C715   C     0.80180   0.47255   0.63744   0.00000  Uiso   1.00
C716   C     0.86487   0.52745   0.36256   0.00000  Uiso   1.00
Cu717  Cu    0.83333   0.50001   0.54689   0.00000  Uiso   1.00
Cu718  Cu    0.83333   0.49999   0.45311   0.00000  Uiso   1.00
H719   H     0.81960   0.62768   0.42482   0.00000  Uiso   1.00
H720   H     0.84706   0.37232   0.57518   0.00000  Uiso   1.00
N721   N     0.83335   0.50001   0.61736   0.00000  Uiso   1.00
N722   N     0.83332   0.49999   0.38264   0.00000  Uiso   1.00
O723   O     0.83333   0.43989   0.53958   0.00000  Uiso   1.00
O724   O     0.83334   0.56011   0.46042   0.00000  Uiso   1.00
O725   O     0.83333   0.43988   0.46039   0.00000  Uiso   1.00
O726   O     0.83334   0.56012   0.53961   0.00000  Uiso   1.00
O727   O     0.75828   0.50000   0.53046   0.00000  Uiso   1.00
O728   O     0.90839   0.50000   0.46954   0.00000  Uiso   1.00
O729   O     0.75828   0.49999   0.45127   0.00000  Uiso   1.00
O730   O     0.90839   0.50001   0.54873   0.00000  Uiso   1.00
C731   C     0.98794   0.47980   0.43531   0.00000  Uiso   1.00
H732   H     0.96172   0.45268   0.43331   0.00000  Uiso   1.00
O733   O     0.99572   0.49684   0.39928   0.00000  Uiso   1.00
C734   C     0.67873   0.52020   0.56469   0.00000  Uiso   1.00
H735   H     0.70495   0.54732   0.56669   0.00000  Uiso   1.00
O736   O     0.67095   0.50315   0.60072   0.00000  Uiso   1.00
F737   F     0.81872   0.37217   0.41494   0.00000  Uiso   1.00
F738   F     0.84794   0.62783   0.58505   0.00000  Uiso   1.00
C739   C     0.75780   0.44975   0.37179   0.00000  Uiso   1.00
H740   H     0.76220   0.43737   0.40632   0.00000  Uiso   1.00
O741   O     0.71597   0.44382   0.34803   0.00000  Uiso   1.00
C742   C     0.90886   0.55025   0.62821   0.00000  Uiso   1.00
H743   H     0.90447   0.56263   0.59368   0.00000  Uiso   1.00
O744   O     0.95070   0.55618   0.65196   0.00000  Uiso   1.00
C745   C     0.77347   0.43813   0.60904   0.00000  Uiso   1.00
H746   H     0.75059   0.44303   0.57587   0.00000  Uiso   1.00
O747   O     0.77564   0.40286   0.62308   0.00000  Uiso   1.00
C748   C     0.89320   0.56187   0.39096   0.00000  Uiso   1.00
H749   H     0.91608   0.55697   0.42413   0.00000  Uiso   1.00
O750   O     0.89103   0.59714   0.37691   0.00000  Uiso   1.00
C751   C     0.16653   0.75413   0.49978   0.00000  Uiso   1.00
C752   C     0.16680   0.91253   0.50022   0.00000  Uiso   1.00
C753   C     0.06820   0.83360   0.48797   0.00000  Uiso   1.00
C754   C     0.26513   0.83307   0.51203   0.00000  Uiso   1.00
C755   C     0.01294   0.82994   0.48163   0.00000  Uiso   1.00
C756   C     0.32039   0.83672   0.51837   0.00000  Uiso   1.00
C757   C     0.15937   0.68691   0.45712   0.00000  Uiso   1.00
C758   C     0.17396   0.97976   0.54288   0.00000  Uiso   1.00
C759   C     0.15925   0.97776   0.45785   0.00000  Uiso   1.00
C760   C     0.17408   0.68891   0.54215   0.00000  Uiso   1.00
C761   C     0.16669   0.95720   0.50053   0.00000  Uiso   1.00
C762   C     0.16664   0.70946   0.49947   0.00000  Uiso   1.00
C763   C     0.13309   0.80734   0.35336   0.00000  Uiso   1.00
C764   C     0.20024   0.85932   0.64664   0.00000  Uiso   1.00
C765   C     0.13513   0.80589   0.63744   0.00000  Uiso   1.00
C766   C     0.19821   0.86078   0.36256   0.00000  Uiso   1.00
Cu767  Cu    0.16667   0.83334   0.54689   0.00000  Uiso   1.00
Cu768  Cu    0.16667   0.83333   0.45311   0.00000  Uiso   1.00
H769   H     0.15294   0.96101   0.42482   0.00000  Uiso   1.00
H770   H     0.18040   0.70565   0.57518   0.00000  Uiso   1.00
N771   N     0.16668   0.83334   0.61736   0.00000  Uiso   1.00
N772   N     0.16665   0.83332   0.38264   0.00000  Uiso   1.00
O773   O     0.16666   0.77322   0.53958   0.00000  Uiso   1.00
O774   O     0.16667   0.89345   0.46042   0.00000  Uiso   1.00
O775   O     0.16666   0.77321   0.46039   0.00000  Uiso   1.00
O776   O     0.16667   0.89346   0.53961   0.00000  Uiso   1.00
O777   O     0.09161   0.83334   0.53046   0.00000  Uiso   1.00
O778   O     0.24172   0.83333   0.46954   0.00000  Uiso   1.00
O779   O     0.09161   0.83333   0.45127   0.00000  Uiso   1.00
O780   O     0.24172   0.83334   0.54873   0.00000  Uiso   1.00
C781   C     0.32127   0.81313   0.43531   0.00000  Uiso   1.00
H782   H     0.29505   0.78602   0.43331   0.00000  Uiso   1.00
O783   O     0.32905   0.83018   0.39928   0.00000  Uiso   1.00
C784   C     0.01206   0.85353   0.56469   0.00000  Uiso   1.00
H785   H     0.03828   0.88065   0.56669   0.00000  Uiso   1.00
O786   O     0.00428   0.83649   0.60072   0.00000  Uiso   1.00
F787   F     0.15206   0.70550   0.41494   0.00000  Uiso   1.00
F788   F     0.18128   0.96116   0.58505   0.00000  Uiso   1.00
C789   C     0.09114   0.78308   0.37179   0.00000  Uiso   1.00
H790   H     0.09553   0.77071   0.40632   0.00000  Uiso   1.00
O791   O     0.04930   0.77715   0.34803   0.00000  Uiso   1.00
C792   C     0.24220   0.88358   0.62821   0.00000  Uiso   1.00
H793   H     0.23780   0.89596   0.59368   0.00000  Uiso   1.00
O794   O     0.28403   0.88951   0.65196   0.00000  Uiso   1.00
C795   C     0.10680   0.77146   0.60904   0.00000  Uiso   1.00
H796   H     0.08392   0.77636   0.57587   0.00000  Uiso   1.00
O797   O     0.10897   0.73620   0.62308   0.00000  Uiso   1.00
C798   C     0.22653   0.89521   0.39096   0.00000  Uiso   1.00
H799   H     0.24941   0.89031   0.42413   0.00000  Uiso   1.00
O800   O     0.22436   0.93047   0.37691   0.00000  Uiso   1.00
C801   C     0.49986   0.75413   0.49978   0.00000  Uiso   1.00
C802   C     0.50014   0.91253   0.50022   0.00000  Uiso   1.00
C803   C     0.40153   0.83360   0.48797   0.00000  Uiso   1.00
C804   C     0.59847   0.83307   0.51203   0.00000  Uiso   1.00
C805   C     0.34628   0.82994   0.48163   0.00000  Uiso   1.00
C806   C     0.65372   0.83672   0.51837   0.00000  Uiso   1.00
C807   C     0.49271   0.68691   0.45712   0.00000  Uiso   1.00
C808   C     0.50729   0.97976   0.54288   0.00000  Uiso   1.00
C809   C     0.49259   0.97776   0.45785   0.00000  Uiso   1.00
C810   C     0.50741   0.68891   0.54215   0.00000  Uiso   1.00
C811   C     0.50002   0.95720   0.50053   0.00000  Uiso   1.00
C812   C     0.49998   0.70946   0.49947   0.00000  Uiso   1.00
C813   C     0.46643   0.80734   0.35336   0.00000  Uiso   1.00
C814   C     0.53357   0.85932   0.64664   0.00000  Uiso   1.00
C815   C     0.46846   0.80589   0.63744   0.00000  Uiso   1.00
C816   C     0.53154   0.86078   0.36256   0.00000  Uiso   1.00
Cu817  Cu    0.50000   0.83334   0.54689   0.00000  Uiso   1.00
Cu818  Cu    0.50000   0.83333   0.45311   0.00000  Uiso   1.00
H819   H     0.48627   0.96101   0.42482   0.00000  Uiso   1.00
H820   H     0.51373   0.70565   0.57518   0.00000  Uiso   1.00
N821   N     0.50001   0.83334   0.61736   0.00000  Uiso   1.00
N822   N     0.49999   0.83332   0.38264   0.00000  Uiso   1.00
O823   O     0.50000   0.77322   0.53958   0.00000  Uiso   1.00
O824   O     0.50000   0.89345   0.46042   0.00000  Uiso   1.00
O825   O     0.50000   0.77321   0.46039   0.00000  Uiso   1.00
O826   O     0.50000   0.89346   0.53961   0.00000  Uiso   1.00
O827   O     0.42495   0.83334   0.53046   0.00000  Uiso   1.00
O828   O     0.57505   0.83333   0.46954   0.00000  Uiso   1.00
O829   O     0.42494   0.83333   0.45127   0.00000  Uiso   1.00
O830   O     0.57506   0.83334   0.54873   0.00000  Uiso   1.00
C831   C     0.65461   0.81313   0.43531   0.00000  Uiso   1.00
H832   H     0.62839   0.78602   0.43331   0.00000  Uiso   1.00
O833   O     0.66239   0.83018   0.39928   0.00000  Uiso   1.00
C834   C     0.34539   0.85353   0.56469   0.00000  Uiso   1.00
H835   H     0.37161   0.88065   0.56669   0.00000  Uiso   1.00
O836   O     0.33762   0.83649   0.60072   0.00000  Uiso   1.00
F837   F     0.48539   0.70550   0.41494   0.00000  Uiso   1.00
F838   F     0.51461   0.96116   0.58505   0.00000  Uiso   1.00
C839   C     0.42447   0.78308   0.37179   0.00000  Uiso   1.00
H840   H     0.42887   0.77071   0.40632   0.00000  Uiso   1.00
O841   O     0.38264   0.77715   0.34803   0.00000  Uiso   1.00
C842   C     0.57553   0.88358   0.62821   0.00000  Uiso   1.00
H843   H     0.57114   0.89596   0.59368   0.00000  Uiso   1.00
O844   O     0.61737   0.88951   0.65196   0.00000  Uiso   1.00
C845   C     0.44014   0.77146   0.60904   0.00000  Uiso   1.00
H846   H     0.41726   0.77636   0.57587   0.00000  Uiso   1.00
O847   O     0.44231   0.73620   0.62308   0.00000  Uiso   1.00
C848   C     0.55986   0.89521   0.39096   0.00000  Uiso   1.00
H849   H     0.58274   0.89031   0.42413   0.00000  Uiso   1.00
O850   O     0.55770   0.93047   0.37691   0.00000  Uiso   1.00
C851   C     0.83320   0.75413   0.49978   0.00000  Uiso   1.00
C852   C     0.83347   0.91253   0.50022   0.00000  Uiso   1.00
C853   C     0.73487   0.83360   0.48797   0.00000  Uiso   1.00
C854   C     0.93180   0.83307   0.51203   0.00000  Uiso   1.00
C855   C     0.67961   0.82994   0.48163   0.00000  Uiso   1.00
C856   C     0.98706   0.83672   0.51837   0.00000  Uiso   1.00
C857   C     0.82604   0.68691   0.45712   0.00000  Uiso   1.00
C858   C     0.84063   0.97976   0.54288   0.00000  Uiso   1.00
C859   C     0.82592   0.97776   0.45785   0.00000  Uiso   1.00
C860   C     0.84075   0.68891   0.54215   0.00000  Uiso   1.00
C861   C     0.83336   0.95720   0.50053   0.00000  Uiso   1.00
C862   C     0.83331   0.70946   0.49947   0.00000  Uiso   1.00
C863   C     0.79976   0.80734   0.35336   0.00000  Uiso   1.00
C864   C     0.86691   0.85932   0.64664   0.00000  Uiso   1.00
C865   C     0.80180   0.80589   0.63744   0.00000  Uiso   1.00
C866   C     0.86487   0.86078   0.36256   0.00000  Uiso   1.00
Cu867  Cu    0.83333   0.83334   0.54689   0.00000  Uiso   1.00
Cu868  Cu    0.83333   0.83333   0.45311   0.00000  Uiso   1.00
H869   H     0.81960   0.96101   0.42482   0.00000  Uiso   1.00
H870   H     0.84706   0.70565   0.57518   0.00000  Uiso   1.00
N871   N     0.83335   0.83334   0.61736   0.00000  Uiso   1.00
N872   N     0.83332   0.83332   0.38264   0.00000  Uiso   1.00
O873   O     0.83333   0.77322   0.53958   0.00000  Uiso   1.00
O874   O     0.83334   0.89345   0.46042   0.00000  Uiso   1.00
O875   O     0.83333   0.77321   0.46039   0.00000  Uiso   1.00
O876   O     0.83334   0.89346   0.53961   0.00000  Uiso   1.00
O877   O     0.75828   0.83334   0.53046   0.00000  Uiso   1.00
O878   O     0.90839   0.83333   0.46954   0.00000  Uiso   1.00
O879   O     0.75828   0.83333   0.45127   0.00000  Uiso   1.00
O880   O     0.90839   0.83334   0.54873   0.00000  Uiso   1.00
C881   C     0.98794   0.81313   0.43531   0.00000  Uiso   1.00
H882   H     0.96172   0.78602   0.43331   0.00000  Uiso   1.00
O883   O     0.99572   0.83018   0.39928   0.00000  Uiso   1.00
C884   C     0.67873   0.85353   0.56469   0.00000  Uiso   1.00
H885   H     0.70495   0.88065   0.56669   0.00000  Uiso   1.00
O886   O     0.67095   0.83649   0.60072   0.00000  Uiso   1.00
F887   F     0.81872   0.70550   0.41494   0.00000  Uiso   1.00
F888   F     0.84794   0.96116   0.58505   0.00000  Uiso   1.00
C889   C     0.75780   0.78308   0.37179   0.00000  Uiso   1.00
H890   H     0.76220   0.77071   0.40632   0.00000  Uiso   1.00
O891   O     0.71597   0.77715   0.34803   0.00000  Uiso   1.00
C892   C     0.90886   0.88358   0.62821   0.00000  Uiso   1.00
H893   H     0.90447   0.89596   0.59368   0.00000  Uiso   1.00
O894   O     0.95070   0.88951   0.65196   0.00000  Uiso   1.00
C895   C     0.77347   0.77146   0.60904   0.00000  Uiso   1.00
H896   H     0.75059   0.77636   0.57587   0.00000  Uiso   1.00
O897   O     0.77564   0.73620   0.62308   0.00000  Uiso   1.00
C898   C     0.89320   0.89521   0.39096   0.00000  Uiso   1.00
H899   H     0.91608   0.89031   0.42413   0.00000  Uiso   1.00
O900   O     0.89103   0.93047   0.37691   0.00000  Uiso   1.00
C901   C     0.16653   0.08747   0.83312   0.00000  Uiso   1.00
C902   C     0.16680   0.24587   0.83355   0.00000  Uiso   1.00
C903   C     0.06820   0.16693   0.82130   0.00000  Uiso   1.00
C904   C     0.26513   0.16640   0.84536   0.00000  Uiso   1.00
C905   C     0.01294   0.16328   0.81496   0.00000  Uiso   1.00
C906   C     0.32039   0.17006   0.85170   0.00000  Uiso   1.00
C907   C     0.15937   0.02024   0.79045   0.00000  Uiso   1.00
C908   C     0.17396   0.31309   0.87621   0.00000  Uiso   1.00
C909   C     0.15925   0.31109   0.79119   0.00000  Uiso   1.00
C910   C     0.17408   0.02224   0.87548   0.00000  Uiso   1.00
C911   C     0.16669   0.29054   0.83386   0.00000  Uiso   1.00
C912   C     0.16664   0.04280   0.83280   0.00000  Uiso   1.00
C913   C     0.13309   0.14068   0.68669   0.00000  Uiso   1.00
C914   C     0.20024   0.19266   0.97997   0.00000  Uiso   1.00
C915   C     0.13513   0.13922   0.97078   0.00000  Uiso   1.00
C916   C     0.19821   0.19411   0.69589   0.00000  Uiso   1.00
Cu917  Cu    0.16667   0.16667   0.88022   0.00000  Uiso   1.00
Cu918  Cu    0.16667   0.16666   0.78645   0.00000  Uiso   1.00
H919   H     0.15294   0.29435   0.75815   0.00000  Uiso   1.00
H920   H     0.18040   0.03899   0.90851   0.00000  Uiso   1.00
N921   N     0.16668   0.16668   0.95069   0.00000  Uiso   1.00
N922   N     0.16665   0.16666   0.71597   0.00000  Uiso   1.00
O923   O     0.16666   0.10655   0.87291   0.00000  Uiso   1.00
O924   O     0.16667   0.22678   0.79375   0.00000  Uiso   1.00
O925   O     0.16666   0.10654   0.79372   0.00000  Uiso   1.00
O926   O     0.16667   0.22679   0.87294   0.00000  Uiso   1.00
O927   O     0.09161   0.16667   0.86379   0.00000  Uiso   1.00
O928   O     0.24172   0.16666   0.80288   0.00000  Uiso   1.00
O929   O     0.09161   0.16666   0.78460   0.00000  Uiso   1.00
O930   O     0.24172   0.16667   0.88207   0.00000  Uiso   1.00
C931   C     0.32127   0.14646   0.76864   0.00000  Uiso   1.00
H932   H     0.29505   0.11935   0.76664   0.00000  Uiso   1.00
O933   O     0.32905   0.16351   0.73261   0.00000  Uiso   1.00
C934   C     0.01206   0.18687   0.89802   0.00000  Uiso   1.00
H935   H     0.03828   0.21398   0.90002   0.00000  Uiso   1.00
O936   O     0.00428   0.16982   0.93406   0.00000  Uiso   1.00
F937   F     0.15206   0.03884   0.74828   0.00000  Uiso   1.00
F938   F     0.18128   0.29450   0.91839   0.00000  Uiso   1.00
C939   C     0.09114   0.11641   0.70513   0.00000  Uiso   1.00
H940   H     0.09553   0.10404   0.73965   0.00000  Uiso   1.00
O941   O     0.04930   0.11048   0.68137   0.00000  Uiso   1.00
C942   C     0.24220   0.21692   0.96154   0.00000  Uiso   1.00
H943   H     0.23780   0.22929   0.92701   0.00000  Uiso   1.00
O944   O     0.28403   0.22284   0.98530   0.00000  Uiso   1.00
C945   C     0.10680   0.10479   0.94237   0.00000  Uiso   1.00
H946   H     0.08392   0.10969   0.90920   0.00000  Uiso   1.00
O947   O     0.10897   0.06953   0.95642   0.00000  Uiso   1.00
C948   C     0.22653   0.22854   0.72429   0.00000  Uiso   1.00
H949   H     0.24941   0.22364   0.75746   0.00000  Uiso   1.00
O950   O     0.22436   0.26380   0.71025   0.00000  Uiso   1.00
C951   C     0.49986   0.08747   0.83312   0.00000  Uiso   1.00
C952   C     0.50014   0.24587   0.83355   0.00000  Uiso   1.00
C953   C     0.40153   0.16693   0.82130   0.00000  Uiso   1.00
C954   C     0.59847   0.16640   0.84536   0.00000  Uiso   1.00
C955   C     0.34628   0.16328   0.81496   0.00000  Uiso   1.00
C956   C     0.65372   0.17006   0.85170   0.00000  Uiso   1.00
C957   C     0.49271   0.02024   0.79045   0.00000  Uiso   1.00
C958   C     0.50729   0.31309   0.87621   0.00000  Uiso   1.00
C959   C     0.49259   0.31109   0.79119   0.00000  Uiso   1.00
C960   C     0.50741   0.02224   0.87548   0.00000  Uiso   1.00
C961   C     0.50002   0.29054   0.83386   0.00000  Uiso   1.00
C962   C     0.49998   0.04280   0.83280   0.00000  Uiso   1.00
C963   C     0.46643   0.14068   0.68669   0.00000  Uiso   1.00
C964   C     0.53357   0.19266   0.97997   0.00000  Uiso   1.00
C965   C     0.46846   0.13922   0.97078   0.00000  Uiso   1.00
C966   C     0.53154   0.19411   0.69589   0.00000  Uiso   1.00
Cu967  Cu    0.50000   0.16667   0.88022   0.00000  Uiso   1.00
Cu968  Cu    0.50000   0.16666   0.78645   0.00000  Uiso   1.00
H969   H     0.48627   0.29435   0.75815   0.00000  Uiso   1.00
H970   H     0.51373   0.03899   0.90851   0.00000  Uiso   1.00
N971   N     0.50001   0.16668   0.95069   0.00000  Uiso   1.00
N972   N     0.49999   0.16666   0.71597   0.00000  Uiso   1.00
O973   O     0.50000   0.10655   0.87291   0.00000  Uiso   1.00
O974   O     0.50000   0.22678   0.79375   0.00000  Uiso   1.00
O975   O     0.50000   0.10654   0.79372   0.00000  Uiso   1.00
O976   O     0.50000   0.22679   0.87294   0.00000  Uiso   1.00
O977   O     0.42495   0.16667   0.86379   0.00000  Uiso   1.00
O978   O     0.57505   0.16666   0.80288   0.00000  Uiso   1.00
O979   O     0.42494   0.16666   0.78460   0.00000  Uiso   1.00
O980   O     0.57506   0.16667   0.88207   0.00000  Uiso   1.00
C981   C     0.65461   0.14646   0.76864   0.00000  Uiso   1.00
H982   H     0.62839   0.11935   0.76664   0.00000  Uiso   1.00
O983   O     0.66239   0.16351   0.73261   0.00000  Uiso   1.00
C984   C     0.34539   0.18687   0.89802   0.00000  Uiso   1.00
H985   H     0.37161   0.21398   0.90002   0.00000  Uiso   1.00
O986   O     0.33762   0.16982   0.93406   0.00000  Uiso   1.00
F987   F     0.48539   0.03884   0.74828   0.00000  Uiso   1.00
F988   F     0.51461   0.29450   0.91839   0.00000  Uiso   1.00
C989   C     0.42447   0.11641   0.70513   0.00000  Uiso   1.00
H990   H     0.42887   0.10404   0.73965   0.00000  Uiso   1.00
O991   O     0.38264   0.11048   0.68137   0.00000  Uiso   1.00
C992   C     0.57553   0.21692   0.96154   0.00000  Uiso   1.00
H993   H     0.57114   0.22929   0.92701   0.00000  Uiso   1.00
O994   O     0.61737   0.22284   0.98530   0.00000  Uiso   1.00
C995   C     0.44014   0.10479   0.94237   0.00000  Uiso   1.00
H996   H     0.41726   0.10969   0.90920   0.00000  Uiso   1.00
O997   O     0.44231   0.06953   0.95642   0.00000  Uiso   1.00
C998   C     0.55986   0.22854   0.72429   0.00000  Uiso   1.00
H999   H     0.58274   0.22364   0.75746   0.00000  Uiso   1.00
O1000  O     0.55770   0.26380   0.71025   0.00000  Uiso   1.00
C1001  C     0.83320   0.08747   0.83312   0.00000  Uiso   1.00
C1002  C     0.83347   0.24587   0.83355   0.00000  Uiso   1.00
C1003  C     0.73487   0.16693   0.82130   0.00000  Uiso   1.00
C1004  C     0.93180   0.16640   0.84536   0.00000  Uiso   1.00
C1005  C     0.67961   0.16328   0.81496   0.00000  Uiso   1.00
C1006  C     0.98706   0.17006   0.85170   0.00000  Uiso   1.00
C1007  C     0.82604   0.02024   0.79045   0.00000  Uiso   1.00
C1008  C     0.84063   0.31309   0.87621   0.00000  Uiso   1.00
C1009  C     0.82592   0.31109   0.79119   0.00000  Uiso   1.00
C1010  C     0.84075   0.02224   0.87548   0.00000  Uiso   1.00
C1011  C     0.83336   0.29054   0.83386   0.00000  Uiso   1.00
C1012  C     0.83331   0.04280   0.83280   0.00000  Uiso   1.00
C1013  C     0.79976   0.14068   0.68669   0.00000  Uiso   1.00
C1014  C     0.86691   0.19266   0.97997   0.00000  Uiso   1.00
C1015  C     0.80180   0.13922   0.97078   0.00000  Uiso   1.00
C1016  C     0.86487   0.19411   0.69589   0.00000  Uiso   1.00
Cu1017 Cu    0.83333   0.16667   0.88022   0.00000  Uiso   1.00
Cu1018 Cu    0.83333   0.16666   0.78645   0.00000  Uiso   1.00
H1019  H     0.81960   0.29435   0.75815   0.00000  Uiso   1.00
H1020  H     0.84706   0.03899   0.90851   0.00000  Uiso   1.00
N1021  N     0.83335   0.16668   0.95069   0.00000  Uiso   1.00
N1022  N     0.83332   0.16666   0.71597   0.00000  Uiso   1.00
O1023  O     0.83333   0.10655   0.87291   0.00000  Uiso   1.00
O1024  O     0.83334   0.22678   0.79375   0.00000  Uiso   1.00
O1025  O     0.83333   0.10654   0.79372   0.00000  Uiso   1.00
O1026  O     0.83334   0.22679   0.87294   0.00000  Uiso   1.00
O1027  O     0.75828   0.16667   0.86379   0.00000  Uiso   1.00
O1028  O     0.90839   0.16666   0.80288   0.00000  Uiso   1.00
O1029  O     0.75828   0.16666   0.78460   0.00000  Uiso   1.00
O1030  O     0.90839   0.16667   0.88207   0.00000  Uiso   1.00
C1031  C     0.98794   0.14646   0.76864   0.00000  Uiso   1.00
H1032  H     0.96172   0.11935   0.76664   0.00000  Uiso   1.00
O1033  O     0.99572   0.16351   0.73261   0.00000  Uiso   1.00
C1034  C     0.67873   0.18687   0.89802   0.00000  Uiso   1.00
H1035  H     0.70495   0.21398   0.90002   0.00000  Uiso   1.00
O1036  O     0.67095   0.16982   0.93406   0.00000  Uiso   1.00
F1037  F     0.81872   0.03884   0.74828   0.00000  Uiso   1.00
F1038  F     0.84794   0.29450   0.91839   0.00000  Uiso   1.00
C1039  C     0.75780   0.11641   0.70513   0.00000  Uiso   1.00
H1040  H     0.76220   0.10404   0.73965   0.00000  Uiso   1.00
O1041  O     0.71597   0.11048   0.68137   0.00000  Uiso   1.00
C1042  C     0.90886   0.21692   0.96154   0.00000  Uiso   1.00
H1043  H     0.90447   0.22929   0.92701   0.00000  Uiso   1.00
O1044  O     0.95070   0.22284   0.98530   0.00000  Uiso   1.00
C1045  C     0.77347   0.10479   0.94237   0.00000  Uiso   1.00
H1046  H     0.75059   0.10969   0.90920   0.00000  Uiso   1.00
O1047  O     0.77564   0.06953   0.95642   0.00000  Uiso   1.00
C1048  C     0.89320   0.22854   0.72429   0.00000  Uiso   1.00
H1049  H     0.91608   0.22364   0.75746   0.00000  Uiso   1.00
O1050  O     0.89103   0.26380   0.71025   0.00000  Uiso   1.00
C1051  C     0.16653   0.42080   0.83312   0.00000  Uiso   1.00
C1052  C     0.16680   0.57920   0.83355   0.00000  Uiso   1.00
C1053  C     0.06820   0.50027   0.82130   0.00000  Uiso   1.00
C1054  C     0.26513   0.49973   0.84536   0.00000  Uiso   1.00
C1055  C     0.01294   0.49661   0.81496   0.00000  Uiso   1.00
C1056  C     0.32039   0.50339   0.85170   0.00000  Uiso   1.00
C1057  C     0.15937   0.35358   0.79045   0.00000  Uiso   1.00
C1058  C     0.17396   0.64642   0.87621   0.00000  Uiso   1.00
C1059  C     0.15925   0.64442   0.79119   0.00000  Uiso   1.00
C1060  C     0.17408   0.35558   0.87548   0.00000  Uiso   1.00
C1061  C     0.16669   0.62387   0.83386   0.00000  Uiso   1.00
C1062  C     0.16664   0.37613   0.83280   0.00000  Uiso   1.00
C1063  C     0.13309   0.47401   0.68669   0.00000  Uiso   1.00
C1064  C     0.20024   0.52599   0.97997   0.00000  Uiso   1.00
C1065  C     0.13513   0.47255   0.97078   0.00000  Uiso   1.00
C1066  C     0.19821   0.52745   0.69589   0.00000  Uiso   1.00
Cu1067 Cu    0.16667   0.50001   0.88022   0.00000  Uiso   1.00
Cu1068 Cu    0.16667   0.49999   0.78645   0.00000  Uiso   1.00
H1069  H     0.15294   0.62768   0.75815   0.00000  Uiso   1.00
H1070  H     0.18040   0.37232   0.90851   0.00000  Uiso   1.00
N1071  N     0.16668   0.50001   0.95069   0.00000  Uiso   1.00
N1072  N     0.16665   0.49999   0.71597   0.00000  Uiso   1.00
O1073  O     0.16666   0.43989   0.87291   0.00000  Uiso   1.00
O1074  O     0.16667   0.56011   0.79375   0.00000  Uiso   1.00
O1075  O     0.16666   0.43988   0.79372   0.00000  Uiso   1.00
O1076  O     0.16667   0.56012   0.87294   0.00000  Uiso   1.00
O1077  O     0.09161   0.50000   0.86379   0.00000  Uiso   1.00
O1078  O     0.24172   0.50000   0.80288   0.00000  Uiso   1.00
O1079  O     0.09161   0.49999   0.78460   0.00000  Uiso   1.00
O1080  O     0.24172   0.50001   0.88207   0.00000  Uiso   1.00
C1081  C     0.32127   0.47980   0.76864   0.00000  Uiso   1.00
H1082  H     0.29505   0.45268   0.76664   0.00000  Uiso   1.00
O1083  O     0.32905   0.49684   0.73261   0.00000  Uiso   1.00
C1084  C     0.01206   0.52020   0.89802   0.00000  Uiso   1.00
H1085  H     0.03828   0.54732   0.90002   0.00000  Uiso   1.00
O1086  O     0.00428   0.50315   0.93406   0.00000  Uiso   1.00
F1087  F     0.15206   0.37217   0.74828   0.00000  Uiso   1.00
F1088  F     0.18128   0.62783   0.91839   0.00000  Uiso   1.00
C1089  C     0.09114   0.44975   0.70513   0.00000  Uiso   1.00
H1090  H     0.09553   0.43737   0.73965   0.00000  Uiso   1.00
O1091  O     0.04930   0.44382   0.68137   0.00000  Uiso   1.00
C1092  C     0.24220   0.55025   0.96154   0.00000  Uiso   1.00
H1093  H     0.23780   0.56263   0.92701   0.00000  Uiso   1.00
O1094  O     0.28403   0.55618   0.98530   0.00000  Uiso   1.00
C1095  C     0.10680   0.43813   0.94237   0.00000  Uiso   1.00
H1096  H     0.08392   0.44303   0.90920   0.00000  Uiso   1.00
O1097  O     0.10897   0.40286   0.95642   0.00000  Uiso   1.00
C1098  C     0.22653   0.56187   0.72429   0.00000  Uiso   1.00
H1099  H     0.24941   0.55697   0.75746   0.00000  Uiso   1.00
O1100  O     0.22436   0.59714   0.71025   0.00000  Uiso   1.00
C1101  C     0.49986   0.42080   0.83312   0.00000  Uiso   1.00
C1102  C     0.50014   0.57920   0.83355   0.00000  Uiso   1.00
C1103  C     0.40153   0.50027   0.82130   0.00000  Uiso   1.00
C1104  C     0.59847   0.49973   0.84536   0.00000  Uiso   1.00
C1105  C     0.34628   0.49661   0.81496   0.00000  Uiso   1.00
C1106  C     0.65372   0.50339   0.85170   0.00000  Uiso   1.00
C1107  C     0.49271   0.35358   0.79045   0.00000  Uiso   1.00
C1108  C     0.50729   0.64642   0.87621   0.00000  Uiso   1.00
C1109  C     0.49259   0.64442   0.79119   0.00000  Uiso   1.00
C1110  C     0.50741   0.35558   0.87548   0.00000  Uiso   1.00
C1111  C     0.50002   0.62387   0.83386   0.00000  Uiso   1.00
C1112  C     0.49998   0.37613   0.83280   0.00000  Uiso   1.00
C1113  C     0.46643   0.47401   0.68669   0.00000  Uiso   1.00
C1114  C     0.53357   0.52599   0.97997   0.00000  Uiso   1.00
C1115  C     0.46846   0.47255   0.97078   0.00000  Uiso   1.00
C1116  C     0.53154   0.52745   0.69589   0.00000  Uiso   1.00
Cu1117 Cu    0.50000   0.50001   0.88022   0.00000  Uiso   1.00
Cu1118 Cu    0.50000   0.49999   0.78645   0.00000  Uiso   1.00
H1119  H     0.48627   0.62768   0.75815   0.00000  Uiso   1.00
H1120  H     0.51373   0.37232   0.90851   0.00000  Uiso   1.00
N1121  N     0.50001   0.50001   0.95069   0.00000  Uiso   1.00
N1122  N     0.49999   0.49999   0.71597   0.00000  Uiso   1.00
O1123  O     0.50000   0.43989   0.87291   0.00000  Uiso   1.00
O1124  O     0.50000   0.56011   0.79375   0.00000  Uiso   1.00
O1125  O     0.50000   0.43988   0.79372   0.00000  Uiso   1.00
O1126  O     0.50000   0.56012   0.87294   0.00000  Uiso   1.00
O1127  O     0.42495   0.50000   0.86379   0.00000  Uiso   1.00
O1128  O     0.57505   0.50000   0.80288   0.00000  Uiso   1.00
O1129  O     0.42494   0.49999   0.78460   0.00000  Uiso   1.00
O1130  O     0.57506   0.50001   0.88207   0.00000  Uiso   1.00
C1131  C     0.65461   0.47980   0.76864   0.00000  Uiso   1.00
H1132  H     0.62839   0.45268   0.76664   0.00000  Uiso   1.00
O1133  O     0.66239   0.49684   0.73261   0.00000  Uiso   1.00
C1134  C     0.34539   0.52020   0.89802   0.00000  Uiso   1.00
H1135  H     0.37161   0.54732   0.90002   0.00000  Uiso   1.00
O1136  O     0.33762   0.50315   0.93406   0.00000  Uiso   1.00
F1137  F     0.48539   0.37217   0.74828   0.00000  Uiso   1.00
F1138  F     0.51461   0.62783   0.91839   0.00000  Uiso   1.00
C1139  C     0.42447   0.44975   0.70513   0.00000  Uiso   1.00
H1140  H     0.42887   0.43737   0.73965   0.00000  Uiso   1.00
O1141  O     0.38264   0.44382   0.68137   0.00000  Uiso   1.00
C1142  C     0.57553   0.55025   0.96154   0.00000  Uiso   1.00
H1143  H     0.57114   0.56263   0.92701   0.00000  Uiso   1.00
O1144  O     0.61737   0.55618   0.98530   0.00000  Uiso   1.00
C1145  C     0.44014   0.43813   0.94237   0.00000  Uiso   1.00
H1146  H     0.41726   0.44303   0.90920   0.00000  Uiso   1.00
O1147  O     0.44231   0.40286   0.95642   0.00000  Uiso   1.00
C1148  C     0.55986   0.56187   0.72429   0.00000  Uiso   1.00
H1149  H     0.58274   0.55697   0.75746   0.00000  Uiso   1.00
O1150  O     0.55770   0.59714   0.71025   0.00000  Uiso   1.00
C1151  C     0.83320   0.42080   0.83312   0.00000  Uiso   1.00
C1152  C     0.83347   0.57920   0.83355   0.00000  Uiso   1.00
C1153  C     0.73487   0.50027   0.82130   0.00000  Uiso   1.00
C1154  C     0.93180   0.49973   0.84536   0.00000  Uiso   1.00
C1155  C     0.67961   0.49661   0.81496   0.00000  Uiso   1.00
C1156  C     0.98706   0.50339   0.85170   0.00000  Uiso   1.00
C1157  C     0.82604   0.35358   0.79045   0.00000  Uiso   1.00
C1158  C     0.84063   0.64642   0.87621   0.00000  Uiso   1.00
C1159  C     0.82592   0.64442   0.79119   0.00000  Uiso   1.00
C1160  C     0.84075   0.35558   0.87548   0.00000  Uiso   1.00
C1161  C     0.83336   0.62387   0.83386   0.00000  Uiso   1.00
C1162  C     0.83331   0.37613   0.83280   0.00000  Uiso   1.00
C1163  C     0.79976   0.47401   0.68669   0.00000  Uiso   1.00
C1164  C     0.86691   0.52599   0.97997   0.00000  Uiso   1.00
C1165  C     0.80180   0.47255   0.97078   0.00000  Uiso   1.00
C1166  C     0.86487   0.52745   0.69589   0.00000  Uiso   1.00
Cu1167 Cu    0.83333   0.50001   0.88022   0.00000  Uiso   1.00
Cu1168 Cu    0.83333   0.49999   0.78645   0.00000  Uiso   1.00
H1169  H     0.81960   0.62768   0.75815   0.00000  Uiso   1.00
H1170  H     0.84706   0.37232   0.90851   0.00000  Uiso   1.00
N1171  N     0.83335   0.50001   0.95069   0.00000  Uiso   1.00
N1172  N     0.83332   0.49999   0.71597   0.00000  Uiso   1.00
O1173  O     0.83333   0.43989   0.87291   0.00000  Uiso   1.00
O1174  O     0.83334   0.56011   0.79375   0.00000  Uiso   1.00
O1175  O     0.83333   0.43988   0.79372   0.00000  Uiso   1.00
O1176  O     0.83334   0.56012   0.87294   0.00000  Uiso   1.00
O1177  O     0.75828   0.50000   0.86379   0.00000  Uiso   1.00
O1178  O     0.90839   0.50000   0.80288   0.00000  Uiso   1.00
O1179  O     0.75828   0.49999   0.78460   0.00000  Uiso   1.00
O1180  O     0.90839   0.50001   0.88207   0.00000  Uiso   1.00
C1181  C     0.98794   0.47980   0.76864   0.00000  Uiso   1.00
H1182  H     0.96172   0.45268   0.76664   0.00000  Uiso   1.00
O1183  O     0.99572   0.49684   0.73261   0.00000  Uiso   1.00
C1184  C     0.67873   0.52020   0.89802   0.00000  Uiso   1.00
H1185  H     0.70495   0.54732   0.90002   0.00000  Uiso   1.00
O1186  O     0.67095   0.50315   0.93406   0.00000  Uiso   1.00
F1187  F     0.81872   0.37217   0.74828   0.00000  Uiso   1.00
F1188  F     0.84794   0.62783   0.91839   0.00000  Uiso   1.00
C1189  C     0.75780   0.44975   0.70513   0.00000  Uiso   1.00
H1190  H     0.76220   0.43737   0.73965   0.00000  Uiso   1.00
O1191  O     0.71597   0.44382   0.68137   0.00000  Uiso   1.00
C1192  C     0.90886   0.55025   0.96154   0.00000  Uiso   1.00
H1193  H     0.90447   0.56263   0.92701   0.00000  Uiso   1.00
O1194  O     0.95070   0.55618   0.98530   0.00000  Uiso   1.00
C1195  C     0.77347   0.43813   0.94237   0.00000  Uiso   1.00
H1196  H     0.75059   0.44303   0.90920   0.00000  Uiso   1.00
O1197  O     0.77564   0.40286   0.95642   0.00000  Uiso   1.00
C1198  C     0.89320   0.56187   0.72429   0.00000  Uiso   1.00
H1199  H     0.91608   0.55697   0.75746   0.00000  Uiso   1.00
O1200  O     0.89103   0.59714   0.71025   0.00000  Uiso   1.00
C1201  C     0.16653   0.75413   0.83312   0.00000  Uiso   1.00
C1202  C     0.16680   0.91253   0.83355   0.00000  Uiso   1.00
C1203  C     0.06820   0.83360   0.82130   0.00000  Uiso   1.00
C1204  C     0.26513   0.83307   0.84536   0.00000  Uiso   1.00
C1205  C     0.01294   0.82994   0.81496   0.00000  Uiso   1.00
C1206  C     0.32039   0.83672   0.85170   0.00000  Uiso   1.00
C1207  C     0.15937   0.68691   0.79045   0.00000  Uiso   1.00
C1208  C     0.17396   0.97976   0.87621   0.00000  Uiso   1.00
C1209  C     0.15925   0.97776   0.79119   0.00000  Uiso   1.00
C1210  C     0.17408   0.68891   0.87548   0.00000  Uiso   1.00
C1211  C     0.16669   0.95720   0.83386   0.00000  Uiso   1.00
C1212  C     0.16664   0.70946   0.83280   0.00000  Uiso   1.00
C1213  C     0.13309   0.80734   0.68669   0.00000  Uiso   1.00
C1214  C     0.20024   0.85932   0.97997   0.00000  Uiso   1.00
C1215  C     0.13513   0.80589   0.97078   0.00000  Uiso   1.00
C1216  C     0.19821   0.86078   0.69589   0.00000  Uiso   1.00
Cu1217 Cu    0.16667   0.83334   0.88022   0.00000  Uiso   1.00
Cu1218 Cu    0.16667   0.83333   0.78645   0.00000  Uiso   1.00
H1219  H     0.15294   0.96101   0.75815   0.00000  Uiso   1.00
H1220  H     0.18040   0.70565   0.90851   0.00000  Uiso   1.00
N1221  N     0.16668   0.83334   0.95069   0.00000  Uiso   1.00
N1222  N     0.16665   0.83332   0.71597   0.00000  Uiso   1.00
O1223  O     0.16666   0.77322   0.87291   0.00000  Uiso   1.00
O1224  O     0.16667   0.89345   0.79375   0.00000  Uiso   1.00
O1225  O     0.16666   0.77321   0.79372   0.00000  Uiso   1.00
O1226  O     0.16667   0.89346   0.87294   0.00000  Uiso   1.00
O1227  O     0.09161   0.83334   0.86379   0.00000  Uiso   1.00
O1228  O     0.24172   0.83333   0.80288   0.00000  Uiso   1.00
O1229  O     0.09161   0.83333   0.78460   0.00000  Uiso   1.00
O1230  O     0.24172   0.83334   0.88207   0.00000  Uiso   1.00
C1231  C     0.32127   0.81313   0.76864   0.00000  Uiso   1.00
H1232  H     0.29505   0.78602   0.76664   0.00000  Uiso   1.00
O1233  O     0.32905   0.83018   0.73261   0.00000  Uiso   1.00
C1234  C     0.01206   0.85353   0.89802   0.00000  Uiso   1.00
H1235  H     0.03828   0.88065   0.90002   0.00000  Uiso   1.00
O1236  O     0.00428   0.83649   0.93406   0.00000  Uiso   1.00
F1237  F     0.15206   0.70550   0.74828   0.00000  Uiso   1.00
F1238  F     0.18128   0.96116   0.91839   0.00000  Uiso   1.00
C1239  C     0.09114   0.78308   0.70513   0.00000  Uiso   1.00
H1240  H     0.09553   0.77071   0.73965   0.00000  Uiso   1.00
O1241  O     0.04930   0.77715   0.68137   0.00000  Uiso   1.00
C1242  C     0.24220   0.88358   0.96154   0.00000  Uiso   1.00
H1243  H     0.23780   0.89596   0.92701   0.00000  Uiso   1.00
O1244  O     0.28403   0.88951   0.98530   0.00000  Uiso   1.00
C1245  C     0.10680   0.77146   0.94237   0.00000  Uiso   1.00
H1246  H     0.08392   0.77636   0.90920   0.00000  Uiso   1.00
O1247  O     0.10897   0.73620   0.95642   0.00000  Uiso   1.00
C1248  C     0.22653   0.89521   0.72429   0.00000  Uiso   1.00
H1249  H     0.24941   0.89031   0.75746   0.00000  Uiso   1.00
O1250  O     0.22436   0.93047   0.71025   0.00000  Uiso   1.00
C1251  C     0.49986   0.75413   0.83312   0.00000  Uiso   1.00
C1252  C     0.50014   0.91253   0.83355   0.00000  Uiso   1.00
C1253  C     0.40153   0.83360   0.82130   0.00000  Uiso   1.00
C1254  C     0.59847   0.83307   0.84536   0.00000  Uiso   1.00
C1255  C     0.34628   0.82994   0.81496   0.00000  Uiso   1.00
C1256  C     0.65372   0.83672   0.85170   0.00000  Uiso   1.00
C1257  C     0.49271   0.68691   0.79045   0.00000  Uiso   1.00
C1258  C     0.50729   0.97976   0.87621   0.00000  Uiso   1.00
C1259  C     0.49259   0.97776   0.79119   0.00000  Uiso   1.00
C1260  C     0.50741   0.68891   0.87548   0.00000  Uiso   1.00
C1261  C     0.50002   0.95720   0.83386   0.00000  Uiso   1.00
C1262  C     0.49998   0.70946   0.83280   0.00000  Uiso   1.00
C1263  C     0.46643   0.80734   0.68669   0.00000  Uiso   1.00
C1264  C     0.53357   0.85932   0.97997   0.00000  Uiso   1.00
C1265  C     0.46846   0.80589   0.97078   0.00000  Uiso   1.00
C1266  C     0.53154   0.86078   0.69589   0.00000  Uiso   1.00
Cu1267 Cu    0.50000   0.83334   0.88022   0.00000  Uiso   1.00
Cu1268 Cu    0.50000   0.83333   0.78645   0.00000  Uiso   1.00
H1269  H     0.48627   0.96101   0.75815   0.00000  Uiso   1.00
H1270  H     0.51373   0.70565   0.90851   0.00000  Uiso   1.00
N1271  N     0.50001   0.83334   0.95069   0.00000  Uiso   1.00
N1272  N     0.49999   0.83332   0.71597   0.00000  Uiso   1.00
O1273  O     0.50000   0.77322   0.87291   0.00000  Uiso   1.00
O1274  O     0.50000   0.89345   0.79375   0.00000  Uiso   1.00
O1275  O     0.50000   0.77321   0.79372   0.00000  Uiso   1.00
O1276  O     0.50000   0.89346   0.87294   0.00000  Uiso   1.00
O1277  O     0.42495   0.83334   0.86379   0.00000  Uiso   1.00
O1278  O     0.57505   0.83333   0.80288   0.00000  Uiso   1.00
O1279  O     0.42494   0.83333   0.78460   0.00000  Uiso   1.00
O1280  O     0.57506   0.83334   0.88207   0.00000  Uiso   1.00
C1281  C     0.65461   0.81313   0.76864   0.00000  Uiso   1.00
H1282  H     0.62839   0.78602   0.76664   0.00000  Uiso   1.00
O1283  O     0.66239   0.83018   0.73261   0.00000  Uiso   1.00
C1284  C     0.34539   0.85353   0.89802   0.00000  Uiso   1.00
H1285  H     0.37161   0.88065   0.90002   0.00000  Uiso   1.00
O1286  O     0.33762   0.83649   0.93406   0.00000  Uiso   1.00
F1287  F     0.48539   0.70550   0.74828   0.00000  Uiso   1.00
F1288  F     0.51461   0.96116   0.91839   0.00000  Uiso   1.00
C1289  C     0.42447   0.78308   0.70513   0.00000  Uiso   1.00
H1290  H     0.42887   0.77071   0.73965   0.00000  Uiso   1.00
O1291  O     0.38264   0.77715   0.68137   0.00000  Uiso   1.00
C1292  C     0.57553   0.88358   0.96154   0.00000  Uiso   1.00
H1293  H     0.57114   0.89596   0.92701   0.00000  Uiso   1.00
O1294  O     0.61737   0.88951   0.98530   0.00000  Uiso   1.00
C1295  C     0.44014   0.77146   0.94237   0.00000  Uiso   1.00
H1296  H     0.41726   0.77636   0.90920   0.00000  Uiso   1.00
O1297  O     0.44231   0.73620   0.95642   0.00000  Uiso   1.00
C1298  C     0.55986   0.89521   0.72429   0.00000  Uiso   1.00
H1299  H     0.58274   0.89031   0.75746   0.00000  Uiso   1.00
O1300  O     0.55770   0.93047   0.71025   0.00000  Uiso   1.00
C1301  C     0.83320   0.75413   0.83312   0.00000  Uiso   1.00
C1302  C     0.83347   0.91253   0.83355   0.00000  Uiso   1.00
C1303  C     0.73487   0.83360   0.82130   0.00000  Uiso   1.00
C1304  C     0.93180   0.83307   0.84536   0.00000  Uiso   1.00
C1305  C     0.67961   0.82994   0.81496   0.00000  Uiso   1.00
C1306  C     0.98706   0.83672   0.85170   0.00000  Uiso   1.00
C1307  C     0.82604   0.68691   0.79045   0.00000  Uiso   1.00
C1308  C     0.84063   0.97976   0.87621   0.00000  Uiso   1.00
C1309  C     0.82592   0.97776   0.79119   0.00000  Uiso   1.00
C1310  C     0.84075   0.68891   0.87548   0.00000  Uiso   1.00
C1311  C     0.83336   0.95720   0.83386   0.00000  Uiso   1.00
C1312  C     0.83331   0.70946   0.83280   0.00000  Uiso   1.00
C1313  C     0.79976   0.80734   0.68669   0.00000  Uiso   1.00
C1314  C     0.86691   0.85932   0.97997   0.00000  Uiso   1.00
C1315  C     0.80180   0.80589   0.97078   0.00000  Uiso   1.00
C1316  C     0.86487   0.86078   0.69589   0.00000  Uiso   1.00
Cu1317 Cu    0.83333   0.83334   0.88022   0.00000  Uiso   1.00
Cu1318 Cu    0.83333   0.83333   0.78645   0.00000  Uiso   1.00
H1319  H     0.81960   0.96101   0.75815   0.00000  Uiso   1.00
H1320  H     0.84706   0.70565   0.90851   0.00000  Uiso   1.00
N1321  N     0.83335   0.83334   0.95069   0.00000  Uiso   1.00
N1322  N     0.83332   0.83332   0.71597   0.00000  Uiso   1.00
O1323  O     0.83333   0.77322   0.87291   0.00000  Uiso   1.00
O1324  O     0.83334   0.89345   0.79375   0.00000  Uiso   1.00
O1325  O     0.83333   0.77321   0.79372   0.00000  Uiso   1.00
O1326  O     0.83334   0.89346   0.87294   0.00000  Uiso   1.00
O1327  O     0.75828   0.83334   0.86379   0.00000  Uiso   1.00
O1328  O     0.90839   0.83333   0.80288   0.00000  Uiso   1.00
O1329  O     0.75828   0.83333   0.78460   0.00000  Uiso   1.00
O1330  O     0.90839   0.83334   0.88207   0.00000  Uiso   1.00
C1331  C     0.98794   0.81313   0.76864   0.00000  Uiso   1.00
H1332  H     0.96172   0.78602   0.76664   0.00000  Uiso   1.00
O1333  O     0.99572   0.83018   0.73261   0.00000  Uiso   1.00
C1334  C     0.67873   0.85353   0.89802   0.00000  Uiso   1.00
H1335  H     0.70495   0.88065   0.90002   0.00000  Uiso   1.00
O1336  O     0.67095   0.83649   0.93406   0.00000  Uiso   1.00
F1337  F     0.81872   0.70550   0.74828   0.00000  Uiso   1.00
F1338  F     0.84794   0.96116   0.91839   0.00000  Uiso   1.00
C1339  C     0.75780   0.78308   0.70513   0.00000  Uiso   1.00
H1340  H     0.76220   0.77071   0.73965   0.00000  Uiso   1.00
O1341  O     0.71597   0.77715   0.68137   0.00000  Uiso   1.00
C1342  C     0.90886   0.88358   0.96154   0.00000  Uiso   1.00
H1343  H     0.90447   0.89596   0.92701   0.00000  Uiso   1.00
O1344  O     0.95070   0.88951   0.98530   0.00000  Uiso   1.00
C1345  C     0.77347   0.77146   0.94237   0.00000  Uiso   1.00
H1346  H     0.75059   0.77636   0.90920   0.00000  Uiso   1.00
O1347  O     0.77564   0.73620   0.95642   0.00000  Uiso   1.00
C1348  C     0.89320   0.89521   0.72429   0.00000  Uiso   1.00
H1349  H     0.91608   0.89031   0.75746   0.00000  Uiso   1.00
O1350  O     0.89103   0.93047   0.71025   0.00000  Uiso   1.00
loop_
_geom_bond_atom_site_label_1
_geom_bond_atom_site_label_2
_geom_bond_distance
_geom_bond_site_symmetry_2
_ccdc_geom_bond_type
C1     O25     1.300   .     A
C1     O23     1.303   .     A
C1     C12     1.454   .     S
C2     O26     1.300   .     A
C2     C11     1.454   .     S
C2     O24     1.303   .     A
C3     O29     1.305   .     A
C3     O27     1.293   .     A
C3     C5      1.449   .     S
C4     O30     1.305   .     A
C4     O28     1.293   .     A
C4     C6      1.449   .     S
C5     C106    1.370   1_455 S
C5     C131    1.490   1_455 S
C6     C55     1.370   .     S
C6     C84     1.490   .     S
C7     F37     1.357   .     S
C7     C12     1.406   .     A
C7     C309    1.383   1_545 S
C8     C11     1.406   .     A
C8     F38     1.357   .     S
C8     C160    1.383   .     S
C9     C11     1.400   .     A
C9     H19     1.083   .     S
C9     C157    1.383   .     S
C10    C12     1.400   .     A
C10    H20     1.083   .     S
C10    C308    1.383   1_545 S
C13    N22     1.380   .     A
C13    C39     1.489   .     S
C13    C915    1.432   1_554 S
C14    C42     1.489   .     S
C14    N21     1.380   .     A
C14    C466    1.432   .     S
C15    N21     1.376   .     A
C15    C45     1.483   .     S
C15    C463    1.432   .     S
C16    C48     1.483   .     S
C16    N22     1.376   .     A
C16    C914    1.432   1_554 S
Cu17   Cu18    2.709   .     S
Cu17   O30     1.986   .     S
Cu17   O23     1.967   .     S
Cu17   O26     1.969   .     S
Cu17   O27     1.980   .     S
Cu17   N21     2.036   .     S
Cu18   O29     1.986   .     S
Cu18   O25     1.969   .     S
Cu18   O24     1.967   .     S
Cu18   O28     1.980   .     S
Cu18   N22     2.036   .     S
C31    O33     1.220   .     D
C31    H32     1.086   .     S
C31    C55     1.490   .     S
C34    O36     1.220   .     D
C34    H35     1.086   .     S
C34    C106    1.490   1_455 S
C39    O41     1.221   .     D
C39    H40     1.071   .     S
C42    O44     1.221   .     D
C42    H43     1.071   .     S
C45    H46     1.075   .     S
C45    O47     1.221   .     D
C48    O50     1.221   .     D
C48    H49     1.075   .     S
C51    O75     1.300   .     A
C51    O73     1.303   .     A
C51    C62     1.454   .     S
C52    O76     1.300   .     A
C52    C61     1.454   .     S
C52    O74     1.303   .     A
C53    O79     1.305   .     A
C53    O77     1.293   .     A
C53    C55     1.449   .     S
C54    O80     1.305   .     A
C54    O78     1.293   .     A
C54    C56     1.449   .     S
C56    C105    1.370   .     S
C56    C134    1.490   .     S
C57    F87     1.357   .     S
C57    C62     1.406   .     A
C57    C359    1.383   1_545 S
C58    C61     1.406   .     A
C58    F88     1.357   .     S
C58    C210    1.383   .     S
C59    C61     1.400   .     A
C59    H69     1.083   .     S
C59    C207    1.383   .     S
C60    C62     1.400   .     A
C60    H70     1.083   .     S
C60    C358    1.383   1_545 S
C63    N72     1.380   .     A
C63    C89     1.489   .     S
C63    C965    1.432   1_554 S
C64    C92     1.489   .     S
C64    N71     1.380   .     A
C64    C516    1.432   .     S
C65    N71     1.376   .     A
C65    C95     1.483   .     S
C65    C513    1.432   .     S
C66    C98     1.483   .     S
C66    N72     1.376   .     A
C66    C964    1.432   1_554 S
Cu67   Cu68    2.709   .     S
Cu67   O80     1.986   .     S
Cu67   O73     1.967   .     S
Cu67   O76     1.969   .     S
Cu67   O77     1.980   .     S
Cu67   N71     2.036   .     S
Cu68   O79     1.986   .     S
Cu68   O75     1.969   .     S
Cu68   O74     1.967   .     S
Cu68   O78     1.980   .     S
Cu68   N72     2.036   .     S
C81    O83     1.220   .     D
C81    H82     1.086   .     S
C81    C105    1.490   .     S
C84    O86     1.220   .     D
C84    H85     1.086   .     S
C89    O91     1.221   .     D
C89    H90     1.071   .     S
C92    O94     1.221   .     D
C92    H93     1.071   .     S
C95    H96     1.075   .     S
C95    O97     1.221   .     D
C98    O100    1.221   .     D
C98    H99     1.075   .     S
C101   O125    1.300   .     A
C101   O123    1.303   .     A
C101   C112    1.454   .     S
C102   O126    1.300   .     A
C102   C111    1.454   .     S
C102   O124    1.303   .     A
C103   O129    1.305   .     A
C103   O127    1.293   .     A
C103   C105    1.449   .     S
C104   O130    1.305   .     A
C104   O128    1.293   .     A
C104   C106    1.449   .     S
C106   C5      1.370   1_655 S
C106   C34     1.490   1_655 S
C107   F137    1.357   .     S
C107   C112    1.406   .     A
C107   C409    1.383   1_545 S
C108   C111    1.406   .     A
C108   F138    1.357   .     S
C108   C260    1.383   .     S
C109   C111    1.400   .     A
C109   H119    1.083   .     S
C109   C257    1.383   .     S
C110   C112    1.400   .     A
C110   H120    1.083   .     S
C110   C408    1.383   1_545 S
C113   N122    1.380   .     A
C113   C139    1.489   .     S
C113   C1015   1.432   1_554 S
C114   C142    1.489   .     S
C114   N121    1.380   .     A
C114   C566    1.432   .     S
C115   N121    1.376   .     A
C115   C145    1.483   .     S
C115   C563    1.432   .     S
C116   C148    1.483   .     S
C116   N122    1.376   .     A
C116   C1014   1.432   1_554 S
Cu117  Cu118   2.709   .     S
Cu117  O130    1.986   .     S
Cu117  O123    1.967   .     S
Cu117  O126    1.969   .     S
Cu117  O127    1.980   .     S
Cu117  N121    2.036   .     S
Cu118  O129    1.986   .     S
Cu118  O125    1.969   .     S
Cu118  O124    1.967   .     S
Cu118  O128    1.980   .     S
Cu118  N122    2.036   .     S
C131   O133    1.220   .     D
C131   H132    1.086   .     S
C131   C5      1.490   1_655 S
C134   O136    1.220   .     D
C134   H135    1.086   .     S
C139   O141    1.221   .     D
C139   H140    1.071   .     S
C142   O144    1.221   .     D
C142   H143    1.071   .     S
C145   H146    1.075   .     S
C145   O147    1.221   .     D
C148   O150    1.221   .     D
C148   H149    1.075   .     S
C151   O175    1.300   .     A
C151   O173    1.303   .     A
C151   C162    1.454   .     S
C152   O176    1.300   .     A
C152   C161    1.454   .     S
C152   O174    1.303   .     A
C153   O179    1.305   .     A
C153   O177    1.293   .     A
C153   C155    1.449   .     S
C154   O180    1.305   .     A
C154   O178    1.293   .     A
C154   C156    1.449   .     S
C155   C256    1.370   1_455 S
C155   C281    1.490   1_455 S
C156   C205    1.370   .     S
C156   C234    1.490   .     S
C157   F187    1.357   .     S
C157   C162    1.406   .     A
C158   C161    1.406   .     A
C158   F188    1.357   .     S
C158   C310    1.383   .     S
C159   C161    1.400   .     A
C159   H169    1.083   .     S
C159   C307    1.383   .     S
C160   C162    1.400   .     A
C160   H170    1.083   .     S
C163   N172    1.380   .     A
C163   C189    1.489   .     S
C163   C1065   1.432   1_554 S
C164   C192    1.489   .     S
C164   N171    1.380   .     A
C164   C616    1.432   .     S
C165   N171    1.376   .     A
C165   C195    1.483   .     S
C165   C613    1.432   .     S
C166   C198    1.483   .     S
C166   N172    1.376   .     A
C166   C1064   1.432   1_554 S
Cu167  Cu168   2.709   .     S
Cu167  O180    1.986   .     S
Cu167  O173    1.967   .     S
Cu167  O176    1.969   .     S
Cu167  O177    1.980   .     S
Cu167  N171    2.036   .     S
Cu168  O179    1.986   .     S
Cu168  O175    1.969   .     S
Cu168  O174    1.967   .     S
Cu168  O178    1.980   .     S
Cu168  N172    2.036   .     S
C181   O183    1.220   .     D
C181   H182    1.086   .     S
C181   C205    1.490   .     S
C184   O186    1.220   .     D
C184   H185    1.086   .     S
C184   C256    1.490   1_455 S
C189   O191    1.221   .     D
C189   H190    1.071   .     S
C192   O194    1.221   .     D
C192   H193    1.071   .     S
C195   H196    1.075   .     S
C195   O197    1.221   .     D
C198   O200    1.221   .     D
C198   H199    1.075   .     S
C201   O225    1.300   .     A
C201   O223    1.303   .     A
C201   C212    1.454   .     S
C202   O226    1.300   .     A
C202   C211    1.454   .     S
C202   O224    1.303   .     A
C203   O229    1.305   .     A
C203   O227    1.293   .     A
C203   C205    1.449   .     S
C204   O230    1.305   .     A
C204   O228    1.293   .     A
C204   C206    1.449   .     S
C206   C255    1.370   .     S
C206   C284    1.490   .     S
C207   F237    1.357   .     S
C207   C212    1.406   .     A
C208   C211    1.406   .     A
C208   F238    1.357   .     S
C208   C360    1.383   .     S
C209   C211    1.400   .     A
C209   H219    1.083   .     S
C209   C357    1.383   .     S
C210   C212    1.400   .     A
C210   H220    1.083   .     S
C213   N222    1.380   .     A
C213   C239    1.489   .     S
C213   C1115   1.432   1_554 S
C214   C242    1.489   .     S
C214   N221    1.380   .     A
C214   C666    1.432   .     S
C215   N221    1.376   .     A
C215   C245    1.483   .     S
C215   C663    1.432   .     S
C216   C248    1.483   .     S
C216   N222    1.376   .     A
C216   C1114   1.432   1_554 S
Cu217  Cu218   2.709   .     S
Cu217  O230    1.986   .     S
Cu217  O223    1.967   .     S
Cu217  O226    1.969   .     S
Cu217  O227    1.980   .     S
Cu217  N221    2.036   .     S
Cu218  O229    1.986   .     S
Cu218  O225    1.969   .     S
Cu218  O224    1.967   .     S
Cu218  O228    1.980   .     S
Cu218  N222    2.036   .     S
C231   O233    1.220   .     D
C231   H232    1.086   .     S
C231   C255    1.490   .     S
C234   O236    1.220   .     D
C234   H235    1.086   .     S
C239   O241    1.221   .     D
C239   H240    1.071   .     S
C242   O244    1.221   .     D
C242   H243    1.071   .     S
C245   H246    1.075   .     S
C245   O247    1.221   .     D
C248   O250    1.221   .     D
C248   H249    1.075   .     S
C251   O275    1.300   .     A
C251   O273    1.303   .     A
C251   C262    1.454   .     S
C252   O276    1.300   .     A
C252   C261    1.454   .     S
C252   O274    1.303   .     A
C253   O279    1.305   .     A
C253   O277    1.293   .     A
C253   C255    1.449   .     S
C254   O280    1.305   .     A
C254   O278    1.293   .     A
C254   C256    1.449   .     S
C256   C155    1.370   1_655 S
C256   C184    1.490   1_655 S
C257   F287    1.357   .     S
C257   C262    1.406   .     A
C258   C261    1.406   .     A
C258   F288    1.357   .     S
C258   C410    1.383   .     S
C259   C261    1.400   .     A
C259   H269    1.083   .     S
C259   C407    1.383   .     S
C260   C262    1.400   .     A
C260   H270    1.083   .     S
C263   N272    1.380   .     A
C263   C289    1.489   .     S
C263   C1165   1.432   1_554 S
C264   C292    1.489   .     S
C264   N271    1.380   .     A
C264   C716    1.432   .     S
C265   N271    1.376   .     A
C265   C295    1.483   .     S
C265   C713    1.432   .     S
C266   C298    1.483   .     S
C266   N272    1.376   .     A
C266   C1164   1.432   1_554 S
Cu267  Cu268   2.709   .     S
Cu267  O280    1.986   .     S
Cu267  O273    1.967   .     S
Cu267  O276    1.969   .     S
Cu267  O277    1.980   .     S
Cu267  N271    2.036   .     S
Cu268  O279    1.986   .     S
Cu268  O275    1.969   .     S
Cu268  O274    1.967   .     S
Cu268  O278    1.980   .     S
Cu268  N272    2.036   .     S
C281   O283    1.220   .     D
C281   H282    1.086   .     S
C281   C155    1.490   1_655 S
C284   O286    1.220   .     D
C284   H285    1.086   .     S
C289   O291    1.221   .     D
C289   H290    1.071   .     S
C292   O294    1.221   .     D
C292   H293    1.071   .     S
C295   H296    1.075   .     S
C295   O297    1.221   .     D
C298   O300    1.221   .     D
C298   H299    1.075   .     S
C301   O325    1.300   .     A
C301   O323    1.303   .     A
C301   C312    1.454   .     S
C302   O326    1.300   .     A
C302   C311    1.454   .     S
C302   O324    1.303   .     A
C303   O329    1.305   .     A
C303   O327    1.293   .     A
C303   C305    1.449   .     S
C304   O330    1.305   .     A
C304   O328    1.293   .     A
C304   C306    1.449   .     S
C305   C406    1.370   1_455 S
C305   C431    1.490   1_455 S
C306   C355    1.370   .     S
C306   C384    1.490   .     S
C307   F337    1.357   .     S
C307   C312    1.406   .     A
C308   C311    1.406   .     A
C308   F338    1.357   .     S
C308   C10     1.383   1_565 S
C309   C311    1.400   .     A
C309   H319    1.083   .     S
C309   C7      1.383   1_565 S
C310   C312    1.400   .     A
C310   H320    1.083   .     S
C313   N322    1.380   .     A
C313   C339    1.489   .     S
C313   C1215   1.432   1_554 S
C314   C342    1.489   .     S
C314   N321    1.380   .     A
C314   C766    1.432   .     S
C315   N321    1.376   .     A
C315   C345    1.483   .     S
C315   C763    1.432   .     S
C316   C348    1.483   .     S
C316   N322    1.376   .     A
C316   C1214   1.432   1_554 S
Cu317  Cu318   2.709   .     S
Cu317  O330    1.986   .     S
Cu317  O323    1.967   .     S
Cu317  O326    1.969   .     S
Cu317  O327    1.980   .     S
Cu317  N321    2.036   .     S
Cu318  O329    1.986   .     S
Cu318  O325    1.969   .     S
Cu318  O324    1.967   .     S
Cu318  O328    1.980   .     S
Cu318  N322    2.036   .     S
C331   O333    1.220   .     D
C331   H332    1.086   .     S
C331   C355    1.490   .     S
C334   O336    1.220   .     D
C334   H335    1.086   .     S
C334   C406    1.490   1_455 S
C339   O341    1.221   .     D
C339   H340    1.071   .     S
C342   O344    1.221   .     D
C342   H343    1.071   .     S
C345   H346    1.075   .     S
C345   O347    1.221   .     D
C348   O350    1.221   .     D
C348   H349    1.075   .     S
C351   O375    1.300   .     A
C351   O373    1.303   .     A
C351   C362    1.454   .     S
C352   O376    1.300   .     A
C352   C361    1.454   .     S
C352   O374    1.303   .     A
C353   O379    1.305   .     A
C353   O377    1.293   .     A
C353   C355    1.449   .     S
C354   O380    1.305   .     A
C354   O378    1.293   .     A
C354   C356    1.449   .     S
C356   C405    1.370   .     S
C356   C434    1.490   .     S
C357   F387    1.357   .     S
C357   C362    1.406   .     A
C358   C361    1.406   .     A
C358   F388    1.357   .     S
C358   C60     1.383   1_565 S
C359   C361    1.400   .     A
C359   H369    1.083   .     S
C359   C57     1.383   1_565 S
C360   C362    1.400   .     A
C360   H370    1.083   .     S
C363   N372    1.380   .     A
C363   C389    1.489   .     S
C363   C1265   1.432   1_554 S
C364   C392    1.489   .     S
C364   N371    1.380   .     A
C364   C816    1.432   .     S
C365   N371    1.376   .     A
C365   C395    1.483   .     S
C365   C813    1.432   .     S
C366   C398    1.483   .     S
C366   N372    1.376   .     A
C366   C1264   1.432   1_554 S
Cu367  Cu368   2.709   .     S
Cu367  O380    1.986   .     S
Cu367  O373    1.967   .     S
Cu367  O376    1.969   .     S
Cu367  O377    1.980   .     S
Cu367  N371    2.036   .     S
Cu368  O379    1.986   .     S
Cu368  O375    1.969   .     S
Cu368  O374    1.967   .     S
Cu368  O378    1.980   .     S
Cu368  N372    2.036   .     S
C381   O383    1.220   .     D
C381   H382    1.086   .     S
C381   C405    1.490   .     S
C384   O386    1.220   .     D
C384   H385    1.086   .     S
C389   O391    1.221   .     D
C389   H390    1.071   .     S
C392   O394    1.221   .     D
C392   H393    1.071   .     S
C395   H396    1.075   .     S
C395   O397    1.221   .     D
C398   O400    1.221   .     D
C398   H399    1.075   .     S
C401   O425    1.300   .     A
C401   O423    1.303   .     A
C401   C412    1.454   .     S
C402   O426    1.300   .     A
C402   C411    1.454   .     S
C402   O424    1.303   .     A
C403   O429    1.305   .     A
C403   O427    1.293   .     A
C403   C405    1.449   .     S
C404   O430    1.305   .     A
C404   O428    1.293   .     A
C404   C406    1.449   .     S
C406   C305    1.370   1_655 S
C406   C334    1.490   1_655 S
C407   F437    1.357   .     S
C407   C412    1.406   .     A
C408   C411    1.406   .     A
C408   F438    1.357   .     S
C408   C110    1.383   1_565 S
C409   C411    1.400   .     A
C409   H419    1.083   .     S
C409   C107    1.383   1_565 S
C410   C412    1.400   .     A
C410   H420    1.083   .     S
C413   N422    1.380   .     A
C413   C439    1.489   .     S
C413   C1315   1.432   1_554 S
C414   C442    1.489   .     S
C414   N421    1.380   .     A
C414   C866    1.432   .     S
C415   N421    1.376   .     A
C415   C445    1.483   .     S
C415   C863    1.432   .     S
C416   C448    1.483   .     S
C416   N422    1.376   .     A
C416   C1314   1.432   1_554 S
Cu417  Cu418   2.709   .     S
Cu417  O430    1.986   .     S
Cu417  O423    1.967   .     S
Cu417  O426    1.969   .     S
Cu417  O427    1.980   .     S
Cu417  N421    2.036   .     S
Cu418  O429    1.986   .     S
Cu418  O425    1.969   .     S
Cu418  O424    1.967   .     S
Cu418  O428    1.980   .     S
Cu418  N422    2.036   .     S
C431   O433    1.220   .     D
C431   H432    1.086   .     S
C431   C305    1.490   1_655 S
C434   O436    1.220   .     D
C434   H435    1.086   .     S
C439   O441    1.221   .     D
C439   H440    1.071   .     S
C442   O444    1.221   .     D
C442   H443    1.071   .     S
C445   H446    1.075   .     S
C445   O447    1.221   .     D
C448   O450    1.221   .     D
C448   H449    1.075   .     S
C451   O475    1.300   .     A
C451   O473    1.303   .     A
C451   C462    1.454   .     S
C452   O476    1.300   .     A
C452   C461    1.454   .     S
C452   O474    1.303   .     A
C453   O479    1.305   .     A
C453   O477    1.293   .     A
C453   C455    1.449   .     S
C454   O480    1.305   .     A
C454   O478    1.293   .     A
C454   C456    1.449   .     S
C455   C556    1.370   1_455 S
C455   C581    1.490   1_455 S
C456   C505    1.370   .     S
C456   C534    1.490   .     S
C457   F487    1.357   .     S
C457   C462    1.406   .     A
C457   C759    1.383   1_545 S
C458   C461    1.406   .     A
C458   F488    1.357   .     S
C458   C610    1.383   .     S
C459   C461    1.400   .     A
C459   H469    1.083   .     S
C459   C607    1.383   .     S
C460   C462    1.400   .     A
C460   H470    1.083   .     S
C460   C758    1.383   1_545 S
C463   N472    1.380   .     A
C463   C489    1.489   .     S
C464   C492    1.489   .     S
C464   N471    1.380   .     A
C464   C916    1.432   .     S
C465   N471    1.376   .     A
C465   C495    1.483   .     S
C465   C913    1.432   .     S
C466   C498    1.483   .     S
C466   N472    1.376   .     A
Cu467  Cu468   2.709   .     S
Cu467  O480    1.986   .     S
Cu467  O473    1.967   .     S
Cu467  O476    1.969   .     S
Cu467  O477    1.980   .     S
Cu467  N471    2.036   .     S
Cu468  O479    1.986   .     S
Cu468  O475    1.969   .     S
Cu468  O474    1.967   .     S
Cu468  O478    1.980   .     S
Cu468  N472    2.036   .     S
C481   O483    1.220   .     D
C481   H482    1.086   .     S
C481   C505    1.490   .     S
C484   O486    1.220   .     D
C484   H485    1.086   .     S
C484   C556    1.490   1_455 S
C489   O491    1.221   .     D
C489   H490    1.071   .     S
C492   O494    1.221   .     D
C492   H493    1.071   .     S
C495   H496    1.075   .     S
C495   O497    1.221   .     D
C498   O500    1.221   .     D
C498   H499    1.075   .     S
C501   O525    1.300   .     A
C501   O523    1.303   .     A
C501   C512    1.454   .     S
C502   O526    1.300   .     A
C502   C511    1.454   .     S
C502   O524    1.303   .     A
C503   O529    1.305   .     A
C503   O527    1.293   .     A
C503   C505    1.449   .     S
C504   O530    1.305   .     A
C504   O528    1.293   .     A
C504   C506    1.449   .     S
C506   C555    1.370   .     S
C506   C584    1.490   .     S
C507   F537    1.357   .     S
C507   C512    1.406   .     A
C507   C809    1.383   1_545 S
C508   C511    1.406   .     A
C508   F538    1.357   .     S
C508   C660    1.383   .     S
C509   C511    1.400   .     A
C509   H519    1.083   .     S
C509   C657    1.383   .     S
C510   C512    1.400   .     A
C510   H520    1.083   .     S
C510   C808    1.383   1_545 S
C513   N522    1.380   .     A
C513   C539    1.489   .     S
C514   C542    1.489   .     S
C514   N521    1.380   .     A
C514   C966    1.432   .     S
C515   N521    1.376   .     A
C515   C545    1.483   .     S
C515   C963    1.432   .     S
C516   C548    1.483   .     S
C516   N522    1.376   .     A
Cu517  Cu518   2.709   .     S
Cu517  O530    1.986   .     S
Cu517  O523    1.967   .     S
Cu517  O526    1.969   .     S
Cu517  O527    1.980   .     S
Cu517  N521    2.036   .     S
Cu518  O529    1.986   .     S
Cu518  O525    1.969   .     S
Cu518  O524    1.967   .     S
Cu518  O528    1.980   .     S
Cu518  N522    2.036   .     S
C531   O533    1.220   .     D
C531   H532    1.086   .     S
C531   C555    1.490   .     S
C534   O536    1.220   .     D
C534   H535    1.086   .     S
C539   O541    1.221   .     D
C539   H540    1.071   .     S
C542   O544    1.221   .     D
C542   H543    1.071   .     S
C545   H546    1.075   .     S
C545   O547    1.221   .     D
C548   O550    1.221   .     D
C548   H549    1.075   .     S
C551   O575    1.300   .     A
C551   O573    1.303   .     A
C551   C562    1.454   .     S
C552   O576    1.300   .     A
C552   C561    1.454   .     S
C552   O574    1.303   .     A
C553   O579    1.305   .     A
C553   O577    1.293   .     A
C553   C555    1.449   .     S
C554   O580    1.305   .     A
C554   O578    1.293   .     A
C554   C556    1.449   .     S
C556   C455    1.370   1_655 S
C556   C484    1.490   1_655 S
C557   F587    1.357   .     S
C557   C562    1.406   .     A
C557   C859    1.383   1_545 S
C558   C561    1.406   .     A
C558   F588    1.357   .     S
C558   C710    1.383   .     S
C559   C561    1.400   .     A
C559   H569    1.083   .     S
C559   C707    1.383   .     S
C560   C562    1.400   .     A
C560   H570    1.083   .     S
C560   C858    1.383   1_545 S
C563   N572    1.380   .     A
C563   C589    1.489   .     S
C564   C592    1.489   .     S
C564   N571    1.380   .     A
C564   C1016   1.432   .     S
C565   N571    1.376   .     A
C565   C595    1.483   .     S
C565   C1013   1.432   .     S
C566   C598    1.483   .     S
C566   N572    1.376   .     A
Cu567  Cu568   2.709   .     S
Cu567  O580    1.986   .     S
Cu567  O573    1.967   .     S
Cu567  O576    1.969   .     S
Cu567  O577    1.980   .     S
Cu567  N571    2.036   .     S
Cu568  O579    1.986   .     S
Cu568  O575    1.969   .     S
Cu568  O574    1.967   .     S
Cu568  O578    1.980   .     S
Cu568  N572    2.036   .     S
C581   O583    1.220   .     D
C581   H582    1.086   .     S
C581   C455    1.490   1_655 S
C584   O586    1.220   .     D
C584   H585    1.086   .     S
C589   O591    1.221   .     D
C589   H590    1.071   .     S
C592   O594    1.221   .     D
C592   H593    1.071   .     S
C595   H596    1.075   .     S
C595   O597    1.221   .     D
C598   O600    1.221   .     D
C598   H599    1.075   .     S
C601   O625    1.300   .     A
C601   O623    1.303   .     A
C601   C612    1.454   .     S
C602   O626    1.300   .     A
C602   C611    1.454   .     S
C602   O624    1.303   .     A
C603   O629    1.305   .     A
C603   O627    1.293   .     A
C603   C605    1.449   .     S
C604   O630    1.305   .     A
C604   O628    1.293   .     A
C604   C606    1.449   .     S
C605   C706    1.370   1_455 S
C605   C731    1.490   1_455 S
C606   C655    1.370   .     S
C606   C684    1.490   .     S
C607   F637    1.357   .     S
C607   C612    1.406   .     A
C608   C611    1.406   .     A
C608   F638    1.357   .     S
C608   C760    1.383   .     S
C609   C611    1.400   .     A
C609   H619    1.083   .     S
C609   C757    1.383   .     S
C610   C612    1.400   .     A
C610   H620    1.083   .     S
C613   N622    1.380   .     A
C613   C639    1.489   .     S
C614   C642    1.489   .     S
C614   N621    1.380   .     A
C614   C1066   1.432   .     S
C615   N621    1.376   .     A
C615   C645    1.483   .     S
C615   C1063   1.432   .     S
C616   C648    1.483   .     S
C616   N622    1.376   .     A
Cu617  Cu618   2.709   .     S
Cu617  O630    1.986   .     S
Cu617  O623    1.967   .     S
Cu617  O626    1.969   .     S
Cu617  O627    1.980   .     S
Cu617  N621    2.036   .     S
Cu618  O629    1.986   .     S
Cu618  O625    1.969   .     S
Cu618  O624    1.967   .     S
Cu618  O628    1.980   .     S
Cu618  N622    2.036   .     S
C631   O633    1.220   .     D
C631   H632    1.086   .     S
C631   C655    1.490   .     S
C634   O636    1.220   .     D
C634   H635    1.086   .     S
C634   C706    1.490   1_455 S
C639   O641    1.221   .     D
C639   H640    1.071   .     S
C642   O644    1.221   .     D
C642   H643    1.071   .     S
C645   H646    1.075   .     S
C645   O647    1.221   .     D
C648   O650    1.221   .     D
C648   H649    1.075   .     S
C651   O675    1.300   .     A
C651   O673    1.303   .     A
C651   C662    1.454   .     S
C652   O676    1.300   .     A
C652   C661    1.454   .     S
C652   O674    1.303   .     A
C653   O679    1.305   .     A
C653   O677    1.293   .     A
C653   C655    1.449   .     S
C654   O680    1.305   .     A
C654   O678    1.293   .     A
C654   C656    1.449   .     S
C656   C705    1.370   .     S
C656   C734    1.490   .     S
C657   F687    1.357   .     S
C657   C662    1.406   .     A
C658   C661    1.406   .     A
C658   F688    1.357   .     S
C658   C810    1.383   .     S
C659   C661    1.400   .     A
C659   H669    1.083   .     S
C659   C807    1.383   .     S
C660   C662    1.400   .     A
C660   H670    1.083   .     S
C663   N672    1.380   .     A
C663   C689    1.489   .     S
C664   C692    1.489   .     S
C664   N671    1.380   .     A
C664   C1116   1.432   .     S
C665   N671    1.376   .     A
C665   C695    1.483   .     S
C665   C1113   1.432   .     S
C666   C698    1.483   .     S
C666   N672    1.376   .     A
Cu667  Cu668   2.709   .     S
Cu667  O680    1.986   .     S
Cu667  O673    1.967   .     S
Cu667  O676    1.969   .     S
Cu667  O677    1.980   .     S
Cu667  N671    2.036   .     S
Cu668  O679    1.986   .     S
Cu668  O675    1.969   .     S
Cu668  O674    1.967   .     S
Cu668  O678    1.980   .     S
Cu668  N672    2.036   .     S
C681   O683    1.220   .     D
C681   H682    1.086   .     S
C681   C705    1.490   .     S
C684   O686    1.220   .     D
C684   H685    1.086   .     S
C689   O691    1.221   .     D
C689   H690    1.071   .     S
C692   O694    1.221   .     D
C692   H693    1.071   .     S
C695   H696    1.075   .     S
C695   O697    1.221   .     D
C698   O700    1.221   .     D
C698   H699    1.075   .     S
C701   O725    1.300   .     A
C701   O723    1.303   .     A
C701   C712    1.454   .     S
C702   O726    1.300   .     A
C702   C711    1.454   .     S
C702   O724    1.303   .     A
C703   O729    1.305   .     A
C703   O727    1.293   .     A
C703   C705    1.449   .     S
C704   O730    1.305   .     A
C704   O728    1.293   .     A
C704   C706    1.449   .     S
C706   C605    1.370   1_655 S
C706   C634    1.490   1_655 S
C707   F737    1.357   .     S
C707   C712    1.406   .     A
C708   C711    1.406   .     A
C708   F738    1.357   .     S
C708   C860    1.383   .     S
C709   C711    1.400   .     A
C709   H719    1.083   .     S
C709   C857    1.383   .     S
C710   C712    1.400   .     A
C710   H720    1.083   .     S
C713   N722    1.380   .     A
C713   C739    1.489   .     S
C714   C742    1.489   .     S
C714   N721    1.380   .     A
C714   C1166   1.432   .     S
C715   N721    1.376   .     A
C715   C745    1.483   .     S
C715   C1163   1.432   .     S
C716   C748    1.483   .     S
C716   N722    1.376   .     A
Cu717  Cu718   2.709   .     S
Cu717  O730    1.986   .     S
Cu717  O723    1.967   .     S
Cu717  O726    1.969   .     S
Cu717  O727    1.980   .     S
Cu717  N721    2.036   .     S
Cu718  O729    1.986   .     S
Cu718  O725    1.969   .     S
Cu718  O724    1.967   .     S
Cu718  O728    1.980   .     S
Cu718  N722    2.036   .     S
C731   O733    1.220   .     D
C731   H732    1.086   .     S
C731   C605    1.490   1_655 S
C734   O736    1.220   .     D
C734   H735    1.086   .     S
C739   O741    1.221   .     D
C739   H740    1.071   .     S
C742   O744    1.221   .     D
C742   H743    1.071   .     S
C745   H746    1.075   .     S
C745   O747    1.221   .     D
C748   O750    1.221   .     D
C748   H749    1.075   .     S
C751   O775    1.300   .     A
C751   O773    1.303   .     A
C751   C762    1.454   .     S
C752   O776    1.300   .     A
C752   C761    1.454   .     S
C752   O774    1.303   .     A
C753   O779    1.305   .     A
C753   O777    1.293   .     A
C753   C755    1.449   .     S
C754   O780    1.305   .     A
C754   O778    1.293   .     A
C754   C756    1.449   .     S
C755   C856    1.370   1_455 S
C755   C881    1.490   1_455 S
C756   C805    1.370   .     S
C756   C834    1.490   .     S
C757   F787    1.357   .     S
C757   C762    1.406   .     A
C758   C761    1.406   .     A
C758   F788    1.357   .     S
C758   C460    1.383   1_565 S
C759   C761    1.400   .     A
C759   H769    1.083   .     S
C759   C457    1.383   1_565 S
C760   C762    1.400   .     A
C760   H770    1.083   .     S
C763   N772    1.380   .     A
C763   C789    1.489   .     S
C764   C792    1.489   .     S
C764   N771    1.380   .     A
C764   C1216   1.432   .     S
C765   N771    1.376   .     A
C765   C795    1.483   .     S
C765   C1213   1.432   .     S
C766   C798    1.483   .     S
C766   N772    1.376   .     A
Cu767  Cu768   2.709   .     S
Cu767  O780    1.986   .     S
Cu767  O773    1.967   .     S
Cu767  O776    1.969   .     S
Cu767  O777    1.980   .     S
Cu767  N771    2.036   .     S
Cu768  O779    1.986   .     S
Cu768  O775    1.969   .     S
Cu768  O774    1.967   .     S
Cu768  O778    1.980   .     S
Cu768  N772    2.036   .     S
C781   O783    1.220   .     D
C781   H782    1.086   .     S
C781   C805    1.490   .     S
C784   O786    1.220   .     D
C784   H785    1.086   .     S
C784   C856    1.490   1_455 S
C789   O791    1.221   .     D
C789   H790    1.071   .     S
C792   O794    1.221   .     D
C792   H793    1.071   .     S
C795   H796    1.075   .     S
C795   O797    1.221   .     D
C798   O800    1.221   .     D
C798   H799    1.075   .     S
C801   O825    1.300   .     A
C801   O823    1.303   .     A
C801   C812    1.454   .     S
C802   O826    1.300   .     A
C802   C811    1.454   .     S
C802   O824    1.303   .     A
C803   O829    1.305   .     A
C803   O827    1.293   .     A
C803   C805    1.449   .     S
C804   O830    1.305   .     A
C804   O828    1.293   .     A
C804   C806    1.449   .     S
C806   C855    1.370   .     S
C806   C884    1.490   .     S
C807   F837    1.357   .     S
C807   C812    1.406   .     A
C808   C811    1.406   .     A
C808   F838    1.357   .     S
C808   C510    1.383   1_565 S
C809   C811    1.400   .     A
C809   H819    1.083   .     S
C809   C507    1.383   1_565 S
C810   C812    1.400   .     A
C810   H820    1.083   .     S
C813   N822    1.380   .     A
C813   C839    1.489   .     S
C814   C842    1.489   .     S
C814   N821    1.380   .     A
C814   C1266   1.432   .     S
C815   N821    1.376   .     A
C815   C845    1.483   .     S
C815   C1263   1.432   .     S
C816   C848    1.483   .     S
C816   N822    1.376   .     A
Cu817  Cu818   2.709   .     S
Cu817  O830    1.986   .     S
Cu817  O823    1.967   .     S
Cu817  O826    1.969   .     S
Cu817  O827    1.980   .     S
Cu817  N821    2.036   .     S
Cu818  O829    1.986   .     S
Cu818  O825    1.969   .     S
Cu818  O824    1.967   .     S
Cu818  O828    1.980   .     S
Cu818  N822    2.036   .     S
C831   O833    1.220   .     D
C831   H832    1.086   .     S
C831   C855    1.490   .     S
C834   O836    1.220   .     D
C834   H835    1.086   .     S
C839   O841    1.221   .     D
C839   H840    1.071   .     S
C842   O844    1.221   .     D
C842   H843    1.071   .     S
C845   H846    1.075   .     S
C845   O847    1.221   .     D
C848   O850    1.221   .     D
C848   H849    1.075   .     S
C851   O875    1.300   .     A
C851   O873    1.303   .     A
C851   C862    1.454   .     S
C852   O876    1.300   .     A
C852   C861    1.454   .     S
C852   O874    1.303   .     A
C853   O879    1.305   .     A
C853   O877    1.293   .     A
C853   C855    1.449   .     S
C854   O880    1.305   .     A
C854   O878    1.293   .     A
C854   C856    1.449   .     S
C856   C755    1.370   1_655 S
C856   C784    1.490   1_655 S
C857   F887    1.357   .     S
C857   C862    1.406   .     A
C858   C861    1.406   .     A
C858   F888    1.357   .     S
C858   C560    1.383   1_565 S
C859   C861    1.400   .     A
C859   H869    1.083   .     S
C859   C557    1.383   1_565 S
C860   C862    1.400   .     A
C860   H870    1.083   .     S
C863   N872    1.380   .     A
C863   C889    1.489   .     S
C864   C892    1.489   .     S
C864   N871    1.380   .     A
C864   C1316   1.432   .     S
C865   N871    1.376   .     A
C865   C895    1.483   .     S
C865   C1313   1.432   .     S
C866   C898    1.483   .     S
C866   N872    1.376   .     A
Cu867  Cu868   2.709   .     S
Cu867  O880    1.986   .     S
Cu867  O873    1.967   .     S
Cu867  O876    1.969   .     S
Cu867  O877    1.980   .     S
Cu867  N871    2.036   .     S
Cu868  O879    1.986   .     S
Cu868  O875    1.969   .     S
Cu868  O874    1.967   .     S
Cu868  O878    1.980   .     S
Cu868  N872    2.036   .     S
C881   O883    1.220   .     D
C881   H882    1.086   .     S
C881   C755    1.490   1_655 S
C884   O886    1.220   .     D
C884   H885    1.086   .     S
C889   O891    1.221   .     D
C889   H890    1.071   .     S
C892   O894    1.221   .     D
C892   H893    1.071   .     S
C895   H896    1.075   .     S
C895   O897    1.221   .     D
C898   O900    1.221   .     D
C898   H899    1.075   .     S
C901   O925    1.300   .     A
C901   O923    1.303   .     A
C901   C912    1.454   .     S
C902   O926    1.300   .     A
C902   C911    1.454   .     S
C902   O924    1.303   .     A
C903   O929    1.305   .     A
C903   O927    1.293   .     A
C903   C905    1.449   .     S
C904   O930    1.305   .     A
C904   O928    1.293   .     A
C904   C906    1.449   .     S
C905   C1006   1.370   1_455 S
C905   C1031   1.490   1_455 S
C906   C955    1.370   .     S
C906   C984    1.490   .     S
C907   F937    1.357   .     S
C907   C912    1.406   .     A
C907   C1209   1.383   1_545 S
C908   C911    1.406   .     A
C908   F938    1.357   .     S
C908   C1060   1.383   .     S
C909   C911    1.400   .     A
C909   H919    1.083   .     S
C909   C1057   1.383   .     S
C910   C912    1.400   .     A
C910   H920    1.083   .     S
C910   C1208   1.383   1_545 S
C913   N922    1.380   .     A
C913   C939    1.489   .     S
C914   C942    1.489   .     S
C914   N921    1.380   .     A
C914   C16     1.432   1_556 S
C915   N921    1.376   .     A
C915   C945    1.483   .     S
C915   C13     1.432   1_556 S
C916   C948    1.483   .     S
C916   N922    1.376   .     A
Cu917  Cu918   2.709   .     S
Cu917  O930    1.986   .     S
Cu917  O923    1.967   .     S
Cu917  O926    1.969   .     S
Cu917  O927    1.980   .     S
Cu917  N921    2.036   .     S
Cu918  O929    1.986   .     S
Cu918  O925    1.969   .     S
Cu918  O924    1.967   .     S
Cu918  O928    1.980   .     S
Cu918  N922    2.036   .     S
C931   O933    1.220   .     D
C931   H932    1.086   .     S
C931   C955    1.490   .     S
C934   O936    1.220   .     D
C934   H935    1.086   .     S
C934   C1006   1.490   1_455 S
C939   O941    1.221   .     D
C939   H940    1.071   .     S
C942   O944    1.221   .     D
C942   H943    1.071   .     S
C945   H946    1.075   .     S
C945   O947    1.221   .     D
C948   O950    1.221   .     D
C948   H949    1.075   .     S
C951   O975    1.300   .     A
C951   O973    1.303   .     A
C951   C962    1.454   .     S
C952   O976    1.300   .     A
C952   C961    1.454   .     S
C952   O974    1.303   .     A
C953   O979    1.305   .     A
C953   O977    1.293   .     A
C953   C955    1.449   .     S
C954   O980    1.305   .     A
C954   O978    1.293   .     A
C954   C956    1.449   .     S
C956   C1005   1.370   .     S
C956   C1034   1.490   .     S
C957   F987    1.357   .     S
C957   C962    1.406   .     A
C957   C1259   1.383   1_545 S
C958   C961    1.406   .     A
C958   F988    1.357   .     S
C958   C1110   1.383   .     S
C959   C961    1.400   .     A
C959   H969    1.083   .     S
C959   C1107   1.383   .     S
C960   C962    1.400   .     A
C960   H970    1.083   .     S
C960   C1258   1.383   1_545 S
C963   N972    1.380   .     A
C963   C989    1.489   .     S
C964   C992    1.489   .     S
C964   N971    1.380   .     A
C964   C66     1.432   1_556 S
C965   N971    1.376   .     A
C965   C995    1.483   .     S
C965   C63     1.432   1_556 S
C966   C998    1.483   .     S
C966   N972    1.376   .     A
Cu967  Cu968   2.709   .     S
Cu967  O980    1.986   .     S
Cu967  O973    1.967   .     S
Cu967  O976    1.969   .     S
Cu967  O977    1.980   .     S
Cu967  N971    2.036   .     S
Cu968  O979    1.986   .     S
Cu968  O975    1.969   .     S
Cu968  O974    1.967   .     S
Cu968  O978    1.980   .     S
Cu968  N972    2.036   .     S
C981   O983    1.220   .     D
C981   H982    1.086   .     S
C981   C1005   1.490   .     S
C984   O986    1.220   .     D
C984   H985    1.086   .     S
C989   O991    1.221   .     D
C989   H990    1.071   .     S
C992   O994    1.221   .     D
C992   H993    1.071   .     S
C995   H996    1.075   .     S
C995   O997    1.221   .     D
C998   O1000   1.221   .     D
C998   H999    1.075   .     S
C1001  O1025   1.300   .     A
C1001  O1023   1.303   .     A
C1001  C1012   1.454   .     S
C1002  O1026   1.300   .     A
C1002  C1011   1.454   .     S
C1002  O1024   1.303   .     A
C1003  O1029   1.305   .     A
C1003  O1027   1.293   .     A
C1003  C1005   1.449   .     S
C1004  O1030   1.305   .     A
C1004  O1028   1.293   .     A
C1004  C1006   1.449   .     S
C1006  C905    1.370   1_655 S
C1006  C934    1.490   1_655 S
C1007  F1037   1.357   .     S
C1007  C1012   1.406   .     A
C1007  C1309   1.383   1_545 S
C1008  C1011   1.406   .     A
C1008  F1038   1.357   .     S
C1008  C1160   1.383   .     S
C1009  C1011   1.400   .     A
C1009  H1019   1.083   .     S
C1009  C1157   1.383   .     S
C1010  C1012   1.400   .     A
C1010  H1020   1.083   .     S
C1010  C1308   1.383   1_545 S
C1013  N1022   1.380   .     A
C1013  C1039   1.489   .     S
C1014  C1042   1.489   .     S
C1014  N1021   1.380   .     A
C1014  C116    1.432   1_556 S
C1015  N1021   1.376   .     A
C1015  C1045   1.483   .     S
C1015  C113    1.432   1_556 S
C1016  C1048   1.483   .     S
C1016  N1022   1.376   .     A
Cu1017 Cu1018  2.709   .     S
Cu1017 O1030   1.986   .     S
Cu1017 O1023   1.967   .     S
Cu1017 O1026   1.969   .     S
Cu1017 O1027   1.980   .     S
Cu1017 N1021   2.036   .     S
Cu1018 O1029   1.986   .     S
Cu1018 O1025   1.969   .     S
Cu1018 O1024   1.967   .     S
Cu1018 O1028   1.980   .     S
Cu1018 N1022   2.036   .     S
C1031  O1033   1.220   .     D
C1031  H1032   1.086   .     S
C1031  C905    1.490   1_655 S
C1034  O1036   1.220   .     D
C1034  H1035   1.086   .     S
C1039  O1041   1.221   .     D
C1039  H1040   1.071   .     S
C1042  O1044   1.221   .     D
C1042  H1043   1.071   .     S
C1045  H1046   1.075   .     S
C1045  O1047   1.221   .     D
C1048  O1050   1.221   .     D
C1048  H1049   1.075   .     S
C1051  O1075   1.300   .     A
C1051  O1073   1.303   .     A
C1051  C1062   1.454   .     S
C1052  O1076   1.300   .     A
C1052  C1061   1.454   .     S
C1052  O1074   1.303   .     A
C1053  O1079   1.305   .     A
C1053  O1077   1.293   .     A
C1053  C1055   1.449   .     S
C1054  O1080   1.305   .     A
C1054  O1078   1.293   .     A
C1054  C1056   1.449   .     S
C1055  C1156   1.370   1_455 S
C1055  C1181   1.490   1_455 S
C1056  C1105   1.370   .     S
C1056  C1134   1.490   .     S
C1057  F1087   1.357   .     S
C1057  C1062   1.406   .     A
C1058  C1061   1.406   .     A
C1058  F1088   1.357   .     S
C1058  C1210   1.383   .     S
C1059  C1061   1.400   .     A
C1059  H1069   1.083   .     S
C1059  C1207   1.383   .     S
C1060  C1062   1.400   .     A
C1060  H1070   1.083   .     S
C1063  N1072   1.380   .     A
C1063  C1089   1.489   .     S
C1064  C1092   1.489   .     S
C1064  N1071   1.380   .     A
C1064  C166    1.432   1_556 S
C1065  N1071   1.376   .     A
C1065  C1095   1.483   .     S
C1065  C163    1.432   1_556 S
C1066  C1098   1.483   .     S
C1066  N1072   1.376   .     A
Cu1067 Cu1068  2.709   .     S
Cu1067 O1080   1.986   .     S
Cu1067 O1073   1.967   .     S
Cu1067 O1076   1.969   .     S
Cu1067 O1077   1.980   .     S
Cu1067 N1071   2.036   .     S
Cu1068 O1079   1.986   .     S
Cu1068 O1075   1.969   .     S
Cu1068 O1074   1.967   .     S
Cu1068 O1078   1.980   .     S
Cu1068 N1072   2.036   .     S
C1081  O1083   1.220   .     D
C1081  H1082   1.086   .     S
C1081  C1105   1.490   .     S
C1084  O1086   1.220   .     D
C1084  H1085   1.086   .     S
C1084  C1156   1.490   1_455 S
C1089  O1091   1.221   .     D
C1089  H1090   1.071   .     S
C1092  O1094   1.221   .     D
C1092  H1093   1.071   .     S
C1095  H1096   1.075   .     S
C1095  O1097   1.221   .     D
C1098  O1100   1.221   .     D
C1098  H1099   1.075   .     S
C1101  O1125   1.300   .     A
C1101  O1123   1.303   .     A
C1101  C1112   1.454   .     S
C1102  O1126   1.300   .     A
C1102  C1111   1.454   .     S
C1102  O1124   1.303   .     A
C1103  O1129   1.305   .     A
C1103  O1127   1.293   .     A
C1103  C1105   1.449   .     S
C1104  O1130   1.305   .     A
C1104  O1128   1.293   .     A
C1104  C1106   1.449   .     S
C1106  C1155   1.370   .     S
C1106  C1184   1.490   .     S
C1107  F1137   1.357   .     S
C1107  C1112   1.406   .     A
C1108  C1111   1.406   .     A
C1108  F1138   1.357   .     S
C1108  C1260   1.383   .     S
C1109  C1111   1.400   .     A
C1109  H1119   1.083   .     S
C1109  C1257   1.383   .     S
C1110  C1112   1.400   .     A
C1110  H1120   1.083   .     S
C1113  N1122   1.380   .     A
C1113  C1139   1.489   .     S
C1114  C1142   1.489   .     S
C1114  N1121   1.380   .     A
C1114  C216    1.432   1_556 S
C1115  N1121   1.376   .     A
C1115  C1145   1.483   .     S
C1115  C213    1.432   1_556 S
C1116  C1148   1.483   .     S
C1116  N1122   1.376   .     A
Cu1117 Cu1118  2.709   .     S
Cu1117 O1130   1.986   .     S
Cu1117 O1123   1.967   .     S
Cu1117 O1126   1.969   .     S
Cu1117 O1127   1.980   .     S
Cu1117 N1121   2.036   .     S
Cu1118 O1129   1.986   .     S
Cu1118 O1125   1.969   .     S
Cu1118 O1124   1.967   .     S
Cu1118 O1128   1.980   .     S
Cu1118 N1122   2.036   .     S
C1131  O1133   1.220   .     D
C1131  H1132   1.086   .     S
C1131  C1155   1.490   .     S
C1134  O1136   1.220   .     D
C1134  H1135   1.086   .     S
C1139  O1141   1.221   .     D
C1139  H1140   1.071   .     S
C1142  O1144   1.221   .     D
C1142  H1143   1.071   .     S
C1145  H1146   1.075   .     S
C1145  O1147   1.221   .     D
C1148  O1150   1.221   .     D
C1148  H1149   1.075   .     S
C1151  O1175   1.300   .     A
C1151  O1173   1.303   .     A
C1151  C1162   1.454   .     S
C1152  O1176   1.300   .     A
C1152  C1161   1.454   .     S
C1152  O1174   1.303   .     A
C1153  O1179   1.305   .     A
C1153  O1177   1.293   .     A
C1153  C1155   1.449   .     S
C1154  O1180   1.305   .     A
C1154  O1178   1.293   .     A
C1154  C1156   1.449   .     S
C1156  C1055   1.370   1_655 S
C1156  C1084   1.490   1_655 S
C1157  F1187   1.357   .     S
C1157  C1162   1.406   .     A
C1158  C1161   1.406   .     A
C1158  F1188   1.357   .     S
C1158  C1310   1.383   .     S
C1159  C1161   1.400   .     A
C1159  H1169   1.083   .     S
C1159  C1307   1.383   .     S
C1160  C1162   1.400   .     A
C1160  H1170   1.083   .     S
C1163  N1172   1.380   .     A
C1163  C1189   1.489   .     S
C1164  C1192   1.489   .     S
C1164  N1171   1.380   .     A
C1164  C266    1.432   1_556 S
C1165  N1171   1.376   .     A
C1165  C1195   1.483   .     S
C1165  C263    1.432   1_556 S
C1166  C1198   1.483   .     S
C1166  N1172   1.376   .     A
Cu1167 Cu1168  2.709   .     S
Cu1167 O1180   1.986   .     S
Cu1167 O1173   1.967   .     S
Cu1167 O1176   1.969   .     S
Cu1167 O1177   1.980   .     S
Cu1167 N1171   2.036   .     S
Cu1168 O1179   1.986   .     S
Cu1168 O1175   1.969   .     S
Cu1168 O1174   1.967   .     S
Cu1168 O1178   1.980   .     S
Cu1168 N1172   2.036   .     S
C1181  O1183   1.220   .     D
C1181  H1182   1.086   .     S
C1181  C1055   1.490   1_655 S
C1184  O1186   1.220   .     D
C1184  H1185   1.086   .     S
C1189  O1191   1.221   .     D
C1189  H1190   1.071   .     S
C1192  O1194   1.221   .     D
C1192  H1193   1.071   .     S
C1195  H1196   1.075   .     S
C1195  O1197   1.221   .     D
C1198  O1200   1.221   .     D
C1198  H1199   1.075   .     S
C1201  O1225   1.300   .     A
C1201  O1223   1.303   .     A
C1201  C1212   1.454   .     S
C1202  O1226   1.300   .     A
C1202  C1211   1.454   .     S
C1202  O1224   1.303   .     A
C1203  O1229   1.305   .     A
C1203  O1227   1.293   .     A
C1203  C1205   1.449   .     S
C1204  O1230   1.305   .     A
C1204  O1228   1.293   .     A
C1204  C1206   1.449   .     S
C1205  C1306   1.370   1_455 S
C1205  C1331   1.490   1_455 S
C1206  C1255   1.370   .     S
C1206  C1284   1.490   .     S
C1207  F1237   1.357   .     S
C1207  C1212   1.406   .     A
C1208  C1211   1.406   .     A
C1208  F1238   1.357   .     S
C1208  C910    1.383   1_565 S
C1209  C1211   1.400   .     A
C1209  H1219   1.083   .     S
C1209  C907    1.383   1_565 S
C1210  C1212   1.400   .     A
C1210  H1220   1.083   .     S
C1213  N1222   1.380   .     A
C1213  C1239   1.489   .     S
C1214  C1242   1.489   .     S
C1214  N1221   1.380   .     A
C1214  C316    1.432   1_556 S
C1215  N1221   1.376   .     A
C1215  C1245   1.483   .     S
C1215  C313    1.432   1_556 S
C1216  C1248   1.483   .     S
C1216  N1222   1.376   .     A
Cu1217 Cu1218  2.709   .     S
Cu1217 O1230   1.986   .     S
Cu1217 O1223   1.967   .     S
Cu1217 O1226   1.969   .     S
Cu1217 O1227   1.980   .     S
Cu1217 N1221   2.036   .     S
Cu1218 O1229   1.986   .     S
Cu1218 O1225   1.969   .     S
Cu1218 O1224   1.967   .     S
Cu1218 O1228   1.980   .     S
Cu1218 N1222   2.036   .     S
C1231  O1233   1.220   .     D
C1231  H1232   1.086   .     S
C1231  C1255   1.490   .     S
C1234  O1236   1.220   .     D
C1234  H1235   1.086   .     S
C1234  C1306   1.490   1_455 S
C1239  O1241   1.221   .     D
C1239  H1240   1.071   .     S
C1242  O1244   1.221   .     D
C1242  H1243   1.071   .     S
C1245  H1246   1.075   .     S
C1245  O1247   1.221   .     D
C1248  O1250   1.221   .     D
C1248  H1249   1.075   .     S
C1251  O1275   1.300   .     A
C1251  O1273   1.303   .     A
C1251  C1262   1.454   .     S
C1252  O1276   1.300   .     A
C1252  C1261   1.454   .     S
C1252  O1274   1.303   .     A
C1253  O1279   1.305   .     A
C1253  O1277   1.293   .     A
C1253  C1255   1.449   .     S
C1254  O1280   1.305   .     A
C1254  O1278   1.293   .     A
C1254  C1256   1.449   .     S
C1256  C1305   1.370   .     S
C1256  C1334   1.490   .     S
C1257  F1287   1.357   .     S
C1257  C1262   1.406   .     A
C1258  C1261   1.406   .     A
C1258  F1288   1.357   .     S
C1258  C960    1.383   1_565 S
C1259  C1261   1.400   .     A
C1259  H1269   1.083   .     S
C1259  C957    1.383   1_565 S
C1260  C1262   1.400   .     A
C1260  H1270   1.083   .     S
C1263  N1272   1.380   .     A
C1263  C1289   1.489   .     S
C1264  C1292   1.489   .     S
C1264  N1271   1.380   .     A
C1264  C366    1.432   1_556 S
C1265  N1271   1.376   .     A
C1265  C1295   1.483   .     S
C1265  C363    1.432   1_556 S
C1266  C1298   1.483   .     S
C1266  N1272   1.376   .     A
Cu1267 Cu1268  2.709   .     S
Cu1267 O1280   1.986   .     S
Cu1267 O1273   1.967   .     S
Cu1267 O1276   1.969   .     S
Cu1267 O1277   1.980   .     S
Cu1267 N1271   2.036   .     S
Cu1268 O1279   1.986   .     S
Cu1268 O1275   1.969   .     S
Cu1268 O1274   1.967   .     S
Cu1268 O1278   1.980   .     S
Cu1268 N1272   2.036   .     S
C1281  O1283   1.220   .     D
C1281  H1282   1.086   .     S
C1281  C1305   1.490   .     S
C1284  O1286   1.220   .     D
C1284  H1285   1.086   .     S
C1289  O1291   1.221   .     D
C1289  H1290   1.071   .     S
C1292  O1294   1.221   .     D
C1292  H1293   1.071   .     S
C1295  H1296   1.075   .     S
C1295  O1297   1.221   .     D
C1298  O1300   1.221   .     D
C1298  H1299   1.075   .     S
C1301  O1325   1.300   .     A
C1301  O1323   1.303   .     A
C1301  C1312   1.454   .     S
C1302  O1326   1.300   .     A
C1302  C1311   1.454   .     S
C1302  O1324   1.303   .     A
C1303  O1329   1.305   .     A
C1303  O1327   1.293   .     A
C1303  C1305   1.449   .     S
C1304  O1330   1.305   .     A
C1304  O1328   1.293   .     A
C1304  C1306   1.449   .     S
C1306  C1205   1.370   1_655 S
C1306  C1234   1.490   1_655 S
C1307  F1337   1.357   .     S
C1307  C1312   1.406   .     A
C1308  C1311   1.406   .     A
C1308  F1338   1.357   .     S
C1308  C1010   1.383   1_565 S
C1309  C1311   1.400   .     A
C1309  H1319   1.083   .     S
C1309  C1007   1.383   1_565 S
C1310  C1312   1.400   .     A
C1310  H1320   1.083   .     S
C1313  N1322   1.380   .     A
C1313  C1339   1.489   .     S
C1314  C1342   1.489   .     S
C1314  N1321   1.380   .     A
C1314  C416    1.432   1_556 S
C1315  N1321   1.376   .     A
C1315  C1345   1.483   .     S
C1315  C413    1.432   1_556 S
C1316  C1348   1.483   .     S
C1316  N1322   1.376   .     A
Cu1317 Cu1318  2.709   .     S
Cu1317 O1330   1.986   .     S
Cu1317 O1323   1.967   .     S
Cu1317 O1326   1.969   .     S
Cu1317 O1327   1.980   .     S
Cu1317 N1321   2.036   .     S
Cu1318 O1329   1.986   .     S
Cu1318 O1325   1.969   .     S
Cu1318 O1324   1.967   .     S
Cu1318 O1328   1.980   .     S
Cu1318 N1322   2.036   .     S
C1331  O1333   1.220   .     D
C1331  H1332   1.086   .     S
C1331  C1205   1.490   1_655 S
C1334  O1336   1.220   .     D
C1334  H1335   1.086   .     S
C1339  O1341   1.221   .     D
C1339  H1340   1.071   .     S
C1342  O1344   1.221   .     D
C1342  H1343   1.071   .     S
C1345  H1346   1.075   .     S
C1345  O1347   1.221   .     D
C1348  O1350   1.221   .     D
C1348  H1349   1.075   .     S
