data_str_m2_o10_o16_pcu_sym.190
_audit_creation_date              2020-01-03
_audit_creation_method            'Materials Studio'
_symmetry_space_group_name_H-M    'P1'
_symmetry_Int_Tables_number       1
_symmetry_cell_setting            triclinic
loop_
_symmetry_equiv_pos_as_xyz
  x,y,z
_cell_length_a                    22.2817
_cell_length_b                    26.0684
_cell_length_c                    26.8030
_cell_angle_alpha                 93.9854
_cell_angle_beta                  77.2578
_cell_angle_gamma                 103.0875
loop_
_atom_site_label
_atom_site_type_symbol
_atom_site_fract_x
_atom_site_fract_y
_atom_site_fract_z
_atom_site_U_iso_or_equiv
_atom_site_adp_type
_atom_site_occupancy
C1     C     0.18183   0.26673   0.25138   0.00000  Uiso   1.00
C2     C     0.13898   0.17052   0.48801   0.00000  Uiso   1.00
C3     C     0.15510   0.18553   0.43602   0.00000  Uiso   1.00
C4     C     0.18625   0.18318   0.01783   0.00000  Uiso   1.00
C5     C     0.24633   0.21449   0.49684   0.00000  Uiso   1.00
C6     C     0.25855   0.23388   0.44770   0.00000  Uiso   1.00
C7     C     0.21335   0.22043   0.41807   0.00000  Uiso   1.00
C8     C     0.17596   0.16508   0.06770   0.00000  Uiso   1.00
C9     C     0.28097   0.21121   0.07637   0.00000  Uiso   1.00
C10    C     0.11225   0.16553   0.40347   0.00000  Uiso   1.00
C11    C     0.19063   0.32268   0.25153   0.00000  Uiso   1.00
C12    C     0.13312   0.16609   0.34726   0.00000  Uiso   1.00
C13    C     0.14263   0.01069   0.24917   0.00000  Uiso   1.00
C14    C     0.15146   0.06661   0.24883   0.00000  Uiso   1.00
C15    C     0.20073   0.17085   0.15288   0.00000  Uiso   1.00
C16    C     0.29345   0.22700   0.02555   0.00000  Uiso   1.00
C17    C     0.22136   0.18050   0.09770   0.00000  Uiso   1.00
C18    C     0.05066   0.13908   0.42474   0.00000  Uiso   1.00
C19    C     0.03257   0.12941   0.47677   0.00000  Uiso   1.00
C20    C     0.07616   0.14386   0.00803   0.00000  Uiso   1.00
Cu21   Cu    0.10710   0.16105   0.24435   0.00000  Uiso   1.00
Cu22   Cu    0.22623   0.17228   0.25564   0.00000  Uiso   1.00
H23    H     0.09616   0.32027   0.24778   0.00000  Uiso   1.00
H24    H     0.00364   0.20593   0.28960   0.00000  Uiso   1.00
H25    H     0.32972   0.12747   0.21035   0.00000  Uiso   1.00
H26    H     0.30335   0.25967   0.43200   0.00000  Uiso   1.00
H27    H     0.00643   0.24985   0.00883   0.00000  Uiso   1.00
H28    H     0.13228   0.13919   0.08466   0.00000  Uiso   1.00
H29    H     0.01680   0.12441   0.40085   0.00000  Uiso   1.00
H30    H     0.05864   0.13470   0.04790   0.00000  Uiso   1.00
H31    H     0.31808   0.10923   0.49283   0.00000  Uiso   1.00
H32    H     0.22441   0.23882   0.38129   0.00000  Uiso   1.00
H33    H     0.23704   0.01308   0.25337   0.00000  Uiso   1.00
N34    N     0.31574   0.18074   0.26416   0.00000  Uiso   1.00
N35    N     0.01759   0.15259   0.23584   0.00000  Uiso   1.00
O36    O     0.12797   0.23807   0.24633   0.00000  Uiso   1.00
O37    O     0.22858   0.24755   0.25586   0.00000  Uiso   1.00
O38    O     0.09181   0.15960   0.31839   0.00000  Uiso   1.00
O39    O     0.19242   0.16908   0.32793   0.00000  Uiso   1.00
O40    O     0.10476   0.08578   0.24413   0.00000  Uiso   1.00
O41    O     0.20536   0.09526   0.25367   0.00000  Uiso   1.00
O42    O     0.14092   0.16425   0.17207   0.00000  Uiso   1.00
O43    O     0.24152   0.17373   0.18160   0.00000  Uiso   1.00
O44    O     0.32749   0.22433   0.10458   0.00000  Uiso   1.00
C45    C     0.00198   0.27825   0.11871   0.00000  Uiso   1.00
H46    H     0.28960   0.28790   0.13874   0.00000  Uiso   1.00
H47    H     0.02245   0.30343   0.08460   0.00000  Uiso   1.00
C48    C     0.04707   0.29105   0.15514   0.00000  Uiso   1.00
H49    H     0.09341   0.28224   0.13636   0.00000  Uiso   1.00
H50    H     0.05398   0.00014   0.16630   0.00000  Uiso   1.00
H51    H     0.02735   0.26714   0.19005   0.00000  Uiso   1.00
C52    C     0.51516   0.26673   0.25138   0.00000  Uiso   1.00
C53    C     0.47231   0.17052   0.48801   0.00000  Uiso   1.00
C54    C     0.48843   0.18553   0.43602   0.00000  Uiso   1.00
C55    C     0.51958   0.18318   0.01783   0.00000  Uiso   1.00
C56    C     0.57966   0.21449   0.49684   0.00000  Uiso   1.00
C57    C     0.59188   0.23388   0.44770   0.00000  Uiso   1.00
C58    C     0.54668   0.22043   0.41807   0.00000  Uiso   1.00
C59    C     0.50929   0.16508   0.06770   0.00000  Uiso   1.00
C60    C     0.61430   0.21121   0.07637   0.00000  Uiso   1.00
C61    C     0.44558   0.16553   0.40347   0.00000  Uiso   1.00
C62    C     0.52396   0.32268   0.25153   0.00000  Uiso   1.00
C63    C     0.46645   0.16609   0.34726   0.00000  Uiso   1.00
C64    C     0.47597   0.01069   0.24917   0.00000  Uiso   1.00
C65    C     0.48479   0.06661   0.24883   0.00000  Uiso   1.00
C66    C     0.53407   0.17085   0.15288   0.00000  Uiso   1.00
C67    C     0.62678   0.22700   0.02555   0.00000  Uiso   1.00
C68    C     0.55469   0.18050   0.09770   0.00000  Uiso   1.00
C69    C     0.38399   0.13908   0.42474   0.00000  Uiso   1.00
C70    C     0.36591   0.12941   0.47677   0.00000  Uiso   1.00
C71    C     0.40949   0.14386   0.00803   0.00000  Uiso   1.00
Cu72   Cu    0.44043   0.16105   0.24435   0.00000  Uiso   1.00
Cu73   Cu    0.55957   0.17228   0.25564   0.00000  Uiso   1.00
H74    H     0.42950   0.32027   0.24778   0.00000  Uiso   1.00
H75    H     0.33697   0.20593   0.28960   0.00000  Uiso   1.00
H76    H     0.66305   0.12747   0.21035   0.00000  Uiso   1.00
H77    H     0.63668   0.25967   0.43200   0.00000  Uiso   1.00
H78    H     0.33976   0.24985   0.00883   0.00000  Uiso   1.00
H79    H     0.46562   0.13919   0.08466   0.00000  Uiso   1.00
H80    H     0.35014   0.12441   0.40085   0.00000  Uiso   1.00
H81    H     0.39198   0.13470   0.04790   0.00000  Uiso   1.00
H82    H     0.65142   0.10923   0.49283   0.00000  Uiso   1.00
H83    H     0.55774   0.23882   0.38129   0.00000  Uiso   1.00
H84    H     0.57037   0.01308   0.25337   0.00000  Uiso   1.00
N85    N     0.64908   0.18074   0.26416   0.00000  Uiso   1.00
N86    N     0.35092   0.15259   0.23584   0.00000  Uiso   1.00
O87    O     0.46131   0.23807   0.24633   0.00000  Uiso   1.00
O88    O     0.56191   0.24755   0.25586   0.00000  Uiso   1.00
O89    O     0.42515   0.15960   0.31839   0.00000  Uiso   1.00
O90    O     0.52575   0.16908   0.32793   0.00000  Uiso   1.00
O91    O     0.43809   0.08578   0.24413   0.00000  Uiso   1.00
O92    O     0.53869   0.09526   0.25367   0.00000  Uiso   1.00
O93    O     0.47425   0.16425   0.17207   0.00000  Uiso   1.00
O94    O     0.57485   0.17373   0.18160   0.00000  Uiso   1.00
O95    O     0.66082   0.22433   0.10458   0.00000  Uiso   1.00
C96    C     0.33531   0.27825   0.11871   0.00000  Uiso   1.00
H97    H     0.62293   0.28790   0.13874   0.00000  Uiso   1.00
H98    H     0.35578   0.30343   0.08460   0.00000  Uiso   1.00
C99    C     0.38040   0.29105   0.15514   0.00000  Uiso   1.00
H100   H     0.42674   0.28224   0.13636   0.00000  Uiso   1.00
H101   H     0.38731   0.00014   0.16630   0.00000  Uiso   1.00
H102   H     0.36068   0.26714   0.19005   0.00000  Uiso   1.00
C103   C     0.84849   0.26673   0.25138   0.00000  Uiso   1.00
C104   C     0.80564   0.17052   0.48801   0.00000  Uiso   1.00
C105   C     0.82176   0.18553   0.43602   0.00000  Uiso   1.00
C106   C     0.85291   0.18318   0.01783   0.00000  Uiso   1.00
C107   C     0.91300   0.21449   0.49684   0.00000  Uiso   1.00
C108   C     0.92521   0.23388   0.44770   0.00000  Uiso   1.00
C109   C     0.88002   0.22043   0.41807   0.00000  Uiso   1.00
C110   C     0.84263   0.16508   0.06770   0.00000  Uiso   1.00
C111   C     0.94763   0.21121   0.07637   0.00000  Uiso   1.00
C112   C     0.77892   0.16553   0.40347   0.00000  Uiso   1.00
C113   C     0.85729   0.32268   0.25153   0.00000  Uiso   1.00
C114   C     0.79978   0.16609   0.34726   0.00000  Uiso   1.00
C115   C     0.80930   0.01069   0.24917   0.00000  Uiso   1.00
C116   C     0.81813   0.06661   0.24883   0.00000  Uiso   1.00
C117   C     0.86740   0.17085   0.15288   0.00000  Uiso   1.00
C118   C     0.96011   0.22700   0.02555   0.00000  Uiso   1.00
C119   C     0.88802   0.18050   0.09770   0.00000  Uiso   1.00
C120   C     0.71732   0.13908   0.42474   0.00000  Uiso   1.00
C121   C     0.69924   0.12941   0.47677   0.00000  Uiso   1.00
C122   C     0.74283   0.14386   0.00803   0.00000  Uiso   1.00
Cu123  Cu    0.77377   0.16105   0.24435   0.00000  Uiso   1.00
Cu124  Cu    0.89290   0.17228   0.25564   0.00000  Uiso   1.00
H125   H     0.76283   0.32027   0.24778   0.00000  Uiso   1.00
H126   H     0.67030   0.20593   0.28960   0.00000  Uiso   1.00
H127   H     0.99638   0.12747   0.21035   0.00000  Uiso   1.00
H128   H     0.97002   0.25967   0.43200   0.00000  Uiso   1.00
H129   H     0.67310   0.24985   0.00883   0.00000  Uiso   1.00
H130   H     0.79895   0.13919   0.08466   0.00000  Uiso   1.00
H131   H     0.68347   0.12441   0.40085   0.00000  Uiso   1.00
H132   H     0.72531   0.13470   0.04790   0.00000  Uiso   1.00
H133   H     0.98475   0.10923   0.49283   0.00000  Uiso   1.00
H134   H     0.89108   0.23882   0.38129   0.00000  Uiso   1.00
H135   H     0.90371   0.01308   0.25337   0.00000  Uiso   1.00
N136   N     0.98241   0.18074   0.26416   0.00000  Uiso   1.00
N137   N     0.68426   0.15259   0.23584   0.00000  Uiso   1.00
O138   O     0.79464   0.23807   0.24633   0.00000  Uiso   1.00
O139   O     0.89524   0.24755   0.25586   0.00000  Uiso   1.00
O140   O     0.75848   0.15960   0.31839   0.00000  Uiso   1.00
O141   O     0.85908   0.16908   0.32793   0.00000  Uiso   1.00
O142   O     0.77142   0.08578   0.24413   0.00000  Uiso   1.00
O143   O     0.87203   0.09526   0.25367   0.00000  Uiso   1.00
O144   O     0.80758   0.16425   0.17207   0.00000  Uiso   1.00
O145   O     0.90819   0.17373   0.18160   0.00000  Uiso   1.00
O146   O     0.99416   0.22433   0.10458   0.00000  Uiso   1.00
C147   C     0.66865   0.27825   0.11871   0.00000  Uiso   1.00
H148   H     0.95627   0.28790   0.13874   0.00000  Uiso   1.00
H149   H     0.68911   0.30343   0.08460   0.00000  Uiso   1.00
C150   C     0.71373   0.29105   0.15514   0.00000  Uiso   1.00
H151   H     0.76007   0.28224   0.13636   0.00000  Uiso   1.00
H152   H     0.72064   0.00014   0.16630   0.00000  Uiso   1.00
H153   H     0.69402   0.26714   0.19005   0.00000  Uiso   1.00
C154   C     0.18183   0.60006   0.25138   0.00000  Uiso   1.00
C155   C     0.13898   0.50385   0.48801   0.00000  Uiso   1.00
C156   C     0.15510   0.51886   0.43602   0.00000  Uiso   1.00
C157   C     0.18625   0.51651   0.01783   0.00000  Uiso   1.00
C158   C     0.24633   0.54782   0.49684   0.00000  Uiso   1.00
C159   C     0.25855   0.56722   0.44770   0.00000  Uiso   1.00
C160   C     0.21335   0.55377   0.41807   0.00000  Uiso   1.00
C161   C     0.17596   0.49841   0.06770   0.00000  Uiso   1.00
C162   C     0.28097   0.54454   0.07637   0.00000  Uiso   1.00
C163   C     0.11225   0.49886   0.40347   0.00000  Uiso   1.00
C164   C     0.19063   0.65601   0.25153   0.00000  Uiso   1.00
C165   C     0.13312   0.49942   0.34726   0.00000  Uiso   1.00
C166   C     0.14263   0.34402   0.24917   0.00000  Uiso   1.00
C167   C     0.15146   0.39994   0.24883   0.00000  Uiso   1.00
C168   C     0.20073   0.50418   0.15288   0.00000  Uiso   1.00
C169   C     0.29345   0.56033   0.02555   0.00000  Uiso   1.00
C170   C     0.22136   0.51383   0.09770   0.00000  Uiso   1.00
C171   C     0.05066   0.47242   0.42474   0.00000  Uiso   1.00
C172   C     0.03257   0.46274   0.47677   0.00000  Uiso   1.00
C173   C     0.07616   0.47720   0.00803   0.00000  Uiso   1.00
Cu174  Cu    0.10710   0.49439   0.24435   0.00000  Uiso   1.00
Cu175  Cu    0.22623   0.50561   0.25564   0.00000  Uiso   1.00
H176   H     0.09616   0.65361   0.24778   0.00000  Uiso   1.00
H177   H     0.00364   0.53926   0.28960   0.00000  Uiso   1.00
H178   H     0.32972   0.46080   0.21035   0.00000  Uiso   1.00
H179   H     0.30335   0.59300   0.43200   0.00000  Uiso   1.00
H180   H     0.00643   0.58319   0.00883   0.00000  Uiso   1.00
H181   H     0.13228   0.47252   0.08466   0.00000  Uiso   1.00
H182   H     0.01680   0.45774   0.40085   0.00000  Uiso   1.00
H183   H     0.05864   0.46803   0.04790   0.00000  Uiso   1.00
H184   H     0.31808   0.44256   0.49283   0.00000  Uiso   1.00
H185   H     0.22441   0.57216   0.38129   0.00000  Uiso   1.00
H186   H     0.23704   0.34641   0.25337   0.00000  Uiso   1.00
N187   N     0.31574   0.51407   0.26416   0.00000  Uiso   1.00
N188   N     0.01759   0.48593   0.23584   0.00000  Uiso   1.00
O189   O     0.12797   0.57141   0.24633   0.00000  Uiso   1.00
O190   O     0.22858   0.58089   0.25586   0.00000  Uiso   1.00
O191   O     0.09181   0.49293   0.31839   0.00000  Uiso   1.00
O192   O     0.19242   0.50241   0.32793   0.00000  Uiso   1.00
O193   O     0.10476   0.41911   0.24413   0.00000  Uiso   1.00
O194   O     0.20536   0.42859   0.25367   0.00000  Uiso   1.00
O195   O     0.14092   0.49759   0.17207   0.00000  Uiso   1.00
O196   O     0.24152   0.50707   0.18160   0.00000  Uiso   1.00
O197   O     0.32749   0.55767   0.10458   0.00000  Uiso   1.00
C198   C     0.00198   0.61158   0.11871   0.00000  Uiso   1.00
H199   H     0.28960   0.62123   0.13874   0.00000  Uiso   1.00
H200   H     0.02245   0.63677   0.08460   0.00000  Uiso   1.00
C201   C     0.04707   0.62438   0.15514   0.00000  Uiso   1.00
H202   H     0.09341   0.61558   0.13636   0.00000  Uiso   1.00
H203   H     0.05398   0.33348   0.16630   0.00000  Uiso   1.00
H204   H     0.02735   0.60048   0.19005   0.00000  Uiso   1.00
C205   C     0.51516   0.60006   0.25138   0.00000  Uiso   1.00
C206   C     0.47231   0.50385   0.48801   0.00000  Uiso   1.00
C207   C     0.48843   0.51886   0.43602   0.00000  Uiso   1.00
C208   C     0.51958   0.51651   0.01783   0.00000  Uiso   1.00
C209   C     0.57966   0.54782   0.49684   0.00000  Uiso   1.00
C210   C     0.59188   0.56722   0.44770   0.00000  Uiso   1.00
C211   C     0.54668   0.55377   0.41807   0.00000  Uiso   1.00
C212   C     0.50929   0.49841   0.06770   0.00000  Uiso   1.00
C213   C     0.61430   0.54454   0.07637   0.00000  Uiso   1.00
C214   C     0.44558   0.49886   0.40347   0.00000  Uiso   1.00
C215   C     0.52396   0.65601   0.25153   0.00000  Uiso   1.00
C216   C     0.46645   0.49942   0.34726   0.00000  Uiso   1.00
C217   C     0.47597   0.34402   0.24917   0.00000  Uiso   1.00
C218   C     0.48479   0.39994   0.24883   0.00000  Uiso   1.00
C219   C     0.53407   0.50418   0.15288   0.00000  Uiso   1.00
C220   C     0.62678   0.56033   0.02555   0.00000  Uiso   1.00
C221   C     0.55469   0.51383   0.09770   0.00000  Uiso   1.00
C222   C     0.38399   0.47242   0.42474   0.00000  Uiso   1.00
C223   C     0.36591   0.46274   0.47677   0.00000  Uiso   1.00
C224   C     0.40949   0.47720   0.00803   0.00000  Uiso   1.00
Cu225  Cu    0.44043   0.49439   0.24435   0.00000  Uiso   1.00
Cu226  Cu    0.55957   0.50561   0.25564   0.00000  Uiso   1.00
H227   H     0.42950   0.65361   0.24778   0.00000  Uiso   1.00
H228   H     0.33697   0.53926   0.28960   0.00000  Uiso   1.00
H229   H     0.66305   0.46080   0.21035   0.00000  Uiso   1.00
H230   H     0.63668   0.59300   0.43200   0.00000  Uiso   1.00
H231   H     0.33976   0.58319   0.00883   0.00000  Uiso   1.00
H232   H     0.46562   0.47252   0.08466   0.00000  Uiso   1.00
H233   H     0.35014   0.45774   0.40085   0.00000  Uiso   1.00
H234   H     0.39198   0.46803   0.04790   0.00000  Uiso   1.00
H235   H     0.65142   0.44256   0.49283   0.00000  Uiso   1.00
H236   H     0.55774   0.57216   0.38129   0.00000  Uiso   1.00
H237   H     0.57037   0.34641   0.25337   0.00000  Uiso   1.00
N238   N     0.64908   0.51407   0.26416   0.00000  Uiso   1.00
N239   N     0.35092   0.48593   0.23584   0.00000  Uiso   1.00
O240   O     0.46131   0.57141   0.24633   0.00000  Uiso   1.00
O241   O     0.56191   0.58089   0.25586   0.00000  Uiso   1.00
O242   O     0.42515   0.49293   0.31839   0.00000  Uiso   1.00
O243   O     0.52575   0.50241   0.32793   0.00000  Uiso   1.00
O244   O     0.43809   0.41911   0.24413   0.00000  Uiso   1.00
O245   O     0.53869   0.42859   0.25367   0.00000  Uiso   1.00
O246   O     0.47425   0.49759   0.17207   0.00000  Uiso   1.00
O247   O     0.57485   0.50707   0.18160   0.00000  Uiso   1.00
O248   O     0.66082   0.55767   0.10458   0.00000  Uiso   1.00
C249   C     0.33531   0.61158   0.11871   0.00000  Uiso   1.00
H250   H     0.62293   0.62123   0.13874   0.00000  Uiso   1.00
H251   H     0.35578   0.63677   0.08460   0.00000  Uiso   1.00
C252   C     0.38040   0.62438   0.15514   0.00000  Uiso   1.00
H253   H     0.42674   0.61558   0.13636   0.00000  Uiso   1.00
H254   H     0.38731   0.33348   0.16630   0.00000  Uiso   1.00
H255   H     0.36068   0.60048   0.19005   0.00000  Uiso   1.00
C256   C     0.84849   0.60006   0.25138   0.00000  Uiso   1.00
C257   C     0.80564   0.50385   0.48801   0.00000  Uiso   1.00
C258   C     0.82176   0.51886   0.43602   0.00000  Uiso   1.00
C259   C     0.85291   0.51651   0.01783   0.00000  Uiso   1.00
C260   C     0.91300   0.54782   0.49684   0.00000  Uiso   1.00
C261   C     0.92521   0.56722   0.44770   0.00000  Uiso   1.00
C262   C     0.88002   0.55377   0.41807   0.00000  Uiso   1.00
C263   C     0.84263   0.49841   0.06770   0.00000  Uiso   1.00
C264   C     0.94763   0.54454   0.07637   0.00000  Uiso   1.00
C265   C     0.77892   0.49886   0.40347   0.00000  Uiso   1.00
C266   C     0.85729   0.65601   0.25153   0.00000  Uiso   1.00
C267   C     0.79978   0.49942   0.34726   0.00000  Uiso   1.00
C268   C     0.80930   0.34402   0.24917   0.00000  Uiso   1.00
C269   C     0.81813   0.39994   0.24883   0.00000  Uiso   1.00
C270   C     0.86740   0.50418   0.15288   0.00000  Uiso   1.00
C271   C     0.96011   0.56033   0.02555   0.00000  Uiso   1.00
C272   C     0.88802   0.51383   0.09770   0.00000  Uiso   1.00
C273   C     0.71732   0.47242   0.42474   0.00000  Uiso   1.00
C274   C     0.69924   0.46274   0.47677   0.00000  Uiso   1.00
C275   C     0.74283   0.47720   0.00803   0.00000  Uiso   1.00
Cu276  Cu    0.77377   0.49439   0.24435   0.00000  Uiso   1.00
Cu277  Cu    0.89290   0.50561   0.25564   0.00000  Uiso   1.00
H278   H     0.76283   0.65361   0.24778   0.00000  Uiso   1.00
H279   H     0.67030   0.53926   0.28960   0.00000  Uiso   1.00
H280   H     0.99638   0.46080   0.21035   0.00000  Uiso   1.00
H281   H     0.97002   0.59300   0.43200   0.00000  Uiso   1.00
H282   H     0.67310   0.58319   0.00883   0.00000  Uiso   1.00
H283   H     0.79895   0.47252   0.08466   0.00000  Uiso   1.00
H284   H     0.68347   0.45774   0.40085   0.00000  Uiso   1.00
H285   H     0.72531   0.46803   0.04790   0.00000  Uiso   1.00
H286   H     0.98475   0.44256   0.49283   0.00000  Uiso   1.00
H287   H     0.89108   0.57216   0.38129   0.00000  Uiso   1.00
H288   H     0.90371   0.34641   0.25337   0.00000  Uiso   1.00
N289   N     0.98241   0.51407   0.26416   0.00000  Uiso   1.00
N290   N     0.68426   0.48593   0.23584   0.00000  Uiso   1.00
O291   O     0.79464   0.57141   0.24633   0.00000  Uiso   1.00
O292   O     0.89524   0.58089   0.25586   0.00000  Uiso   1.00
O293   O     0.75848   0.49293   0.31839   0.00000  Uiso   1.00
O294   O     0.85908   0.50241   0.32793   0.00000  Uiso   1.00
O295   O     0.77142   0.41911   0.24413   0.00000  Uiso   1.00
O296   O     0.87203   0.42859   0.25367   0.00000  Uiso   1.00
O297   O     0.80758   0.49759   0.17207   0.00000  Uiso   1.00
O298   O     0.90819   0.50707   0.18160   0.00000  Uiso   1.00
O299   O     0.99416   0.55767   0.10458   0.00000  Uiso   1.00
C300   C     0.66865   0.61158   0.11871   0.00000  Uiso   1.00
H301   H     0.95627   0.62123   0.13874   0.00000  Uiso   1.00
H302   H     0.68911   0.63677   0.08460   0.00000  Uiso   1.00
C303   C     0.71373   0.62438   0.15514   0.00000  Uiso   1.00
H304   H     0.76007   0.61558   0.13636   0.00000  Uiso   1.00
H305   H     0.72064   0.33348   0.16630   0.00000  Uiso   1.00
H306   H     0.69402   0.60048   0.19005   0.00000  Uiso   1.00
C307   C     0.18183   0.93340   0.25138   0.00000  Uiso   1.00
C308   C     0.13898   0.83719   0.48801   0.00000  Uiso   1.00
C309   C     0.15510   0.85219   0.43602   0.00000  Uiso   1.00
C310   C     0.18625   0.84984   0.01783   0.00000  Uiso   1.00
C311   C     0.24633   0.88116   0.49684   0.00000  Uiso   1.00
C312   C     0.25855   0.90055   0.44770   0.00000  Uiso   1.00
C313   C     0.21335   0.88710   0.41807   0.00000  Uiso   1.00
C314   C     0.17596   0.83175   0.06770   0.00000  Uiso   1.00
C315   C     0.28097   0.87788   0.07637   0.00000  Uiso   1.00
C316   C     0.11225   0.83220   0.40347   0.00000  Uiso   1.00
C317   C     0.19063   0.98935   0.25153   0.00000  Uiso   1.00
C318   C     0.13312   0.83276   0.34726   0.00000  Uiso   1.00
C319   C     0.14263   0.67735   0.24917   0.00000  Uiso   1.00
C320   C     0.15146   0.73328   0.24883   0.00000  Uiso   1.00
C321   C     0.20073   0.83751   0.15288   0.00000  Uiso   1.00
C322   C     0.29345   0.89366   0.02555   0.00000  Uiso   1.00
C323   C     0.22136   0.84717   0.09770   0.00000  Uiso   1.00
C324   C     0.05066   0.80575   0.42474   0.00000  Uiso   1.00
C325   C     0.03257   0.79607   0.47677   0.00000  Uiso   1.00
C326   C     0.07616   0.81053   0.00803   0.00000  Uiso   1.00
Cu327  Cu    0.10710   0.82772   0.24435   0.00000  Uiso   1.00
Cu328  Cu    0.22623   0.83895   0.25564   0.00000  Uiso   1.00
H329   H     0.09616   0.98694   0.24778   0.00000  Uiso   1.00
H330   H     0.00364   0.87260   0.28960   0.00000  Uiso   1.00
H331   H     0.32972   0.79413   0.21035   0.00000  Uiso   1.00
H332   H     0.30335   0.92633   0.43200   0.00000  Uiso   1.00
H333   H     0.00643   0.91652   0.00883   0.00000  Uiso   1.00
H334   H     0.13228   0.80586   0.08466   0.00000  Uiso   1.00
H335   H     0.01680   0.79108   0.40085   0.00000  Uiso   1.00
H336   H     0.05864   0.80137   0.04790   0.00000  Uiso   1.00
H337   H     0.31808   0.77590   0.49283   0.00000  Uiso   1.00
H338   H     0.22441   0.90549   0.38129   0.00000  Uiso   1.00
H339   H     0.23704   0.67975   0.25337   0.00000  Uiso   1.00
N340   N     0.31574   0.84741   0.26416   0.00000  Uiso   1.00
N341   N     0.01759   0.81926   0.23584   0.00000  Uiso   1.00
O342   O     0.12797   0.90474   0.24633   0.00000  Uiso   1.00
O343   O     0.22858   0.91422   0.25586   0.00000  Uiso   1.00
O344   O     0.09181   0.82627   0.31839   0.00000  Uiso   1.00
O345   O     0.19242   0.83575   0.32793   0.00000  Uiso   1.00
O346   O     0.10476   0.75245   0.24413   0.00000  Uiso   1.00
O347   O     0.20536   0.76193   0.25367   0.00000  Uiso   1.00
O348   O     0.14092   0.83092   0.17207   0.00000  Uiso   1.00
O349   O     0.24152   0.84040   0.18160   0.00000  Uiso   1.00
O350   O     0.32749   0.89100   0.10458   0.00000  Uiso   1.00
C351   C     0.00198   0.94492   0.11871   0.00000  Uiso   1.00
H352   H     0.28960   0.95456   0.13874   0.00000  Uiso   1.00
H353   H     0.02245   0.97010   0.08460   0.00000  Uiso   1.00
C354   C     0.04707   0.95772   0.15514   0.00000  Uiso   1.00
H355   H     0.09341   0.94891   0.13636   0.00000  Uiso   1.00
H356   H     0.05398   0.66681   0.16630   0.00000  Uiso   1.00
H357   H     0.02735   0.93381   0.19005   0.00000  Uiso   1.00
C358   C     0.51516   0.93340   0.25138   0.00000  Uiso   1.00
C359   C     0.47231   0.83719   0.48801   0.00000  Uiso   1.00
C360   C     0.48843   0.85219   0.43602   0.00000  Uiso   1.00
C361   C     0.51958   0.84984   0.01783   0.00000  Uiso   1.00
C362   C     0.57966   0.88116   0.49684   0.00000  Uiso   1.00
C363   C     0.59188   0.90055   0.44770   0.00000  Uiso   1.00
C364   C     0.54668   0.88710   0.41807   0.00000  Uiso   1.00
C365   C     0.50929   0.83175   0.06770   0.00000  Uiso   1.00
C366   C     0.61430   0.87788   0.07637   0.00000  Uiso   1.00
C367   C     0.44558   0.83220   0.40347   0.00000  Uiso   1.00
C368   C     0.52396   0.98935   0.25153   0.00000  Uiso   1.00
C369   C     0.46645   0.83276   0.34726   0.00000  Uiso   1.00
C370   C     0.47597   0.67735   0.24917   0.00000  Uiso   1.00
C371   C     0.48479   0.73328   0.24883   0.00000  Uiso   1.00
C372   C     0.53407   0.83751   0.15288   0.00000  Uiso   1.00
C373   C     0.62678   0.89366   0.02555   0.00000  Uiso   1.00
C374   C     0.55469   0.84717   0.09770   0.00000  Uiso   1.00
C375   C     0.38399   0.80575   0.42474   0.00000  Uiso   1.00
C376   C     0.36591   0.79607   0.47677   0.00000  Uiso   1.00
C377   C     0.40949   0.81053   0.00803   0.00000  Uiso   1.00
Cu378  Cu    0.44043   0.82772   0.24435   0.00000  Uiso   1.00
Cu379  Cu    0.55957   0.83895   0.25564   0.00000  Uiso   1.00
H380   H     0.42950   0.98694   0.24778   0.00000  Uiso   1.00
H381   H     0.33697   0.87260   0.28960   0.00000  Uiso   1.00
H382   H     0.66305   0.79413   0.21035   0.00000  Uiso   1.00
H383   H     0.63668   0.92633   0.43200   0.00000  Uiso   1.00
H384   H     0.33976   0.91652   0.00883   0.00000  Uiso   1.00
H385   H     0.46562   0.80586   0.08466   0.00000  Uiso   1.00
H386   H     0.35014   0.79108   0.40085   0.00000  Uiso   1.00
H387   H     0.39198   0.80137   0.04790   0.00000  Uiso   1.00
H388   H     0.65142   0.77590   0.49283   0.00000  Uiso   1.00
H389   H     0.55774   0.90549   0.38129   0.00000  Uiso   1.00
H390   H     0.57037   0.67975   0.25337   0.00000  Uiso   1.00
N391   N     0.64908   0.84741   0.26416   0.00000  Uiso   1.00
N392   N     0.35092   0.81926   0.23584   0.00000  Uiso   1.00
O393   O     0.46131   0.90474   0.24633   0.00000  Uiso   1.00
O394   O     0.56191   0.91422   0.25586   0.00000  Uiso   1.00
O395   O     0.42515   0.82627   0.31839   0.00000  Uiso   1.00
O396   O     0.52575   0.83575   0.32793   0.00000  Uiso   1.00
O397   O     0.43809   0.75245   0.24413   0.00000  Uiso   1.00
O398   O     0.53869   0.76193   0.25367   0.00000  Uiso   1.00
O399   O     0.47425   0.83092   0.17207   0.00000  Uiso   1.00
O400   O     0.57485   0.84040   0.18160   0.00000  Uiso   1.00
O401   O     0.66082   0.89100   0.10458   0.00000  Uiso   1.00
C402   C     0.33531   0.94492   0.11871   0.00000  Uiso   1.00
H403   H     0.62293   0.95456   0.13874   0.00000  Uiso   1.00
H404   H     0.35578   0.97010   0.08460   0.00000  Uiso   1.00
C405   C     0.38040   0.95772   0.15514   0.00000  Uiso   1.00
H406   H     0.42674   0.94891   0.13636   0.00000  Uiso   1.00
H407   H     0.38731   0.66681   0.16630   0.00000  Uiso   1.00
H408   H     0.36068   0.93381   0.19005   0.00000  Uiso   1.00
C409   C     0.84849   0.93340   0.25138   0.00000  Uiso   1.00
C410   C     0.80564   0.83719   0.48801   0.00000  Uiso   1.00
C411   C     0.82176   0.85219   0.43602   0.00000  Uiso   1.00
C412   C     0.85291   0.84984   0.01783   0.00000  Uiso   1.00
C413   C     0.91300   0.88116   0.49684   0.00000  Uiso   1.00
C414   C     0.92521   0.90055   0.44770   0.00000  Uiso   1.00
C415   C     0.88002   0.88710   0.41807   0.00000  Uiso   1.00
C416   C     0.84263   0.83175   0.06770   0.00000  Uiso   1.00
C417   C     0.94763   0.87788   0.07637   0.00000  Uiso   1.00
C418   C     0.77892   0.83220   0.40347   0.00000  Uiso   1.00
C419   C     0.85729   0.98935   0.25153   0.00000  Uiso   1.00
C420   C     0.79978   0.83276   0.34726   0.00000  Uiso   1.00
C421   C     0.80930   0.67735   0.24917   0.00000  Uiso   1.00
C422   C     0.81813   0.73328   0.24883   0.00000  Uiso   1.00
C423   C     0.86740   0.83751   0.15288   0.00000  Uiso   1.00
C424   C     0.96011   0.89366   0.02555   0.00000  Uiso   1.00
C425   C     0.88802   0.84717   0.09770   0.00000  Uiso   1.00
C426   C     0.71732   0.80575   0.42474   0.00000  Uiso   1.00
C427   C     0.69924   0.79607   0.47677   0.00000  Uiso   1.00
C428   C     0.74283   0.81053   0.00803   0.00000  Uiso   1.00
Cu429  Cu    0.77377   0.82772   0.24435   0.00000  Uiso   1.00
Cu430  Cu    0.89290   0.83895   0.25564   0.00000  Uiso   1.00
H431   H     0.76283   0.98694   0.24778   0.00000  Uiso   1.00
H432   H     0.67030   0.87260   0.28960   0.00000  Uiso   1.00
H433   H     0.99638   0.79413   0.21035   0.00000  Uiso   1.00
H434   H     0.97002   0.92633   0.43200   0.00000  Uiso   1.00
H435   H     0.67310   0.91652   0.00883   0.00000  Uiso   1.00
H436   H     0.79895   0.80586   0.08466   0.00000  Uiso   1.00
H437   H     0.68347   0.79108   0.40085   0.00000  Uiso   1.00
H438   H     0.72531   0.80137   0.04790   0.00000  Uiso   1.00
H439   H     0.98475   0.77590   0.49283   0.00000  Uiso   1.00
H440   H     0.89108   0.90549   0.38129   0.00000  Uiso   1.00
H441   H     0.90371   0.67975   0.25337   0.00000  Uiso   1.00
N442   N     0.98241   0.84741   0.26416   0.00000  Uiso   1.00
N443   N     0.68426   0.81926   0.23584   0.00000  Uiso   1.00
O444   O     0.79464   0.90474   0.24633   0.00000  Uiso   1.00
O445   O     0.89524   0.91422   0.25586   0.00000  Uiso   1.00
O446   O     0.75848   0.82627   0.31839   0.00000  Uiso   1.00
O447   O     0.85908   0.83575   0.32793   0.00000  Uiso   1.00
O448   O     0.77142   0.75245   0.24413   0.00000  Uiso   1.00
O449   O     0.87203   0.76193   0.25367   0.00000  Uiso   1.00
O450   O     0.80758   0.83092   0.17207   0.00000  Uiso   1.00
O451   O     0.90819   0.84040   0.18160   0.00000  Uiso   1.00
O452   O     0.99416   0.89100   0.10458   0.00000  Uiso   1.00
C453   C     0.66865   0.94492   0.11871   0.00000  Uiso   1.00
H454   H     0.95627   0.95456   0.13874   0.00000  Uiso   1.00
H455   H     0.68911   0.97010   0.08460   0.00000  Uiso   1.00
C456   C     0.71373   0.95772   0.15514   0.00000  Uiso   1.00
H457   H     0.76007   0.94891   0.13636   0.00000  Uiso   1.00
H458   H     0.72064   0.66681   0.16630   0.00000  Uiso   1.00
H459   H     0.69402   0.93381   0.19005   0.00000  Uiso   1.00
C460   C     0.18183   0.26673   0.75138   0.00000  Uiso   1.00
C461   C     0.13898   0.17052   0.98801   0.00000  Uiso   1.00
C462   C     0.15510   0.18553   0.93602   0.00000  Uiso   1.00
C463   C     0.18625   0.18318   0.51783   0.00000  Uiso   1.00
C464   C     0.24633   0.21449   0.99684   0.00000  Uiso   1.00
C465   C     0.25855   0.23388   0.94770   0.00000  Uiso   1.00
C466   C     0.21335   0.22043   0.91807   0.00000  Uiso   1.00
C467   C     0.17596   0.16508   0.56770   0.00000  Uiso   1.00
C468   C     0.28097   0.21121   0.57637   0.00000  Uiso   1.00
C469   C     0.11225   0.16553   0.90347   0.00000  Uiso   1.00
C470   C     0.19063   0.32268   0.75153   0.00000  Uiso   1.00
C471   C     0.13312   0.16609   0.84726   0.00000  Uiso   1.00
C472   C     0.14263   0.01069   0.74917   0.00000  Uiso   1.00
C473   C     0.15146   0.06661   0.74883   0.00000  Uiso   1.00
C474   C     0.20073   0.17085   0.65288   0.00000  Uiso   1.00
C475   C     0.29345   0.22700   0.52555   0.00000  Uiso   1.00
C476   C     0.22136   0.18050   0.59770   0.00000  Uiso   1.00
C477   C     0.05066   0.13908   0.92474   0.00000  Uiso   1.00
C478   C     0.03257   0.12941   0.97677   0.00000  Uiso   1.00
C479   C     0.07616   0.14386   0.50803   0.00000  Uiso   1.00
Cu480  Cu    0.10710   0.16105   0.74435   0.00000  Uiso   1.00
Cu481  Cu    0.22623   0.17228   0.75564   0.00000  Uiso   1.00
H482   H     0.09616   0.32027   0.74778   0.00000  Uiso   1.00
H483   H     0.00364   0.20593   0.78960   0.00000  Uiso   1.00
H484   H     0.32972   0.12747   0.71035   0.00000  Uiso   1.00
H485   H     0.30335   0.25967   0.93200   0.00000  Uiso   1.00
H486   H     0.00643   0.24985   0.50883   0.00000  Uiso   1.00
H487   H     0.13228   0.13919   0.58466   0.00000  Uiso   1.00
H488   H     0.01680   0.12441   0.90085   0.00000  Uiso   1.00
H489   H     0.05864   0.13470   0.54790   0.00000  Uiso   1.00
H490   H     0.31808   0.10923   0.99283   0.00000  Uiso   1.00
H491   H     0.22441   0.23882   0.88129   0.00000  Uiso   1.00
H492   H     0.23704   0.01308   0.75337   0.00000  Uiso   1.00
N493   N     0.31574   0.18074   0.76416   0.00000  Uiso   1.00
N494   N     0.01759   0.15259   0.73584   0.00000  Uiso   1.00
O495   O     0.12797   0.23807   0.74633   0.00000  Uiso   1.00
O496   O     0.22858   0.24755   0.75586   0.00000  Uiso   1.00
O497   O     0.09181   0.15960   0.81839   0.00000  Uiso   1.00
O498   O     0.19242   0.16908   0.82793   0.00000  Uiso   1.00
O499   O     0.10476   0.08578   0.74413   0.00000  Uiso   1.00
O500   O     0.20536   0.09526   0.75367   0.00000  Uiso   1.00
O501   O     0.14092   0.16425   0.67207   0.00000  Uiso   1.00
O502   O     0.24152   0.17373   0.68160   0.00000  Uiso   1.00
O503   O     0.32749   0.22433   0.60458   0.00000  Uiso   1.00
C504   C     0.00198   0.27825   0.61871   0.00000  Uiso   1.00
H505   H     0.28960   0.28790   0.63874   0.00000  Uiso   1.00
H506   H     0.02245   0.30343   0.58460   0.00000  Uiso   1.00
C507   C     0.04707   0.29105   0.65514   0.00000  Uiso   1.00
H508   H     0.09341   0.28224   0.63636   0.00000  Uiso   1.00
H509   H     0.05398   0.00014   0.66630   0.00000  Uiso   1.00
H510   H     0.02735   0.26714   0.69005   0.00000  Uiso   1.00
C511   C     0.51516   0.26673   0.75138   0.00000  Uiso   1.00
C512   C     0.47231   0.17052   0.98801   0.00000  Uiso   1.00
C513   C     0.48843   0.18553   0.93602   0.00000  Uiso   1.00
C514   C     0.51958   0.18318   0.51783   0.00000  Uiso   1.00
C515   C     0.57966   0.21449   0.99684   0.00000  Uiso   1.00
C516   C     0.59188   0.23388   0.94770   0.00000  Uiso   1.00
C517   C     0.54668   0.22043   0.91807   0.00000  Uiso   1.00
C518   C     0.50929   0.16508   0.56770   0.00000  Uiso   1.00
C519   C     0.61430   0.21121   0.57637   0.00000  Uiso   1.00
C520   C     0.44558   0.16553   0.90347   0.00000  Uiso   1.00
C521   C     0.52396   0.32268   0.75153   0.00000  Uiso   1.00
C522   C     0.46645   0.16609   0.84726   0.00000  Uiso   1.00
C523   C     0.47597   0.01069   0.74917   0.00000  Uiso   1.00
C524   C     0.48479   0.06661   0.74883   0.00000  Uiso   1.00
C525   C     0.53407   0.17085   0.65288   0.00000  Uiso   1.00
C526   C     0.62678   0.22700   0.52555   0.00000  Uiso   1.00
C527   C     0.55469   0.18050   0.59770   0.00000  Uiso   1.00
C528   C     0.38399   0.13908   0.92474   0.00000  Uiso   1.00
C529   C     0.36591   0.12941   0.97677   0.00000  Uiso   1.00
C530   C     0.40949   0.14386   0.50803   0.00000  Uiso   1.00
Cu531  Cu    0.44043   0.16105   0.74435   0.00000  Uiso   1.00
Cu532  Cu    0.55957   0.17228   0.75564   0.00000  Uiso   1.00
H533   H     0.42950   0.32027   0.74778   0.00000  Uiso   1.00
H534   H     0.33697   0.20593   0.78960   0.00000  Uiso   1.00
H535   H     0.66305   0.12747   0.71035   0.00000  Uiso   1.00
H536   H     0.63668   0.25967   0.93200   0.00000  Uiso   1.00
H537   H     0.33976   0.24985   0.50883   0.00000  Uiso   1.00
H538   H     0.46562   0.13919   0.58466   0.00000  Uiso   1.00
H539   H     0.35014   0.12441   0.90085   0.00000  Uiso   1.00
H540   H     0.39198   0.13470   0.54790   0.00000  Uiso   1.00
H541   H     0.65142   0.10923   0.99283   0.00000  Uiso   1.00
H542   H     0.55774   0.23882   0.88129   0.00000  Uiso   1.00
H543   H     0.57037   0.01308   0.75337   0.00000  Uiso   1.00
N544   N     0.64908   0.18074   0.76416   0.00000  Uiso   1.00
N545   N     0.35092   0.15259   0.73584   0.00000  Uiso   1.00
O546   O     0.46131   0.23807   0.74633   0.00000  Uiso   1.00
O547   O     0.56191   0.24755   0.75586   0.00000  Uiso   1.00
O548   O     0.42515   0.15960   0.81839   0.00000  Uiso   1.00
O549   O     0.52575   0.16908   0.82793   0.00000  Uiso   1.00
O550   O     0.43809   0.08578   0.74413   0.00000  Uiso   1.00
O551   O     0.53869   0.09526   0.75367   0.00000  Uiso   1.00
O552   O     0.47425   0.16425   0.67207   0.00000  Uiso   1.00
O553   O     0.57485   0.17373   0.68160   0.00000  Uiso   1.00
O554   O     0.66082   0.22433   0.60458   0.00000  Uiso   1.00
C555   C     0.33531   0.27825   0.61871   0.00000  Uiso   1.00
H556   H     0.62293   0.28790   0.63874   0.00000  Uiso   1.00
H557   H     0.35578   0.30343   0.58460   0.00000  Uiso   1.00
C558   C     0.38040   0.29105   0.65514   0.00000  Uiso   1.00
H559   H     0.42674   0.28224   0.63636   0.00000  Uiso   1.00
H560   H     0.38731   0.00014   0.66630   0.00000  Uiso   1.00
H561   H     0.36068   0.26714   0.69005   0.00000  Uiso   1.00
C562   C     0.84849   0.26673   0.75138   0.00000  Uiso   1.00
C563   C     0.80564   0.17052   0.98801   0.00000  Uiso   1.00
C564   C     0.82176   0.18553   0.93602   0.00000  Uiso   1.00
C565   C     0.85291   0.18318   0.51783   0.00000  Uiso   1.00
C566   C     0.91300   0.21449   0.99684   0.00000  Uiso   1.00
C567   C     0.92521   0.23388   0.94770   0.00000  Uiso   1.00
C568   C     0.88002   0.22043   0.91807   0.00000  Uiso   1.00
C569   C     0.84263   0.16508   0.56770   0.00000  Uiso   1.00
C570   C     0.94763   0.21121   0.57637   0.00000  Uiso   1.00
C571   C     0.77892   0.16553   0.90347   0.00000  Uiso   1.00
C572   C     0.85729   0.32268   0.75153   0.00000  Uiso   1.00
C573   C     0.79978   0.16609   0.84726   0.00000  Uiso   1.00
C574   C     0.80930   0.01069   0.74917   0.00000  Uiso   1.00
C575   C     0.81813   0.06661   0.74883   0.00000  Uiso   1.00
C576   C     0.86740   0.17085   0.65288   0.00000  Uiso   1.00
C577   C     0.96011   0.22700   0.52555   0.00000  Uiso   1.00
C578   C     0.88802   0.18050   0.59770   0.00000  Uiso   1.00
C579   C     0.71732   0.13908   0.92474   0.00000  Uiso   1.00
C580   C     0.69924   0.12941   0.97677   0.00000  Uiso   1.00
C581   C     0.74283   0.14386   0.50803   0.00000  Uiso   1.00
Cu582  Cu    0.77377   0.16105   0.74435   0.00000  Uiso   1.00
Cu583  Cu    0.89290   0.17228   0.75564   0.00000  Uiso   1.00
H584   H     0.76283   0.32027   0.74778   0.00000  Uiso   1.00
H585   H     0.67030   0.20593   0.78960   0.00000  Uiso   1.00
H586   H     0.99638   0.12747   0.71035   0.00000  Uiso   1.00
H587   H     0.97002   0.25967   0.93200   0.00000  Uiso   1.00
H588   H     0.67310   0.24985   0.50883   0.00000  Uiso   1.00
H589   H     0.79895   0.13919   0.58466   0.00000  Uiso   1.00
H590   H     0.68347   0.12441   0.90085   0.00000  Uiso   1.00
H591   H     0.72531   0.13470   0.54790   0.00000  Uiso   1.00
H592   H     0.98475   0.10923   0.99283   0.00000  Uiso   1.00
H593   H     0.89108   0.23882   0.88129   0.00000  Uiso   1.00
H594   H     0.90371   0.01308   0.75337   0.00000  Uiso   1.00
N595   N     0.98241   0.18074   0.76416   0.00000  Uiso   1.00
N596   N     0.68426   0.15259   0.73584   0.00000  Uiso   1.00
O597   O     0.79464   0.23807   0.74633   0.00000  Uiso   1.00
O598   O     0.89524   0.24755   0.75586   0.00000  Uiso   1.00
O599   O     0.75848   0.15960   0.81839   0.00000  Uiso   1.00
O600   O     0.85908   0.16908   0.82793   0.00000  Uiso   1.00
O601   O     0.77142   0.08578   0.74413   0.00000  Uiso   1.00
O602   O     0.87203   0.09526   0.75367   0.00000  Uiso   1.00
O603   O     0.80758   0.16425   0.67207   0.00000  Uiso   1.00
O604   O     0.90819   0.17373   0.68160   0.00000  Uiso   1.00
O605   O     0.99416   0.22433   0.60458   0.00000  Uiso   1.00
C606   C     0.66865   0.27825   0.61871   0.00000  Uiso   1.00
H607   H     0.95627   0.28790   0.63874   0.00000  Uiso   1.00
H608   H     0.68911   0.30343   0.58460   0.00000  Uiso   1.00
C609   C     0.71373   0.29105   0.65514   0.00000  Uiso   1.00
H610   H     0.76007   0.28224   0.63636   0.00000  Uiso   1.00
H611   H     0.72064   0.00014   0.66630   0.00000  Uiso   1.00
H612   H     0.69402   0.26714   0.69005   0.00000  Uiso   1.00
C613   C     0.18183   0.60006   0.75138   0.00000  Uiso   1.00
C614   C     0.13898   0.50385   0.98801   0.00000  Uiso   1.00
C615   C     0.15510   0.51886   0.93602   0.00000  Uiso   1.00
C616   C     0.18625   0.51651   0.51783   0.00000  Uiso   1.00
C617   C     0.24633   0.54782   0.99684   0.00000  Uiso   1.00
C618   C     0.25855   0.56722   0.94770   0.00000  Uiso   1.00
C619   C     0.21335   0.55377   0.91807   0.00000  Uiso   1.00
C620   C     0.17596   0.49841   0.56770   0.00000  Uiso   1.00
C621   C     0.28097   0.54454   0.57637   0.00000  Uiso   1.00
C622   C     0.11225   0.49886   0.90347   0.00000  Uiso   1.00
C623   C     0.19063   0.65601   0.75153   0.00000  Uiso   1.00
C624   C     0.13312   0.49942   0.84726   0.00000  Uiso   1.00
C625   C     0.14263   0.34402   0.74917   0.00000  Uiso   1.00
C626   C     0.15146   0.39994   0.74883   0.00000  Uiso   1.00
C627   C     0.20073   0.50418   0.65288   0.00000  Uiso   1.00
C628   C     0.29345   0.56033   0.52555   0.00000  Uiso   1.00
C629   C     0.22136   0.51383   0.59770   0.00000  Uiso   1.00
C630   C     0.05066   0.47242   0.92474   0.00000  Uiso   1.00
C631   C     0.03257   0.46274   0.97677   0.00000  Uiso   1.00
C632   C     0.07616   0.47720   0.50803   0.00000  Uiso   1.00
Cu633  Cu    0.10710   0.49439   0.74435   0.00000  Uiso   1.00
Cu634  Cu    0.22623   0.50561   0.75564   0.00000  Uiso   1.00
H635   H     0.09616   0.65361   0.74778   0.00000  Uiso   1.00
H636   H     0.00364   0.53926   0.78960   0.00000  Uiso   1.00
H637   H     0.32972   0.46080   0.71035   0.00000  Uiso   1.00
H638   H     0.30335   0.59300   0.93200   0.00000  Uiso   1.00
H639   H     0.00643   0.58319   0.50883   0.00000  Uiso   1.00
H640   H     0.13228   0.47252   0.58466   0.00000  Uiso   1.00
H641   H     0.01680   0.45774   0.90085   0.00000  Uiso   1.00
H642   H     0.05864   0.46803   0.54790   0.00000  Uiso   1.00
H643   H     0.31808   0.44256   0.99283   0.00000  Uiso   1.00
H644   H     0.22441   0.57216   0.88129   0.00000  Uiso   1.00
H645   H     0.23704   0.34641   0.75337   0.00000  Uiso   1.00
N646   N     0.31574   0.51407   0.76416   0.00000  Uiso   1.00
N647   N     0.01759   0.48593   0.73584   0.00000  Uiso   1.00
O648   O     0.12797   0.57141   0.74633   0.00000  Uiso   1.00
O649   O     0.22858   0.58089   0.75586   0.00000  Uiso   1.00
O650   O     0.09181   0.49293   0.81839   0.00000  Uiso   1.00
O651   O     0.19242   0.50241   0.82793   0.00000  Uiso   1.00
O652   O     0.10476   0.41911   0.74413   0.00000  Uiso   1.00
O653   O     0.20536   0.42859   0.75367   0.00000  Uiso   1.00
O654   O     0.14092   0.49759   0.67207   0.00000  Uiso   1.00
O655   O     0.24152   0.50707   0.68160   0.00000  Uiso   1.00
O656   O     0.32749   0.55767   0.60458   0.00000  Uiso   1.00
C657   C     0.00198   0.61158   0.61871   0.00000  Uiso   1.00
H658   H     0.28960   0.62123   0.63874   0.00000  Uiso   1.00
H659   H     0.02245   0.63677   0.58460   0.00000  Uiso   1.00
C660   C     0.04707   0.62438   0.65514   0.00000  Uiso   1.00
H661   H     0.09341   0.61558   0.63636   0.00000  Uiso   1.00
H662   H     0.05398   0.33348   0.66630   0.00000  Uiso   1.00
H663   H     0.02735   0.60048   0.69005   0.00000  Uiso   1.00
C664   C     0.51516   0.60006   0.75138   0.00000  Uiso   1.00
C665   C     0.47231   0.50385   0.98801   0.00000  Uiso   1.00
C666   C     0.48843   0.51886   0.93602   0.00000  Uiso   1.00
C667   C     0.51958   0.51651   0.51783   0.00000  Uiso   1.00
C668   C     0.57966   0.54782   0.99684   0.00000  Uiso   1.00
C669   C     0.59188   0.56722   0.94770   0.00000  Uiso   1.00
C670   C     0.54668   0.55377   0.91807   0.00000  Uiso   1.00
C671   C     0.50929   0.49841   0.56770   0.00000  Uiso   1.00
C672   C     0.61430   0.54454   0.57637   0.00000  Uiso   1.00
C673   C     0.44558   0.49886   0.90347   0.00000  Uiso   1.00
C674   C     0.52396   0.65601   0.75153   0.00000  Uiso   1.00
C675   C     0.46645   0.49942   0.84726   0.00000  Uiso   1.00
C676   C     0.47597   0.34402   0.74917   0.00000  Uiso   1.00
C677   C     0.48479   0.39994   0.74883   0.00000  Uiso   1.00
C678   C     0.53407   0.50418   0.65288   0.00000  Uiso   1.00
C679   C     0.62678   0.56033   0.52555   0.00000  Uiso   1.00
C680   C     0.55469   0.51383   0.59770   0.00000  Uiso   1.00
C681   C     0.38399   0.47242   0.92474   0.00000  Uiso   1.00
C682   C     0.36591   0.46274   0.97677   0.00000  Uiso   1.00
C683   C     0.40949   0.47720   0.50803   0.00000  Uiso   1.00
Cu684  Cu    0.44043   0.49439   0.74435   0.00000  Uiso   1.00
Cu685  Cu    0.55957   0.50561   0.75564   0.00000  Uiso   1.00
H686   H     0.42950   0.65361   0.74778   0.00000  Uiso   1.00
H687   H     0.33697   0.53926   0.78960   0.00000  Uiso   1.00
H688   H     0.66305   0.46080   0.71035   0.00000  Uiso   1.00
H689   H     0.63668   0.59300   0.93200   0.00000  Uiso   1.00
H690   H     0.33976   0.58319   0.50883   0.00000  Uiso   1.00
H691   H     0.46562   0.47252   0.58466   0.00000  Uiso   1.00
H692   H     0.35014   0.45774   0.90085   0.00000  Uiso   1.00
H693   H     0.39198   0.46803   0.54790   0.00000  Uiso   1.00
H694   H     0.65142   0.44256   0.99283   0.00000  Uiso   1.00
H695   H     0.55774   0.57216   0.88129   0.00000  Uiso   1.00
H696   H     0.57037   0.34641   0.75337   0.00000  Uiso   1.00
N697   N     0.64908   0.51407   0.76416   0.00000  Uiso   1.00
N698   N     0.35092   0.48593   0.73584   0.00000  Uiso   1.00
O699   O     0.46131   0.57141   0.74633   0.00000  Uiso   1.00
O700   O     0.56191   0.58089   0.75586   0.00000  Uiso   1.00
O701   O     0.42515   0.49293   0.81839   0.00000  Uiso   1.00
O702   O     0.52575   0.50241   0.82793   0.00000  Uiso   1.00
O703   O     0.43809   0.41911   0.74413   0.00000  Uiso   1.00
O704   O     0.53869   0.42859   0.75367   0.00000  Uiso   1.00
O705   O     0.47425   0.49759   0.67207   0.00000  Uiso   1.00
O706   O     0.57485   0.50707   0.68160   0.00000  Uiso   1.00
O707   O     0.66082   0.55767   0.60458   0.00000  Uiso   1.00
C708   C     0.33531   0.61158   0.61871   0.00000  Uiso   1.00
H709   H     0.62293   0.62123   0.63874   0.00000  Uiso   1.00
H710   H     0.35578   0.63677   0.58460   0.00000  Uiso   1.00
C711   C     0.38040   0.62438   0.65514   0.00000  Uiso   1.00
H712   H     0.42674   0.61558   0.63636   0.00000  Uiso   1.00
H713   H     0.38731   0.33348   0.66630   0.00000  Uiso   1.00
H714   H     0.36068   0.60048   0.69005   0.00000  Uiso   1.00
C715   C     0.84849   0.60006   0.75138   0.00000  Uiso   1.00
C716   C     0.80564   0.50385   0.98801   0.00000  Uiso   1.00
C717   C     0.82176   0.51886   0.93602   0.00000  Uiso   1.00
C718   C     0.85291   0.51651   0.51783   0.00000  Uiso   1.00
C719   C     0.91300   0.54782   0.99684   0.00000  Uiso   1.00
C720   C     0.92521   0.56722   0.94770   0.00000  Uiso   1.00
C721   C     0.88002   0.55377   0.91807   0.00000  Uiso   1.00
C722   C     0.84263   0.49841   0.56770   0.00000  Uiso   1.00
C723   C     0.94763   0.54454   0.57637   0.00000  Uiso   1.00
C724   C     0.77892   0.49886   0.90347   0.00000  Uiso   1.00
C725   C     0.85729   0.65601   0.75153   0.00000  Uiso   1.00
C726   C     0.79978   0.49942   0.84726   0.00000  Uiso   1.00
C727   C     0.80930   0.34402   0.74917   0.00000  Uiso   1.00
C728   C     0.81813   0.39994   0.74883   0.00000  Uiso   1.00
C729   C     0.86740   0.50418   0.65288   0.00000  Uiso   1.00
C730   C     0.96011   0.56033   0.52555   0.00000  Uiso   1.00
C731   C     0.88802   0.51383   0.59770   0.00000  Uiso   1.00
C732   C     0.71732   0.47242   0.92474   0.00000  Uiso   1.00
C733   C     0.69924   0.46274   0.97677   0.00000  Uiso   1.00
C734   C     0.74283   0.47720   0.50803   0.00000  Uiso   1.00
Cu735  Cu    0.77377   0.49439   0.74435   0.00000  Uiso   1.00
Cu736  Cu    0.89290   0.50561   0.75564   0.00000  Uiso   1.00
H737   H     0.76283   0.65361   0.74778   0.00000  Uiso   1.00
H738   H     0.67030   0.53926   0.78960   0.00000  Uiso   1.00
H739   H     0.99638   0.46080   0.71035   0.00000  Uiso   1.00
H740   H     0.97002   0.59300   0.93200   0.00000  Uiso   1.00
H741   H     0.67310   0.58319   0.50883   0.00000  Uiso   1.00
H742   H     0.79895   0.47252   0.58466   0.00000  Uiso   1.00
H743   H     0.68347   0.45774   0.90085   0.00000  Uiso   1.00
H744   H     0.72531   0.46803   0.54790   0.00000  Uiso   1.00
H745   H     0.98475   0.44256   0.99283   0.00000  Uiso   1.00
H746   H     0.89108   0.57216   0.88129   0.00000  Uiso   1.00
H747   H     0.90371   0.34641   0.75337   0.00000  Uiso   1.00
N748   N     0.98241   0.51407   0.76416   0.00000  Uiso   1.00
N749   N     0.68426   0.48593   0.73584   0.00000  Uiso   1.00
O750   O     0.79464   0.57141   0.74633   0.00000  Uiso   1.00
O751   O     0.89524   0.58089   0.75586   0.00000  Uiso   1.00
O752   O     0.75848   0.49293   0.81839   0.00000  Uiso   1.00
O753   O     0.85908   0.50241   0.82793   0.00000  Uiso   1.00
O754   O     0.77142   0.41911   0.74413   0.00000  Uiso   1.00
O755   O     0.87203   0.42859   0.75367   0.00000  Uiso   1.00
O756   O     0.80758   0.49759   0.67207   0.00000  Uiso   1.00
O757   O     0.90819   0.50707   0.68160   0.00000  Uiso   1.00
O758   O     0.99416   0.55767   0.60458   0.00000  Uiso   1.00
C759   C     0.66865   0.61158   0.61871   0.00000  Uiso   1.00
H760   H     0.95627   0.62123   0.63874   0.00000  Uiso   1.00
H761   H     0.68911   0.63677   0.58460   0.00000  Uiso   1.00
C762   C     0.71373   0.62438   0.65514   0.00000  Uiso   1.00
H763   H     0.76007   0.61558   0.63636   0.00000  Uiso   1.00
H764   H     0.72064   0.33348   0.66630   0.00000  Uiso   1.00
H765   H     0.69402   0.60048   0.69005   0.00000  Uiso   1.00
C766   C     0.18183   0.93340   0.75138   0.00000  Uiso   1.00
C767   C     0.13898   0.83719   0.98801   0.00000  Uiso   1.00
C768   C     0.15510   0.85219   0.93602   0.00000  Uiso   1.00
C769   C     0.18625   0.84984   0.51783   0.00000  Uiso   1.00
C770   C     0.24633   0.88116   0.99684   0.00000  Uiso   1.00
C771   C     0.25855   0.90055   0.94770   0.00000  Uiso   1.00
C772   C     0.21335   0.88710   0.91807   0.00000  Uiso   1.00
C773   C     0.17596   0.83175   0.56770   0.00000  Uiso   1.00
C774   C     0.28097   0.87788   0.57637   0.00000  Uiso   1.00
C775   C     0.11225   0.83220   0.90347   0.00000  Uiso   1.00
C776   C     0.19063   0.98935   0.75153   0.00000  Uiso   1.00
C777   C     0.13312   0.83276   0.84726   0.00000  Uiso   1.00
C778   C     0.14263   0.67735   0.74917   0.00000  Uiso   1.00
C779   C     0.15146   0.73328   0.74883   0.00000  Uiso   1.00
C780   C     0.20073   0.83751   0.65288   0.00000  Uiso   1.00
C781   C     0.29345   0.89366   0.52555   0.00000  Uiso   1.00
C782   C     0.22136   0.84717   0.59770   0.00000  Uiso   1.00
C783   C     0.05066   0.80575   0.92474   0.00000  Uiso   1.00
C784   C     0.03257   0.79607   0.97677   0.00000  Uiso   1.00
C785   C     0.07616   0.81053   0.50803   0.00000  Uiso   1.00
Cu786  Cu    0.10710   0.82772   0.74435   0.00000  Uiso   1.00
Cu787  Cu    0.22623   0.83895   0.75564   0.00000  Uiso   1.00
H788   H     0.09616   0.98694   0.74778   0.00000  Uiso   1.00
H789   H     0.00364   0.87260   0.78960   0.00000  Uiso   1.00
H790   H     0.32972   0.79413   0.71035   0.00000  Uiso   1.00
H791   H     0.30335   0.92633   0.93200   0.00000  Uiso   1.00
H792   H     0.00643   0.91652   0.50883   0.00000  Uiso   1.00
H793   H     0.13228   0.80586   0.58466   0.00000  Uiso   1.00
H794   H     0.01680   0.79108   0.90085   0.00000  Uiso   1.00
H795   H     0.05864   0.80137   0.54790   0.00000  Uiso   1.00
H796   H     0.31808   0.77590   0.99283   0.00000  Uiso   1.00
H797   H     0.22441   0.90549   0.88129   0.00000  Uiso   1.00
H798   H     0.23704   0.67975   0.75337   0.00000  Uiso   1.00
N799   N     0.31574   0.84741   0.76416   0.00000  Uiso   1.00
N800   N     0.01759   0.81926   0.73584   0.00000  Uiso   1.00
O801   O     0.12797   0.90474   0.74633   0.00000  Uiso   1.00
O802   O     0.22858   0.91422   0.75586   0.00000  Uiso   1.00
O803   O     0.09181   0.82627   0.81839   0.00000  Uiso   1.00
O804   O     0.19242   0.83575   0.82793   0.00000  Uiso   1.00
O805   O     0.10476   0.75245   0.74413   0.00000  Uiso   1.00
O806   O     0.20536   0.76193   0.75367   0.00000  Uiso   1.00
O807   O     0.14092   0.83092   0.67207   0.00000  Uiso   1.00
O808   O     0.24152   0.84040   0.68160   0.00000  Uiso   1.00
O809   O     0.32749   0.89100   0.60458   0.00000  Uiso   1.00
C810   C     0.00198   0.94492   0.61871   0.00000  Uiso   1.00
H811   H     0.28960   0.95456   0.63874   0.00000  Uiso   1.00
H812   H     0.02245   0.97010   0.58460   0.00000  Uiso   1.00
C813   C     0.04707   0.95772   0.65514   0.00000  Uiso   1.00
H814   H     0.09341   0.94891   0.63636   0.00000  Uiso   1.00
H815   H     0.05398   0.66681   0.66630   0.00000  Uiso   1.00
H816   H     0.02735   0.93381   0.69005   0.00000  Uiso   1.00
C817   C     0.51516   0.93340   0.75138   0.00000  Uiso   1.00
C818   C     0.47231   0.83719   0.98801   0.00000  Uiso   1.00
C819   C     0.48843   0.85219   0.93602   0.00000  Uiso   1.00
C820   C     0.51958   0.84984   0.51783   0.00000  Uiso   1.00
C821   C     0.57966   0.88116   0.99684   0.00000  Uiso   1.00
C822   C     0.59188   0.90055   0.94770   0.00000  Uiso   1.00
C823   C     0.54668   0.88710   0.91807   0.00000  Uiso   1.00
C824   C     0.50929   0.83175   0.56770   0.00000  Uiso   1.00
C825   C     0.61430   0.87788   0.57637   0.00000  Uiso   1.00
C826   C     0.44558   0.83220   0.90347   0.00000  Uiso   1.00
C827   C     0.52396   0.98935   0.75153   0.00000  Uiso   1.00
C828   C     0.46645   0.83276   0.84726   0.00000  Uiso   1.00
C829   C     0.47597   0.67735   0.74917   0.00000  Uiso   1.00
C830   C     0.48479   0.73328   0.74883   0.00000  Uiso   1.00
C831   C     0.53407   0.83751   0.65288   0.00000  Uiso   1.00
C832   C     0.62678   0.89366   0.52555   0.00000  Uiso   1.00
C833   C     0.55469   0.84717   0.59770   0.00000  Uiso   1.00
C834   C     0.38399   0.80575   0.92474   0.00000  Uiso   1.00
C835   C     0.36591   0.79607   0.97677   0.00000  Uiso   1.00
C836   C     0.40949   0.81053   0.50803   0.00000  Uiso   1.00
Cu837  Cu    0.44043   0.82772   0.74435   0.00000  Uiso   1.00
Cu838  Cu    0.55957   0.83895   0.75564   0.00000  Uiso   1.00
H839   H     0.42950   0.98694   0.74778   0.00000  Uiso   1.00
H840   H     0.33697   0.87260   0.78960   0.00000  Uiso   1.00
H841   H     0.66305   0.79413   0.71035   0.00000  Uiso   1.00
H842   H     0.63668   0.92633   0.93200   0.00000  Uiso   1.00
H843   H     0.33976   0.91652   0.50883   0.00000  Uiso   1.00
H844   H     0.46562   0.80586   0.58466   0.00000  Uiso   1.00
H845   H     0.35014   0.79108   0.90085   0.00000  Uiso   1.00
H846   H     0.39198   0.80137   0.54790   0.00000  Uiso   1.00
H847   H     0.65142   0.77590   0.99283   0.00000  Uiso   1.00
H848   H     0.55774   0.90549   0.88129   0.00000  Uiso   1.00
H849   H     0.57037   0.67975   0.75337   0.00000  Uiso   1.00
N850   N     0.64908   0.84741   0.76416   0.00000  Uiso   1.00
N851   N     0.35092   0.81926   0.73584   0.00000  Uiso   1.00
O852   O     0.46131   0.90474   0.74633   0.00000  Uiso   1.00
O853   O     0.56191   0.91422   0.75586   0.00000  Uiso   1.00
O854   O     0.42515   0.82627   0.81839   0.00000  Uiso   1.00
O855   O     0.52575   0.83575   0.82793   0.00000  Uiso   1.00
O856   O     0.43809   0.75245   0.74413   0.00000  Uiso   1.00
O857   O     0.53869   0.76193   0.75367   0.00000  Uiso   1.00
O858   O     0.47425   0.83092   0.67207   0.00000  Uiso   1.00
O859   O     0.57485   0.84040   0.68160   0.00000  Uiso   1.00
O860   O     0.66082   0.89100   0.60458   0.00000  Uiso   1.00
C861   C     0.33531   0.94492   0.61871   0.00000  Uiso   1.00
H862   H     0.62293   0.95456   0.63874   0.00000  Uiso   1.00
H863   H     0.35578   0.97010   0.58460   0.00000  Uiso   1.00
C864   C     0.38040   0.95772   0.65514   0.00000  Uiso   1.00
H865   H     0.42674   0.94891   0.63636   0.00000  Uiso   1.00
H866   H     0.38731   0.66681   0.66630   0.00000  Uiso   1.00
H867   H     0.36068   0.93381   0.69005   0.00000  Uiso   1.00
C868   C     0.84849   0.93340   0.75138   0.00000  Uiso   1.00
C869   C     0.80564   0.83719   0.98801   0.00000  Uiso   1.00
C870   C     0.82176   0.85219   0.93602   0.00000  Uiso   1.00
C871   C     0.85291   0.84984   0.51783   0.00000  Uiso   1.00
C872   C     0.91300   0.88116   0.99684   0.00000  Uiso   1.00
C873   C     0.92521   0.90055   0.94770   0.00000  Uiso   1.00
C874   C     0.88002   0.88710   0.91807   0.00000  Uiso   1.00
C875   C     0.84263   0.83175   0.56770   0.00000  Uiso   1.00
C876   C     0.94763   0.87788   0.57637   0.00000  Uiso   1.00
C877   C     0.77892   0.83220   0.90347   0.00000  Uiso   1.00
C878   C     0.85729   0.98935   0.75153   0.00000  Uiso   1.00
C879   C     0.79978   0.83276   0.84726   0.00000  Uiso   1.00
C880   C     0.80930   0.67735   0.74917   0.00000  Uiso   1.00
C881   C     0.81813   0.73328   0.74883   0.00000  Uiso   1.00
C882   C     0.86740   0.83751   0.65288   0.00000  Uiso   1.00
C883   C     0.96011   0.89366   0.52555   0.00000  Uiso   1.00
C884   C     0.88802   0.84717   0.59770   0.00000  Uiso   1.00
C885   C     0.71732   0.80575   0.92474   0.00000  Uiso   1.00
C886   C     0.69924   0.79607   0.97677   0.00000  Uiso   1.00
C887   C     0.74283   0.81053   0.50803   0.00000  Uiso   1.00
Cu888  Cu    0.77377   0.82772   0.74435   0.00000  Uiso   1.00
Cu889  Cu    0.89290   0.83895   0.75564   0.00000  Uiso   1.00
H890   H     0.76283   0.98694   0.74778   0.00000  Uiso   1.00
H891   H     0.67030   0.87260   0.78960   0.00000  Uiso   1.00
H892   H     0.99638   0.79413   0.71035   0.00000  Uiso   1.00
H893   H     0.97002   0.92633   0.93200   0.00000  Uiso   1.00
H894   H     0.67310   0.91652   0.50883   0.00000  Uiso   1.00
H895   H     0.79895   0.80586   0.58466   0.00000  Uiso   1.00
H896   H     0.68347   0.79108   0.90085   0.00000  Uiso   1.00
H897   H     0.72531   0.80137   0.54790   0.00000  Uiso   1.00
H898   H     0.98475   0.77590   0.99283   0.00000  Uiso   1.00
H899   H     0.89108   0.90549   0.88129   0.00000  Uiso   1.00
H900   H     0.90371   0.67975   0.75337   0.00000  Uiso   1.00
N901   N     0.98241   0.84741   0.76416   0.00000  Uiso   1.00
N902   N     0.68426   0.81926   0.73584   0.00000  Uiso   1.00
O903   O     0.79464   0.90474   0.74633   0.00000  Uiso   1.00
O904   O     0.89524   0.91422   0.75586   0.00000  Uiso   1.00
O905   O     0.75848   0.82627   0.81839   0.00000  Uiso   1.00
O906   O     0.85908   0.83575   0.82793   0.00000  Uiso   1.00
O907   O     0.77142   0.75245   0.74413   0.00000  Uiso   1.00
O908   O     0.87203   0.76193   0.75367   0.00000  Uiso   1.00
O909   O     0.80758   0.83092   0.67207   0.00000  Uiso   1.00
O910   O     0.90819   0.84040   0.68160   0.00000  Uiso   1.00
O911   O     0.99416   0.89100   0.60458   0.00000  Uiso   1.00
C912   C     0.66865   0.94492   0.61871   0.00000  Uiso   1.00
H913   H     0.95627   0.95456   0.63874   0.00000  Uiso   1.00
H914   H     0.68911   0.97010   0.58460   0.00000  Uiso   1.00
C915   C     0.71373   0.95772   0.65514   0.00000  Uiso   1.00
H916   H     0.76007   0.94891   0.63636   0.00000  Uiso   1.00
H917   H     0.72064   0.66681   0.66630   0.00000  Uiso   1.00
H918   H     0.69402   0.93381   0.69005   0.00000  Uiso   1.00
loop_
_geom_bond_atom_site_label_1
_geom_bond_atom_site_label_2
_geom_bond_distance
_geom_bond_site_symmetry_2
_ccdc_geom_bond_type
C1     C11     1.427   .     S
C1     O37     1.284   .     A
C1     O36     1.291   .     A
C2     C3      1.419   .     A
C2     C463    1.426   .     S
C2     C479    1.418   .     S
C3     C7      1.412   .     A
C3     C10     1.422   .     A
C4     C8      1.402   .     A
C4     C461    1.426   1_554 S
C4     C464    1.418   1_554 S
C5     C6      1.392   .     A
C5     C463    1.418   .     S
C5     C475    1.402   .     S
C6     C7      1.386   .     A
C6     H26     1.084   .     S
C7     H32     1.080   .     S
C8     C17     1.400   .     A
C8     H28     1.077   .     S
C9     C16     1.400   .     A
C9     C17     1.407   .     A
C9     O44     1.383   .     S
C10    C12     1.475   .     S
C10    C18     1.402   .     A
C11    C166    1.327   .     S
C11    H186    1.088   .     S
C12    O39     1.295   .     A
C12    O38     1.304   .     A
C13    C14     1.427   .     S
C13    C317    1.327   1_545 S
C13    H329    1.086   1_545 S
C14    O41     1.291   .     A
C14    O40     1.285   .     A
C15    O42     1.295   .     A
C15    O43     1.302   .     A
C15    C17     1.470   .     S
C16    C464    1.402   1_554 S
C16    H78     1.084   .     S
C18    H29     1.083   .     S
C18    C19     1.388   .     A
C19    C479    1.392   .     S
C19    H133    1.083   1_455 S
C20    H30     1.077   .     S
C20    C461    1.418   1_554 S
C20    C478    1.392   1_554 S
Cu21   N35     2.018   .     S
Cu21   O40     1.951   .     S
Cu21   O42     1.918   .     S
Cu21   O36     1.955   .     S
Cu21   Cu22    2.686   .     S
Cu21   O38     1.940   .     S
Cu22   N34     2.018   .     S
Cu22   O39     1.918   .     S
Cu22   O41     1.955   .     S
Cu22   O37     1.951   .     S
Cu22   O43     1.940   .     S
H23    C166    1.086   .     S
H24    N136    1.029   1_455 S
H25    N86     1.029   .     S
H27    C118    1.084   1_455 S
H31    C70     1.083   .     S
H33    C317    1.088   1_545 S
N34    H75     1.029   .     S
N34    N86     1.284   .     S
N35    N136    1.284   1_455 S
N35    H127    1.029   1_455 S
O44    C96     1.412   .     S
C45    H47     1.113   .     S
C45    C48     1.520   .     S
C45    O146    1.412   1_455 S
C45    H148    1.116   1_455 S
H46    C96     1.116   .     S
C48    H49     1.111   .     S
C48    H51     1.110   .     S
C48    H203    1.111   .     S
H50    C354    1.111   1_545 S
C52    C62     1.427   .     S
C52    O88     1.284   .     A
C52    O87     1.291   .     A
C53    C54     1.419   .     A
C53    C514    1.426   .     S
C53    C530    1.418   .     S
C54    C58     1.412   .     A
C54    C61     1.422   .     A
C55    C59     1.402   .     A
C55    C512    1.426   1_554 S
C55    C515    1.418   1_554 S
C56    C57     1.392   .     A
C56    C514    1.418   .     S
C56    C526    1.402   .     S
C57    C58     1.386   .     A
C57    H77     1.084   .     S
C58    H83     1.080   .     S
C59    C68     1.400   .     A
C59    H79     1.077   .     S
C60    C67     1.400   .     A
C60    C68     1.407   .     A
C60    O95     1.383   .     S
C61    C63     1.475   .     S
C61    C69     1.402   .     A
C62    C217    1.327   .     S
C62    H237    1.088   .     S
C63    O90     1.295   .     A
C63    O89     1.304   .     A
C64    C65     1.427   .     S
C64    C368    1.327   1_545 S
C64    H380    1.086   1_545 S
C65    O92     1.291   .     A
C65    O91     1.285   .     A
C66    O93     1.295   .     A
C66    O94     1.302   .     A
C66    C68     1.470   .     S
C67    C515    1.402   1_554 S
C67    H129    1.084   .     S
C69    H80     1.083   .     S
C69    C70     1.388   .     A
C70    C530    1.392   .     S
C71    H81     1.077   .     S
C71    C512    1.418   1_554 S
C71    C529    1.392   1_554 S
Cu72   N86     2.018   .     S
Cu72   O91     1.951   .     S
Cu72   O93     1.918   .     S
Cu72   O87     1.955   .     S
Cu72   Cu73    2.686   .     S
Cu72   O89     1.940   .     S
Cu73   N85     2.018   .     S
Cu73   O90     1.918   .     S
Cu73   O92     1.955   .     S
Cu73   O88     1.951   .     S
Cu73   O94     1.940   .     S
H74    C217    1.086   .     S
H76    N137    1.029   .     S
H82    C121    1.083   .     S
H84    C368    1.088   1_545 S
N85    H126    1.029   .     S
N85    N137    1.284   .     S
O95    C147    1.412   .     S
C96    H98     1.113   .     S
C96    C99     1.520   .     S
H97    C147    1.116   .     S
C99    H100    1.111   .     S
C99    H102    1.110   .     S
C99    H254    1.111   .     S
H101   C405    1.111   1_545 S
C103   C113    1.427   .     S
C103   O139    1.284   .     A
C103   O138    1.291   .     A
C104   C105    1.419   .     A
C104   C565    1.426   .     S
C104   C581    1.418   .     S
C105   C109    1.412   .     A
C105   C112    1.422   .     A
C106   C110    1.402   .     A
C106   C563    1.426   1_554 S
C106   C566    1.418   1_554 S
C107   C108    1.392   .     A
C107   C565    1.418   .     S
C107   C577    1.402   .     S
C108   C109    1.386   .     A
C108   H128    1.084   .     S
C109   H134    1.080   .     S
C110   C119    1.400   .     A
C110   H130    1.077   .     S
C111   C118    1.400   .     A
C111   C119    1.407   .     A
C111   O146    1.383   .     S
C112   C114    1.475   .     S
C112   C120    1.402   .     A
C113   C268    1.327   .     S
C113   H288    1.088   .     S
C114   O141    1.295   .     A
C114   O140    1.304   .     A
C115   C116    1.427   .     S
C115   C419    1.327   1_545 S
C115   H431    1.086   1_545 S
C116   O143    1.291   .     A
C116   O142    1.285   .     A
C117   O144    1.295   .     A
C117   O145    1.302   .     A
C117   C119    1.470   .     S
C118   C566    1.402   1_554 S
C118   H27     1.084   1_655 S
C120   H131    1.083   .     S
C120   C121    1.388   .     A
C121   C581    1.392   .     S
C122   H132    1.077   .     S
C122   C563    1.418   1_554 S
C122   C580    1.392   1_554 S
Cu123  N137    2.018   .     S
Cu123  O142    1.951   .     S
Cu123  O144    1.918   .     S
Cu123  O138    1.955   .     S
Cu123  Cu124   2.686   .     S
Cu123  O140    1.940   .     S
Cu124  N136    2.018   .     S
Cu124  O141    1.918   .     S
Cu124  O143    1.955   .     S
Cu124  O139    1.951   .     S
Cu124  O145    1.940   .     S
H125   C268    1.086   .     S
H127   N35     1.029   1_655 S
H133   C19     1.083   1_655 S
H135   C419    1.088   1_545 S
N136   H24     1.029   1_655 S
N136   N35     1.284   1_655 S
O146   C45     1.412   1_655 S
C147   H149    1.113   .     S
C147   C150    1.520   .     S
H148   C45     1.116   1_655 S
C150   H151    1.111   .     S
C150   H153    1.110   .     S
C150   H305    1.111   .     S
H152   C456    1.111   1_545 S
C154   C164    1.427   .     S
C154   O190    1.284   .     A
C154   O189    1.291   .     A
C155   C156    1.419   .     A
C155   C616    1.426   .     S
C155   C632    1.418   .     S
C156   C160    1.412   .     A
C156   C163    1.422   .     A
C157   C161    1.402   .     A
C157   C614    1.426   1_554 S
C157   C617    1.418   1_554 S
C158   C159    1.392   .     A
C158   C616    1.418   .     S
C158   C628    1.402   .     S
C159   C160    1.386   .     A
C159   H179    1.084   .     S
C160   H185    1.080   .     S
C161   C170    1.400   .     A
C161   H181    1.077   .     S
C162   C169    1.400   .     A
C162   C170    1.407   .     A
C162   O197    1.383   .     S
C163   C165    1.475   .     S
C163   C171    1.402   .     A
C164   C319    1.327   .     S
C164   H339    1.088   .     S
C165   O192    1.295   .     A
C165   O191    1.304   .     A
C166   C167    1.427   .     S
C167   O194    1.291   .     A
C167   O193    1.285   .     A
C168   O195    1.295   .     A
C168   O196    1.302   .     A
C168   C170    1.470   .     S
C169   C617    1.402   1_554 S
C169   H231    1.084   .     S
C171   H182    1.083   .     S
C171   C172    1.388   .     A
C172   C632    1.392   .     S
C172   H286    1.083   1_455 S
C173   H183    1.077   .     S
C173   C614    1.418   1_554 S
C173   C631    1.392   1_554 S
Cu174  N188    2.018   .     S
Cu174  O193    1.951   .     S
Cu174  O195    1.918   .     S
Cu174  O189    1.955   .     S
Cu174  Cu175   2.686   .     S
Cu174  O191    1.940   .     S
Cu175  N187    2.018   .     S
Cu175  O192    1.918   .     S
Cu175  O194    1.955   .     S
Cu175  O190    1.951   .     S
Cu175  O196    1.940   .     S
H176   C319    1.086   .     S
H177   N289    1.029   1_455 S
H178   N239    1.029   .     S
H180   C271    1.084   1_455 S
H184   C223    1.083   .     S
N187   H228    1.029   .     S
N187   N239    1.284   .     S
N188   N289    1.284   1_455 S
N188   H280    1.029   1_455 S
O197   C249    1.412   .     S
C198   H200    1.113   .     S
C198   C201    1.520   .     S
C198   O299    1.412   1_455 S
C198   H301    1.116   1_455 S
H199   C249    1.116   .     S
C201   H202    1.111   .     S
C201   H204    1.110   .     S
C201   H356    1.111   .     S
C205   C215    1.427   .     S
C205   O241    1.284   .     A
C205   O240    1.291   .     A
C206   C207    1.419   .     A
C206   C667    1.426   .     S
C206   C683    1.418   .     S
C207   C211    1.412   .     A
C207   C214    1.422   .     A
C208   C212    1.402   .     A
C208   C665    1.426   1_554 S
C208   C668    1.418   1_554 S
C209   C210    1.392   .     A
C209   C667    1.418   .     S
C209   C679    1.402   .     S
C210   C211    1.386   .     A
C210   H230    1.084   .     S
C211   H236    1.080   .     S
C212   C221    1.400   .     A
C212   H232    1.077   .     S
C213   C220    1.400   .     A
C213   C221    1.407   .     A
C213   O248    1.383   .     S
C214   C216    1.475   .     S
C214   C222    1.402   .     A
C215   C370    1.327   .     S
C215   H390    1.088   .     S
C216   O243    1.295   .     A
C216   O242    1.304   .     A
C217   C218    1.427   .     S
C218   O245    1.291   .     A
C218   O244    1.285   .     A
C219   O246    1.295   .     A
C219   O247    1.302   .     A
C219   C221    1.470   .     S
C220   C668    1.402   1_554 S
C220   H282    1.084   .     S
C222   H233    1.083   .     S
C222   C223    1.388   .     A
C223   C683    1.392   .     S
C224   H234    1.077   .     S
C224   C665    1.418   1_554 S
C224   C682    1.392   1_554 S
Cu225  N239    2.018   .     S
Cu225  O244    1.951   .     S
Cu225  O246    1.918   .     S
Cu225  O240    1.955   .     S
Cu225  Cu226   2.686   .     S
Cu225  O242    1.940   .     S
Cu226  N238    2.018   .     S
Cu226  O243    1.918   .     S
Cu226  O245    1.955   .     S
Cu226  O241    1.951   .     S
Cu226  O247    1.940   .     S
H227   C370    1.086   .     S
H229   N290    1.029   .     S
H235   C274    1.083   .     S
N238   H279    1.029   .     S
N238   N290    1.284   .     S
O248   C300    1.412   .     S
C249   H251    1.113   .     S
C249   C252    1.520   .     S
H250   C300    1.116   .     S
C252   H253    1.111   .     S
C252   H255    1.110   .     S
C252   H407    1.111   .     S
C256   C266    1.427   .     S
C256   O292    1.284   .     A
C256   O291    1.291   .     A
C257   C258    1.419   .     A
C257   C718    1.426   .     S
C257   C734    1.418   .     S
C258   C262    1.412   .     A
C258   C265    1.422   .     A
C259   C263    1.402   .     A
C259   C716    1.426   1_554 S
C259   C719    1.418   1_554 S
C260   C261    1.392   .     A
C260   C718    1.418   .     S
C260   C730    1.402   .     S
C261   C262    1.386   .     A
C261   H281    1.084   .     S
C262   H287    1.080   .     S
C263   C272    1.400   .     A
C263   H283    1.077   .     S
C264   C271    1.400   .     A
C264   C272    1.407   .     A
C264   O299    1.383   .     S
C265   C267    1.475   .     S
C265   C273    1.402   .     A
C266   C421    1.327   .     S
C266   H441    1.088   .     S
C267   O294    1.295   .     A
C267   O293    1.304   .     A
C268   C269    1.427   .     S
C269   O296    1.291   .     A
C269   O295    1.285   .     A
C270   O297    1.295   .     A
C270   O298    1.302   .     A
C270   C272    1.470   .     S
C271   C719    1.402   1_554 S
C271   H180    1.084   1_655 S
C273   H284    1.083   .     S
C273   C274    1.388   .     A
C274   C734    1.392   .     S
C275   H285    1.077   .     S
C275   C716    1.418   1_554 S
C275   C733    1.392   1_554 S
Cu276  N290    2.018   .     S
Cu276  O295    1.951   .     S
Cu276  O297    1.918   .     S
Cu276  O291    1.955   .     S
Cu276  Cu277   2.686   .     S
Cu276  O293    1.940   .     S
Cu277  N289    2.018   .     S
Cu277  O294    1.918   .     S
Cu277  O296    1.955   .     S
Cu277  O292    1.951   .     S
Cu277  O298    1.940   .     S
H278   C421    1.086   .     S
H280   N188    1.029   1_655 S
H286   C172    1.083   1_655 S
N289   H177    1.029   1_655 S
N289   N188    1.284   1_655 S
O299   C198    1.412   1_655 S
C300   H302    1.113   .     S
C300   C303    1.520   .     S
H301   C198    1.116   1_655 S
C303   H304    1.111   .     S
C303   H306    1.110   .     S
C303   H458    1.111   .     S
C307   C317    1.427   .     S
C307   O343    1.284   .     A
C307   O342    1.291   .     A
C308   C309    1.419   .     A
C308   C769    1.426   .     S
C308   C785    1.418   .     S
C309   C313    1.412   .     A
C309   C316    1.422   .     A
C310   C314    1.402   .     A
C310   C767    1.426   1_554 S
C310   C770    1.418   1_554 S
C311   C312    1.392   .     A
C311   C769    1.418   .     S
C311   C781    1.402   .     S
C312   C313    1.386   .     A
C312   H332    1.084   .     S
C313   H338    1.080   .     S
C314   C323    1.400   .     A
C314   H334    1.077   .     S
C315   C322    1.400   .     A
C315   C323    1.407   .     A
C315   O350    1.383   .     S
C316   C318    1.475   .     S
C316   C324    1.402   .     A
C317   C13     1.327   1_565 S
C317   H33     1.088   1_565 S
C318   O345    1.295   .     A
C318   O344    1.304   .     A
C319   C320    1.427   .     S
C320   O347    1.291   .     A
C320   O346    1.285   .     A
C321   O348    1.295   .     A
C321   O349    1.302   .     A
C321   C323    1.470   .     S
C322   C770    1.402   1_554 S
C322   H384    1.084   .     S
C324   H335    1.083   .     S
C324   C325    1.388   .     A
C325   C785    1.392   .     S
C325   H439    1.083   1_455 S
C326   H336    1.077   .     S
C326   C767    1.418   1_554 S
C326   C784    1.392   1_554 S
Cu327  N341    2.018   .     S
Cu327  O346    1.951   .     S
Cu327  O348    1.918   .     S
Cu327  O342    1.955   .     S
Cu327  Cu328   2.686   .     S
Cu327  O344    1.940   .     S
Cu328  N340    2.018   .     S
Cu328  O345    1.918   .     S
Cu328  O347    1.955   .     S
Cu328  O343    1.951   .     S
Cu328  O349    1.940   .     S
H329   C13     1.086   1_565 S
H330   N442    1.029   1_455 S
H331   N392    1.029   .     S
H333   C424    1.084   1_455 S
H337   C376    1.083   .     S
N340   H381    1.029   .     S
N340   N392    1.284   .     S
N341   N442    1.284   1_455 S
N341   H433    1.029   1_455 S
O350   C402    1.412   .     S
C351   H353    1.113   .     S
C351   C354    1.520   .     S
C351   O452    1.412   1_455 S
C351   H454    1.116   1_455 S
H352   C402    1.116   .     S
C354   H355    1.111   .     S
C354   H357    1.110   .     S
C354   H50     1.111   1_565 S
C358   C368    1.427   .     S
C358   O394    1.284   .     A
C358   O393    1.291   .     A
C359   C360    1.419   .     A
C359   C820    1.426   .     S
C359   C836    1.418   .     S
C360   C364    1.412   .     A
C360   C367    1.422   .     A
C361   C365    1.402   .     A
C361   C818    1.426   1_554 S
C361   C821    1.418   1_554 S
C362   C363    1.392   .     A
C362   C820    1.418   .     S
C362   C832    1.402   .     S
C363   C364    1.386   .     A
C363   H383    1.084   .     S
C364   H389    1.080   .     S
C365   C374    1.400   .     A
C365   H385    1.077   .     S
C366   C373    1.400   .     A
C366   C374    1.407   .     A
C366   O401    1.383   .     S
C367   C369    1.475   .     S
C367   C375    1.402   .     A
C368   C64     1.327   1_565 S
C368   H84     1.088   1_565 S
C369   O396    1.295   .     A
C369   O395    1.304   .     A
C370   C371    1.427   .     S
C371   O398    1.291   .     A
C371   O397    1.285   .     A
C372   O399    1.295   .     A
C372   O400    1.302   .     A
C372   C374    1.470   .     S
C373   C821    1.402   1_554 S
C373   H435    1.084   .     S
C375   H386    1.083   .     S
C375   C376    1.388   .     A
C376   C836    1.392   .     S
C377   H387    1.077   .     S
C377   C818    1.418   1_554 S
C377   C835    1.392   1_554 S
Cu378  N392    2.018   .     S
Cu378  O397    1.951   .     S
Cu378  O399    1.918   .     S
Cu378  O393    1.955   .     S
Cu378  Cu379   2.686   .     S
Cu378  O395    1.940   .     S
Cu379  N391    2.018   .     S
Cu379  O396    1.918   .     S
Cu379  O398    1.955   .     S
Cu379  O394    1.951   .     S
Cu379  O400    1.940   .     S
H380   C64     1.086   1_565 S
H382   N443    1.029   .     S
H388   C427    1.083   .     S
N391   H432    1.029   .     S
N391   N443    1.284   .     S
O401   C453    1.412   .     S
C402   H404    1.113   .     S
C402   C405    1.520   .     S
H403   C453    1.116   .     S
C405   H406    1.111   .     S
C405   H408    1.110   .     S
C405   H101    1.111   1_565 S
C409   C419    1.427   .     S
C409   O445    1.284   .     A
C409   O444    1.291   .     A
C410   C411    1.419   .     A
C410   C871    1.426   .     S
C410   C887    1.418   .     S
C411   C415    1.412   .     A
C411   C418    1.422   .     A
C412   C416    1.402   .     A
C412   C869    1.426   1_554 S
C412   C872    1.418   1_554 S
C413   C414    1.392   .     A
C413   C871    1.418   .     S
C413   C883    1.402   .     S
C414   C415    1.386   .     A
C414   H434    1.084   .     S
C415   H440    1.080   .     S
C416   C425    1.400   .     A
C416   H436    1.077   .     S
C417   C424    1.400   .     A
C417   C425    1.407   .     A
C417   O452    1.383   .     S
C418   C420    1.475   .     S
C418   C426    1.402   .     A
C419   C115    1.327   1_565 S
C419   H135    1.088   1_565 S
C420   O447    1.295   .     A
C420   O446    1.304   .     A
C421   C422    1.427   .     S
C422   O449    1.291   .     A
C422   O448    1.285   .     A
C423   O450    1.295   .     A
C423   O451    1.302   .     A
C423   C425    1.470   .     S
C424   C872    1.402   1_554 S
C424   H333    1.084   1_655 S
C426   H437    1.083   .     S
C426   C427    1.388   .     A
C427   C887    1.392   .     S
C428   H438    1.077   .     S
C428   C869    1.418   1_554 S
C428   C886    1.392   1_554 S
Cu429  N443    2.018   .     S
Cu429  O448    1.951   .     S
Cu429  O450    1.918   .     S
Cu429  O444    1.955   .     S
Cu429  Cu430   2.686   .     S
Cu429  O446    1.940   .     S
Cu430  N442    2.018   .     S
Cu430  O447    1.918   .     S
Cu430  O449    1.955   .     S
Cu430  O445    1.951   .     S
Cu430  O451    1.940   .     S
H431   C115    1.086   1_565 S
H433   N341    1.029   1_655 S
H439   C325    1.083   1_655 S
N442   H330    1.029   1_655 S
N442   N341    1.284   1_655 S
O452   C351    1.412   1_655 S
C453   H455    1.113   .     S
C453   C456    1.520   .     S
H454   C351    1.116   1_655 S
C456   H457    1.111   .     S
C456   H459    1.110   .     S
C456   H152    1.111   1_565 S
C460   C470    1.427   .     S
C460   O496    1.284   .     A
C460   O495    1.291   .     A
C461   C462    1.419   .     A
C461   C4      1.426   1_556 S
C461   C20     1.418   1_556 S
C462   C466    1.412   .     A
C462   C469    1.422   .     A
C463   C467    1.402   .     A
C464   C465    1.392   .     A
C464   C4      1.418   1_556 S
C464   C16     1.402   1_556 S
C465   C466    1.386   .     A
C465   H485    1.084   .     S
C466   H491    1.080   .     S
C467   C476    1.400   .     A
C467   H487    1.077   .     S
C468   C475    1.400   .     A
C468   C476    1.407   .     A
C468   O503    1.383   .     S
C469   C471    1.475   .     S
C469   C477    1.402   .     A
C470   C625    1.327   .     S
C470   H645    1.088   .     S
C471   O498    1.295   .     A
C471   O497    1.304   .     A
C472   C473    1.427   .     S
C472   C776    1.327   1_545 S
C472   H788    1.086   1_545 S
C473   O500    1.291   .     A
C473   O499    1.285   .     A
C474   O501    1.295   .     A
C474   O502    1.302   .     A
C474   C476    1.470   .     S
C475   H537    1.084   .     S
C477   H488    1.083   .     S
C477   C478    1.388   .     A
C478   C20     1.392   1_556 S
C478   H592    1.083   1_455 S
C479   H489    1.077   .     S
Cu480  N494    2.018   .     S
Cu480  O499    1.951   .     S
Cu480  O501    1.918   .     S
Cu480  O495    1.955   .     S
Cu480  Cu481   2.686   .     S
Cu480  O497    1.940   .     S
Cu481  N493    2.018   .     S
Cu481  O498    1.918   .     S
Cu481  O500    1.955   .     S
Cu481  O496    1.951   .     S
Cu481  O502    1.940   .     S
H482   C625    1.086   .     S
H483   N595    1.029   1_455 S
H484   N545    1.029   .     S
H486   C577    1.084   1_455 S
H490   C529    1.083   .     S
H492   C776    1.088   1_545 S
N493   H534    1.029   .     S
N493   N545    1.284   .     S
N494   N595    1.284   1_455 S
N494   H586    1.029   1_455 S
O503   C555    1.412   .     S
C504   H506    1.113   .     S
C504   C507    1.520   .     S
C504   O605    1.412   1_455 S
C504   H607    1.116   1_455 S
H505   C555    1.116   .     S
C507   H508    1.111   .     S
C507   H510    1.110   .     S
C507   H662    1.111   .     S
H509   C813    1.111   1_545 S
C511   C521    1.427   .     S
C511   O547    1.284   .     A
C511   O546    1.291   .     A
C512   C513    1.419   .     A
C512   C55     1.426   1_556 S
C512   C71     1.418   1_556 S
C513   C517    1.412   .     A
C513   C520    1.422   .     A
C514   C518    1.402   .     A
C515   C516    1.392   .     A
C515   C55     1.418   1_556 S
C515   C67     1.402   1_556 S
C516   C517    1.386   .     A
C516   H536    1.084   .     S
C517   H542    1.080   .     S
C518   C527    1.400   .     A
C518   H538    1.077   .     S
C519   C526    1.400   .     A
C519   C527    1.407   .     A
C519   O554    1.383   .     S
C520   C522    1.475   .     S
C520   C528    1.402   .     A
C521   C676    1.327   .     S
C521   H696    1.088   .     S
C522   O549    1.295   .     A
C522   O548    1.304   .     A
C523   C524    1.427   .     S
C523   C827    1.327   1_545 S
C523   H839    1.086   1_545 S
C524   O551    1.291   .     A
C524   O550    1.285   .     A
C525   O552    1.295   .     A
C525   O553    1.302   .     A
C525   C527    1.470   .     S
C526   H588    1.084   .     S
C528   H539    1.083   .     S
C528   C529    1.388   .     A
C529   C71     1.392   1_556 S
C530   H540    1.077   .     S
Cu531  N545    2.018   .     S
Cu531  O550    1.951   .     S
Cu531  O552    1.918   .     S
Cu531  O546    1.955   .     S
Cu531  Cu532   2.686   .     S
Cu531  O548    1.940   .     S
Cu532  N544    2.018   .     S
Cu532  O549    1.918   .     S
Cu532  O551    1.955   .     S
Cu532  O547    1.951   .     S
Cu532  O553    1.940   .     S
H533   C676    1.086   .     S
H535   N596    1.029   .     S
H541   C580    1.083   .     S
H543   C827    1.088   1_545 S
N544   H585    1.029   .     S
N544   N596    1.284   .     S
O554   C606    1.412   .     S
C555   H557    1.113   .     S
C555   C558    1.520   .     S
H556   C606    1.116   .     S
C558   H559    1.111   .     S
C558   H561    1.110   .     S
C558   H713    1.111   .     S
H560   C864    1.111   1_545 S
C562   C572    1.427   .     S
C562   O598    1.284   .     A
C562   O597    1.291   .     A
C563   C564    1.419   .     A
C563   C106    1.426   1_556 S
C563   C122    1.418   1_556 S
C564   C568    1.412   .     A
C564   C571    1.422   .     A
C565   C569    1.402   .     A
C566   C567    1.392   .     A
C566   C106    1.418   1_556 S
C566   C118    1.402   1_556 S
C567   C568    1.386   .     A
C567   H587    1.084   .     S
C568   H593    1.080   .     S
C569   C578    1.400   .     A
C569   H589    1.077   .     S
C570   C577    1.400   .     A
C570   C578    1.407   .     A
C570   O605    1.383   .     S
C571   C573    1.475   .     S
C571   C579    1.402   .     A
C572   C727    1.327   .     S
C572   H747    1.088   .     S
C573   O600    1.295   .     A
C573   O599    1.304   .     A
C574   C575    1.427   .     S
C574   C878    1.327   1_545 S
C574   H890    1.086   1_545 S
C575   O602    1.291   .     A
C575   O601    1.285   .     A
C576   O603    1.295   .     A
C576   O604    1.302   .     A
C576   C578    1.470   .     S
C577   H486    1.084   1_655 S
C579   H590    1.083   .     S
C579   C580    1.388   .     A
C580   C122    1.392   1_556 S
C581   H591    1.077   .     S
Cu582  N596    2.018   .     S
Cu582  O601    1.951   .     S
Cu582  O603    1.918   .     S
Cu582  O597    1.955   .     S
Cu582  Cu583   2.686   .     S
Cu582  O599    1.940   .     S
Cu583  N595    2.018   .     S
Cu583  O600    1.918   .     S
Cu583  O602    1.955   .     S
Cu583  O598    1.951   .     S
Cu583  O604    1.940   .     S
H584   C727    1.086   .     S
H586   N494    1.029   1_655 S
H592   C478    1.083   1_655 S
H594   C878    1.088   1_545 S
N595   H483    1.029   1_655 S
N595   N494    1.284   1_655 S
O605   C504    1.412   1_655 S
C606   H608    1.113   .     S
C606   C609    1.520   .     S
H607   C504    1.116   1_655 S
C609   H610    1.111   .     S
C609   H612    1.110   .     S
C609   H764    1.111   .     S
H611   C915    1.111   1_545 S
C613   C623    1.427   .     S
C613   O649    1.284   .     A
C613   O648    1.291   .     A
C614   C615    1.419   .     A
C614   C157    1.426   1_556 S
C614   C173    1.418   1_556 S
C615   C619    1.412   .     A
C615   C622    1.422   .     A
C616   C620    1.402   .     A
C617   C618    1.392   .     A
C617   C157    1.418   1_556 S
C617   C169    1.402   1_556 S
C618   C619    1.386   .     A
C618   H638    1.084   .     S
C619   H644    1.080   .     S
C620   C629    1.400   .     A
C620   H640    1.077   .     S
C621   C628    1.400   .     A
C621   C629    1.407   .     A
C621   O656    1.383   .     S
C622   C624    1.475   .     S
C622   C630    1.402   .     A
C623   C778    1.327   .     S
C623   H798    1.088   .     S
C624   O651    1.295   .     A
C624   O650    1.304   .     A
C625   C626    1.427   .     S
C626   O653    1.291   .     A
C626   O652    1.285   .     A
C627   O654    1.295   .     A
C627   O655    1.302   .     A
C627   C629    1.470   .     S
C628   H690    1.084   .     S
C630   H641    1.083   .     S
C630   C631    1.388   .     A
C631   C173    1.392   1_556 S
C631   H745    1.083   1_455 S
C632   H642    1.077   .     S
Cu633  N647    2.018   .     S
Cu633  O652    1.951   .     S
Cu633  O654    1.918   .     S
Cu633  O648    1.955   .     S
Cu633  Cu634   2.686   .     S
Cu633  O650    1.940   .     S
Cu634  N646    2.018   .     S
Cu634  O651    1.918   .     S
Cu634  O653    1.955   .     S
Cu634  O649    1.951   .     S
Cu634  O655    1.940   .     S
H635   C778    1.086   .     S
H636   N748    1.029   1_455 S
H637   N698    1.029   .     S
H639   C730    1.084   1_455 S
H643   C682    1.083   .     S
N646   H687    1.029   .     S
N646   N698    1.284   .     S
N647   N748    1.284   1_455 S
N647   H739    1.029   1_455 S
O656   C708    1.412   .     S
C657   H659    1.113   .     S
C657   C660    1.520   .     S
C657   O758    1.412   1_455 S
C657   H760    1.116   1_455 S
H658   C708    1.116   .     S
C660   H661    1.111   .     S
C660   H663    1.110   .     S
C660   H815    1.111   .     S
C664   C674    1.427   .     S
C664   O700    1.284   .     A
C664   O699    1.291   .     A
C665   C666    1.419   .     A
C665   C208    1.426   1_556 S
C665   C224    1.418   1_556 S
C666   C670    1.412   .     A
C666   C673    1.422   .     A
C667   C671    1.402   .     A
C668   C669    1.392   .     A
C668   C208    1.418   1_556 S
C668   C220    1.402   1_556 S
C669   C670    1.386   .     A
C669   H689    1.084   .     S
C670   H695    1.080   .     S
C671   C680    1.400   .     A
C671   H691    1.077   .     S
C672   C679    1.400   .     A
C672   C680    1.407   .     A
C672   O707    1.383   .     S
C673   C675    1.475   .     S
C673   C681    1.402   .     A
C674   C829    1.327   .     S
C674   H849    1.088   .     S
C675   O702    1.295   .     A
C675   O701    1.304   .     A
C676   C677    1.427   .     S
C677   O704    1.291   .     A
C677   O703    1.285   .     A
C678   O705    1.295   .     A
C678   O706    1.302   .     A
C678   C680    1.470   .     S
C679   H741    1.084   .     S
C681   H692    1.083   .     S
C681   C682    1.388   .     A
C682   C224    1.392   1_556 S
C683   H693    1.077   .     S
Cu684  N698    2.018   .     S
Cu684  O703    1.951   .     S
Cu684  O705    1.918   .     S
Cu684  O699    1.955   .     S
Cu684  Cu685   2.686   .     S
Cu684  O701    1.940   .     S
Cu685  N697    2.018   .     S
Cu685  O702    1.918   .     S
Cu685  O704    1.955   .     S
Cu685  O700    1.951   .     S
Cu685  O706    1.940   .     S
H686   C829    1.086   .     S
H688   N749    1.029   .     S
H694   C733    1.083   .     S
N697   H738    1.029   .     S
N697   N749    1.284   .     S
O707   C759    1.412   .     S
C708   H710    1.113   .     S
C708   C711    1.520   .     S
H709   C759    1.116   .     S
C711   H712    1.111   .     S
C711   H714    1.110   .     S
C711   H866    1.111   .     S
C715   C725    1.427   .     S
C715   O751    1.284   .     A
C715   O750    1.291   .     A
C716   C717    1.419   .     A
C716   C259    1.426   1_556 S
C716   C275    1.418   1_556 S
C717   C721    1.412   .     A
C717   C724    1.422   .     A
C718   C722    1.402   .     A
C719   C720    1.392   .     A
C719   C259    1.418   1_556 S
C719   C271    1.402   1_556 S
C720   C721    1.386   .     A
C720   H740    1.084   .     S
C721   H746    1.080   .     S
C722   C731    1.400   .     A
C722   H742    1.077   .     S
C723   C730    1.400   .     A
C723   C731    1.407   .     A
C723   O758    1.383   .     S
C724   C726    1.475   .     S
C724   C732    1.402   .     A
C725   C880    1.327   .     S
C725   H900    1.088   .     S
C726   O753    1.295   .     A
C726   O752    1.304   .     A
C727   C728    1.427   .     S
C728   O755    1.291   .     A
C728   O754    1.285   .     A
C729   O756    1.295   .     A
C729   O757    1.302   .     A
C729   C731    1.470   .     S
C730   H639    1.084   1_655 S
C732   H743    1.083   .     S
C732   C733    1.388   .     A
C733   C275    1.392   1_556 S
C734   H744    1.077   .     S
Cu735  N749    2.018   .     S
Cu735  O754    1.951   .     S
Cu735  O756    1.918   .     S
Cu735  O750    1.955   .     S
Cu735  Cu736   2.686   .     S
Cu735  O752    1.940   .     S
Cu736  N748    2.018   .     S
Cu736  O753    1.918   .     S
Cu736  O755    1.955   .     S
Cu736  O751    1.951   .     S
Cu736  O757    1.940   .     S
H737   C880    1.086   .     S
H739   N647    1.029   1_655 S
H745   C631    1.083   1_655 S
N748   H636    1.029   1_655 S
N748   N647    1.284   1_655 S
O758   C657    1.412   1_655 S
C759   H761    1.113   .     S
C759   C762    1.520   .     S
H760   C657    1.116   1_655 S
C762   H763    1.111   .     S
C762   H765    1.110   .     S
C762   H917    1.111   .     S
C766   C776    1.427   .     S
C766   O802    1.284   .     A
C766   O801    1.291   .     A
C767   C768    1.419   .     A
C767   C310    1.426   1_556 S
C767   C326    1.418   1_556 S
C768   C772    1.412   .     A
C768   C775    1.422   .     A
C769   C773    1.402   .     A
C770   C771    1.392   .     A
C770   C310    1.418   1_556 S
C770   C322    1.402   1_556 S
C771   C772    1.386   .     A
C771   H791    1.084   .     S
C772   H797    1.080   .     S
C773   C782    1.400   .     A
C773   H793    1.077   .     S
C774   C781    1.400   .     A
C774   C782    1.407   .     A
C774   O809    1.383   .     S
C775   C777    1.475   .     S
C775   C783    1.402   .     A
C776   C472    1.327   1_565 S
C776   H492    1.088   1_565 S
C777   O804    1.295   .     A
C777   O803    1.304   .     A
C778   C779    1.427   .     S
C779   O806    1.291   .     A
C779   O805    1.285   .     A
C780   O807    1.295   .     A
C780   O808    1.302   .     A
C780   C782    1.470   .     S
C781   H843    1.084   .     S
C783   H794    1.083   .     S
C783   C784    1.388   .     A
C784   C326    1.392   1_556 S
C784   H898    1.083   1_455 S
C785   H795    1.077   .     S
Cu786  N800    2.018   .     S
Cu786  O805    1.951   .     S
Cu786  O807    1.918   .     S
Cu786  O801    1.955   .     S
Cu786  Cu787   2.686   .     S
Cu786  O803    1.940   .     S
Cu787  N799    2.018   .     S
Cu787  O804    1.918   .     S
Cu787  O806    1.955   .     S
Cu787  O802    1.951   .     S
Cu787  O808    1.940   .     S
H788   C472    1.086   1_565 S
H789   N901    1.029   1_455 S
H790   N851    1.029   .     S
H792   C883    1.084   1_455 S
H796   C835    1.083   .     S
N799   H840    1.029   .     S
N799   N851    1.284   .     S
N800   N901    1.284   1_455 S
N800   H892    1.029   1_455 S
O809   C861    1.412   .     S
C810   H812    1.113   .     S
C810   C813    1.520   .     S
C810   O911    1.412   1_455 S
C810   H913    1.116   1_455 S
H811   C861    1.116   .     S
C813   H814    1.111   .     S
C813   H816    1.110   .     S
C813   H509    1.111   1_565 S
C817   C827    1.427   .     S
C817   O853    1.284   .     A
C817   O852    1.291   .     A
C818   C819    1.419   .     A
C818   C361    1.426   1_556 S
C818   C377    1.418   1_556 S
C819   C823    1.412   .     A
C819   C826    1.422   .     A
C820   C824    1.402   .     A
C821   C822    1.392   .     A
C821   C361    1.418   1_556 S
C821   C373    1.402   1_556 S
C822   C823    1.386   .     A
C822   H842    1.084   .     S
C823   H848    1.080   .     S
C824   C833    1.400   .     A
C824   H844    1.077   .     S
C825   C832    1.400   .     A
C825   C833    1.407   .     A
C825   O860    1.383   .     S
C826   C828    1.475   .     S
C826   C834    1.402   .     A
C827   C523    1.327   1_565 S
C827   H543    1.088   1_565 S
C828   O855    1.295   .     A
C828   O854    1.304   .     A
C829   C830    1.427   .     S
C830   O857    1.291   .     A
C830   O856    1.285   .     A
C831   O858    1.295   .     A
C831   O859    1.302   .     A
C831   C833    1.470   .     S
C832   H894    1.084   .     S
C834   H845    1.083   .     S
C834   C835    1.388   .     A
C835   C377    1.392   1_556 S
C836   H846    1.077   .     S
Cu837  N851    2.018   .     S
Cu837  O856    1.951   .     S
Cu837  O858    1.918   .     S
Cu837  O852    1.955   .     S
Cu837  Cu838   2.686   .     S
Cu837  O854    1.940   .     S
Cu838  N850    2.018   .     S
Cu838  O855    1.918   .     S
Cu838  O857    1.955   .     S
Cu838  O853    1.951   .     S
Cu838  O859    1.940   .     S
H839   C523    1.086   1_565 S
H841   N902    1.029   .     S
H847   C886    1.083   .     S
N850   H891    1.029   .     S
N850   N902    1.284   .     S
O860   C912    1.412   .     S
C861   H863    1.113   .     S
C861   C864    1.520   .     S
H862   C912    1.116   .     S
C864   H865    1.111   .     S
C864   H867    1.110   .     S
C864   H560    1.111   1_565 S
C868   C878    1.427   .     S
C868   O904    1.284   .     A
C868   O903    1.291   .     A
C869   C870    1.419   .     A
C869   C412    1.426   1_556 S
C869   C428    1.418   1_556 S
C870   C874    1.412   .     A
C870   C877    1.422   .     A
C871   C875    1.402   .     A
C872   C873    1.392   .     A
C872   C412    1.418   1_556 S
C872   C424    1.402   1_556 S
C873   C874    1.386   .     A
C873   H893    1.084   .     S
C874   H899    1.080   .     S
C875   C884    1.400   .     A
C875   H895    1.077   .     S
C876   C883    1.400   .     A
C876   C884    1.407   .     A
C876   O911    1.383   .     S
C877   C879    1.475   .     S
C877   C885    1.402   .     A
C878   C574    1.327   1_565 S
C878   H594    1.088   1_565 S
C879   O906    1.295   .     A
C879   O905    1.304   .     A
C880   C881    1.427   .     S
C881   O908    1.291   .     A
C881   O907    1.285   .     A
C882   O909    1.295   .     A
C882   O910    1.302   .     A
C882   C884    1.470   .     S
C883   H792    1.084   1_655 S
C885   H896    1.083   .     S
C885   C886    1.388   .     A
C886   C428    1.392   1_556 S
C887   H897    1.077   .     S
Cu888  N902    2.018   .     S
Cu888  O907    1.951   .     S
Cu888  O909    1.918   .     S
Cu888  O903    1.955   .     S
Cu888  Cu889   2.686   .     S
Cu888  O905    1.940   .     S
Cu889  N901    2.018   .     S
Cu889  O906    1.918   .     S
Cu889  O908    1.955   .     S
Cu889  O904    1.951   .     S
Cu889  O910    1.940   .     S
H890   C574    1.086   1_565 S
H892   N800    1.029   1_655 S
H898   C784    1.083   1_655 S
N901   H789    1.029   1_655 S
N901   N800    1.284   1_655 S
O911   C810    1.412   1_655 S
C912   H914    1.113   .     S
C912   C915    1.520   .     S
H913   C810    1.116   1_655 S
C915   H916    1.111   .     S
C915   H918    1.110   .     S
C915   H611    1.111   1_565 S
