data_str_m2_o1_o16_pcu_sym.214
_audit_creation_date              2020-01-03
_audit_creation_method            'Materials Studio'
_symmetry_space_group_name_H-M    'P1'
_symmetry_Int_Tables_number       1
_symmetry_cell_setting            triclinic
loop_
_symmetry_equiv_pos_as_xyz
  x,y,z
_cell_length_a                    28.6097
_cell_length_b                    32.4588
_cell_length_c                    26.9318
_cell_angle_alpha                 90.7441
_cell_angle_beta                  72.3096
_cell_angle_gamma                 89.6850
loop_
_atom_site_label
_atom_site_type_symbol
_atom_site_fract_x
_atom_site_fract_y
_atom_site_fract_z
_atom_site_U_iso_or_equiv
_atom_site_adp_type
_atom_site_occupancy
C1     C     0.16676   0.24593   0.24930   0.00000  Uiso   1.00
C2     C     0.14791   0.16044   0.48743   0.00000  Uiso   1.00
C3     C     0.15520   0.17712   0.43712   0.00000  Uiso   1.00
C4     C     0.18238   0.17034   0.01444   0.00000  Uiso   1.00
C5     C     0.22600   0.19187   0.48861   0.00000  Uiso   1.00
C6     C     0.23038   0.21007   0.44067   0.00000  Uiso   1.00
C7     C     0.19355   0.20532   0.41748   0.00000  Uiso   1.00
C8     C     0.17335   0.16217   0.06743   0.00000  Uiso   1.00
C9     C     0.25393   0.18625   0.06497   0.00000  Uiso   1.00
C10    C     0.12429   0.16483   0.40733   0.00000  Uiso   1.00
C11    C     0.19333   0.31168   0.27750   0.00000  Uiso   1.00
C12    C     0.14028   0.16774   0.35013   0.00000  Uiso   1.00
C13    C     0.19320   0.02108   0.27913   0.00000  Uiso   1.00
C14    C     0.16668   0.04294   0.25160   0.00000  Uiso   1.00
C15    C     0.14018   0.02197   0.22342   0.00000  Uiso   1.00
C16    C     0.14011   0.31264   0.22182   0.00000  Uiso   1.00
C17    C     0.16665   0.29060   0.24928   0.00000  Uiso   1.00
C18    C     0.29920   0.19262   0.28231   0.00000  Uiso   1.00
C19    C     0.01536   0.19252   0.28244   0.00000  Uiso   1.00
C20    C     0.03450   0.14089   0.21742   0.00000  Uiso   1.00
C21    C     0.31843   0.14085   0.21723   0.00000  Uiso   1.00
C22    C     0.16652   0.08748   0.25103   0.00000  Uiso   1.00
C23    C     0.19298   0.16709   0.14994   0.00000  Uiso   1.00
C24    C     0.26259   0.19750   0.01322   0.00000  Uiso   1.00
C25    C     0.20808   0.17061   0.09303   0.00000  Uiso   1.00
C26    C     0.08194   0.14227   0.43072   0.00000  Uiso   1.00
C27    C     0.07359   0.12703   0.48041   0.00000  Uiso   1.00
C28    C     0.10730   0.13370   0.00751   0.00000  Uiso   1.00
Cu29   Cu    0.11978   0.16666   0.25000   0.00000  Uiso   1.00
Cu30   Cu    0.21355   0.16667   0.25000   0.00000  Uiso   1.00
H31    H     0.12031   0.03886   0.20164   0.00000  Uiso   1.00
H32    H     0.27327   0.21366   0.30793   0.00000  Uiso   1.00
H33    H     0.02645   0.21328   0.30845   0.00000  Uiso   1.00
H34    H     0.13774   0.15244   0.09082   0.00000  Uiso   1.00
H35    H     0.05736   0.13323   0.40892   0.00000  Uiso   1.00
H36    H     0.04248   0.10721   0.49654   0.00000  Uiso   1.00
N37    N     0.04931   0.16666   0.24998   0.00000  Uiso   1.00
N38    N     0.28402   0.16669   0.25000   0.00000  Uiso   1.00
O39    O     0.12708   0.22678   0.25000   0.00000  Uiso   1.00
O40    O     0.20627   0.22679   0.25000   0.00000  Uiso   1.00
O41    O     0.10775   0.16665   0.32549   0.00000  Uiso   1.00
O42    O     0.18694   0.16666   0.32549   0.00000  Uiso   1.00
O43    O     0.12706   0.10654   0.25000   0.00000  Uiso   1.00
O44    O     0.20625   0.10655   0.25000   0.00000  Uiso   1.00
O45    O     0.14640   0.16667   0.17451   0.00000  Uiso   1.00
O46    O     0.22559   0.16668   0.17451   0.00000  Uiso   1.00
F47    F     0.28876   0.19401   0.08857   0.00000  Uiso   1.00
Cl48   Cl    0.22441   0.04582   0.31844   0.00000  Uiso   1.00
Cl49   Cl    0.10868   0.28849   0.18242   0.00000  Uiso   1.00
F50    F     0.06755   0.11498   0.18485   0.00000  Uiso   1.00
Cl51   Cl    0.30292   0.10702   0.17339   0.00000  Uiso   1.00
F52    F     0.26844   0.23523   0.41784   0.00000  Uiso   1.00
F53    F     0.30601   0.21539   0.48809   0.00000  Uiso   1.00
F54    F     0.10127   0.11076   0.05066   0.00000  Uiso   1.00
F55    F     0.19409   0.23027   0.37731   0.00000  Uiso   1.00
F56    F     0.21864   0.29077   0.30457   0.00000  Uiso   1.00
C57    C     0.50009   0.24593   0.24930   0.00000  Uiso   1.00
C58    C     0.48124   0.16044   0.48743   0.00000  Uiso   1.00
C59    C     0.48853   0.17712   0.43712   0.00000  Uiso   1.00
C60    C     0.51571   0.17034   0.01444   0.00000  Uiso   1.00
C61    C     0.55933   0.19187   0.48861   0.00000  Uiso   1.00
C62    C     0.56371   0.21007   0.44067   0.00000  Uiso   1.00
C63    C     0.52688   0.20532   0.41748   0.00000  Uiso   1.00
C64    C     0.50668   0.16217   0.06743   0.00000  Uiso   1.00
C65    C     0.58726   0.18625   0.06497   0.00000  Uiso   1.00
C66    C     0.45762   0.16483   0.40733   0.00000  Uiso   1.00
C67    C     0.52666   0.31168   0.27750   0.00000  Uiso   1.00
C68    C     0.47361   0.16774   0.35013   0.00000  Uiso   1.00
C69    C     0.52653   0.02108   0.27913   0.00000  Uiso   1.00
C70    C     0.50001   0.04294   0.25160   0.00000  Uiso   1.00
C71    C     0.47352   0.02197   0.22342   0.00000  Uiso   1.00
C72    C     0.47345   0.31264   0.22182   0.00000  Uiso   1.00
C73    C     0.49998   0.29060   0.24928   0.00000  Uiso   1.00
C74    C     0.63253   0.19262   0.28231   0.00000  Uiso   1.00
C75    C     0.34869   0.19252   0.28244   0.00000  Uiso   1.00
C76    C     0.36784   0.14089   0.21742   0.00000  Uiso   1.00
C77    C     0.65176   0.14085   0.21723   0.00000  Uiso   1.00
C78    C     0.49985   0.08748   0.25103   0.00000  Uiso   1.00
C79    C     0.52631   0.16709   0.14994   0.00000  Uiso   1.00
C80    C     0.59592   0.19750   0.01322   0.00000  Uiso   1.00
C81    C     0.54141   0.17061   0.09303   0.00000  Uiso   1.00
C82    C     0.41528   0.14227   0.43072   0.00000  Uiso   1.00
C83    C     0.40692   0.12703   0.48041   0.00000  Uiso   1.00
C84    C     0.44063   0.13370   0.00751   0.00000  Uiso   1.00
Cu85   Cu    0.45311   0.16666   0.25000   0.00000  Uiso   1.00
Cu86   Cu    0.54689   0.16667   0.25000   0.00000  Uiso   1.00
H87    H     0.45364   0.03886   0.20164   0.00000  Uiso   1.00
H88    H     0.60660   0.21366   0.30793   0.00000  Uiso   1.00
H89    H     0.35978   0.21328   0.30845   0.00000  Uiso   1.00
H90    H     0.47107   0.15244   0.09082   0.00000  Uiso   1.00
H91    H     0.39069   0.13323   0.40892   0.00000  Uiso   1.00
H92    H     0.37581   0.10721   0.49654   0.00000  Uiso   1.00
N93    N     0.38265   0.16666   0.24998   0.00000  Uiso   1.00
N94    N     0.61735   0.16669   0.25000   0.00000  Uiso   1.00
O95    O     0.46042   0.22678   0.25000   0.00000  Uiso   1.00
O96    O     0.53961   0.22679   0.25000   0.00000  Uiso   1.00
O97    O     0.44108   0.16665   0.32549   0.00000  Uiso   1.00
O98    O     0.52027   0.16666   0.32549   0.00000  Uiso   1.00
O99    O     0.46039   0.10654   0.25000   0.00000  Uiso   1.00
O100   O     0.53958   0.10655   0.25000   0.00000  Uiso   1.00
O101   O     0.47973   0.16667   0.17451   0.00000  Uiso   1.00
O102   O     0.55892   0.16668   0.17451   0.00000  Uiso   1.00
F103   F     0.62209   0.19401   0.08857   0.00000  Uiso   1.00
Cl104  Cl    0.55774   0.04582   0.31844   0.00000  Uiso   1.00
Cl105  Cl    0.44201   0.28849   0.18242   0.00000  Uiso   1.00
F106   F     0.40089   0.11498   0.18485   0.00000  Uiso   1.00
Cl107  Cl    0.63625   0.10702   0.17339   0.00000  Uiso   1.00
F108   F     0.60177   0.23523   0.41784   0.00000  Uiso   1.00
F109   F     0.63934   0.21539   0.48809   0.00000  Uiso   1.00
F110   F     0.43461   0.11076   0.05066   0.00000  Uiso   1.00
F111   F     0.52743   0.23027   0.37731   0.00000  Uiso   1.00
F112   F     0.55198   0.29077   0.30457   0.00000  Uiso   1.00
C113   C     0.83342   0.24593   0.24930   0.00000  Uiso   1.00
C114   C     0.81457   0.16044   0.48743   0.00000  Uiso   1.00
C115   C     0.82187   0.17712   0.43712   0.00000  Uiso   1.00
C116   C     0.84905   0.17034   0.01444   0.00000  Uiso   1.00
C117   C     0.89267   0.19187   0.48861   0.00000  Uiso   1.00
C118   C     0.89704   0.21007   0.44067   0.00000  Uiso   1.00
C119   C     0.86021   0.20532   0.41748   0.00000  Uiso   1.00
C120   C     0.84001   0.16217   0.06743   0.00000  Uiso   1.00
C121   C     0.92059   0.18625   0.06497   0.00000  Uiso   1.00
C122   C     0.79096   0.16483   0.40733   0.00000  Uiso   1.00
C123   C     0.85999   0.31168   0.27750   0.00000  Uiso   1.00
C124   C     0.80695   0.16774   0.35013   0.00000  Uiso   1.00
C125   C     0.85986   0.02108   0.27913   0.00000  Uiso   1.00
C126   C     0.83334   0.04294   0.25160   0.00000  Uiso   1.00
C127   C     0.80685   0.02197   0.22342   0.00000  Uiso   1.00
C128   C     0.80678   0.31264   0.22182   0.00000  Uiso   1.00
C129   C     0.83331   0.29060   0.24928   0.00000  Uiso   1.00
C130   C     0.96587   0.19262   0.28231   0.00000  Uiso   1.00
C131   C     0.68203   0.19252   0.28244   0.00000  Uiso   1.00
C132   C     0.70117   0.14089   0.21742   0.00000  Uiso   1.00
C133   C     0.98509   0.14085   0.21723   0.00000  Uiso   1.00
C134   C     0.83319   0.08748   0.25103   0.00000  Uiso   1.00
C135   C     0.85965   0.16709   0.14994   0.00000  Uiso   1.00
C136   C     0.92925   0.19750   0.01322   0.00000  Uiso   1.00
C137   C     0.87475   0.17061   0.09303   0.00000  Uiso   1.00
C138   C     0.74861   0.14227   0.43072   0.00000  Uiso   1.00
C139   C     0.74026   0.12703   0.48041   0.00000  Uiso   1.00
C140   C     0.77397   0.13370   0.00751   0.00000  Uiso   1.00
Cu141  Cu    0.78645   0.16666   0.25000   0.00000  Uiso   1.00
Cu142  Cu    0.88022   0.16667   0.25000   0.00000  Uiso   1.00
H143   H     0.78697   0.03886   0.20164   0.00000  Uiso   1.00
H144   H     0.93993   0.21366   0.30793   0.00000  Uiso   1.00
H145   H     0.69311   0.21328   0.30845   0.00000  Uiso   1.00
H146   H     0.80440   0.15244   0.09082   0.00000  Uiso   1.00
H147   H     0.72403   0.13323   0.40892   0.00000  Uiso   1.00
H148   H     0.70915   0.10721   0.49654   0.00000  Uiso   1.00
N149   N     0.71598   0.16666   0.24998   0.00000  Uiso   1.00
N150   N     0.95069   0.16669   0.25000   0.00000  Uiso   1.00
O151   O     0.79375   0.22678   0.25000   0.00000  Uiso   1.00
O152   O     0.87294   0.22679   0.25000   0.00000  Uiso   1.00
O153   O     0.77441   0.16665   0.32549   0.00000  Uiso   1.00
O154   O     0.85360   0.16666   0.32549   0.00000  Uiso   1.00
O155   O     0.79373   0.10654   0.25000   0.00000  Uiso   1.00
O156   O     0.87292   0.10655   0.25000   0.00000  Uiso   1.00
O157   O     0.81306   0.16667   0.17451   0.00000  Uiso   1.00
O158   O     0.89225   0.16668   0.17451   0.00000  Uiso   1.00
F159   F     0.95543   0.19401   0.08857   0.00000  Uiso   1.00
Cl160  Cl    0.89108   0.04582   0.31844   0.00000  Uiso   1.00
Cl161  Cl    0.77534   0.28849   0.18242   0.00000  Uiso   1.00
F162   F     0.73422   0.11498   0.18485   0.00000  Uiso   1.00
Cl163  Cl    0.96958   0.10702   0.17339   0.00000  Uiso   1.00
F164   F     0.93510   0.23523   0.41784   0.00000  Uiso   1.00
F165   F     0.97268   0.21539   0.48809   0.00000  Uiso   1.00
F166   F     0.76794   0.11076   0.05066   0.00000  Uiso   1.00
F167   F     0.86076   0.23027   0.37731   0.00000  Uiso   1.00
F168   F     0.88531   0.29077   0.30457   0.00000  Uiso   1.00
C169   C     0.16676   0.57926   0.24930   0.00000  Uiso   1.00
C170   C     0.14791   0.49377   0.48743   0.00000  Uiso   1.00
C171   C     0.15520   0.51045   0.43712   0.00000  Uiso   1.00
C172   C     0.18238   0.50367   0.01444   0.00000  Uiso   1.00
C173   C     0.22600   0.52520   0.48861   0.00000  Uiso   1.00
C174   C     0.23038   0.54341   0.44067   0.00000  Uiso   1.00
C175   C     0.19355   0.53865   0.41748   0.00000  Uiso   1.00
C176   C     0.17335   0.49550   0.06743   0.00000  Uiso   1.00
C177   C     0.25393   0.51958   0.06497   0.00000  Uiso   1.00
C178   C     0.12429   0.49817   0.40733   0.00000  Uiso   1.00
C179   C     0.19333   0.64501   0.27750   0.00000  Uiso   1.00
C180   C     0.14028   0.50107   0.35013   0.00000  Uiso   1.00
C181   C     0.19320   0.35441   0.27913   0.00000  Uiso   1.00
C182   C     0.16668   0.37627   0.25160   0.00000  Uiso   1.00
C183   C     0.14018   0.35530   0.22342   0.00000  Uiso   1.00
C184   C     0.14011   0.64597   0.22182   0.00000  Uiso   1.00
C185   C     0.16665   0.62394   0.24928   0.00000  Uiso   1.00
C186   C     0.29920   0.52596   0.28231   0.00000  Uiso   1.00
C187   C     0.01536   0.52586   0.28244   0.00000  Uiso   1.00
C188   C     0.03450   0.47422   0.21742   0.00000  Uiso   1.00
C189   C     0.31843   0.47419   0.21723   0.00000  Uiso   1.00
C190   C     0.16652   0.42081   0.25103   0.00000  Uiso   1.00
C191   C     0.19298   0.50042   0.14994   0.00000  Uiso   1.00
C192   C     0.26259   0.53084   0.01322   0.00000  Uiso   1.00
C193   C     0.20808   0.50394   0.09303   0.00000  Uiso   1.00
C194   C     0.08194   0.47560   0.43072   0.00000  Uiso   1.00
C195   C     0.07359   0.46036   0.48041   0.00000  Uiso   1.00
C196   C     0.10730   0.46703   0.00751   0.00000  Uiso   1.00
Cu197  Cu    0.11978   0.49999   0.25000   0.00000  Uiso   1.00
Cu198  Cu    0.21355   0.50001   0.25000   0.00000  Uiso   1.00
H199   H     0.12031   0.37219   0.20164   0.00000  Uiso   1.00
H200   H     0.27327   0.54699   0.30793   0.00000  Uiso   1.00
H201   H     0.02645   0.54662   0.30845   0.00000  Uiso   1.00
H202   H     0.13774   0.48577   0.09082   0.00000  Uiso   1.00
H203   H     0.05736   0.46657   0.40892   0.00000  Uiso   1.00
H204   H     0.04248   0.44054   0.49654   0.00000  Uiso   1.00
N205   N     0.04931   0.49999   0.24998   0.00000  Uiso   1.00
N206   N     0.28402   0.50002   0.25000   0.00000  Uiso   1.00
O207   O     0.12708   0.56011   0.25000   0.00000  Uiso   1.00
O208   O     0.20627   0.56012   0.25000   0.00000  Uiso   1.00
O209   O     0.10775   0.49998   0.32549   0.00000  Uiso   1.00
O210   O     0.18694   0.49999   0.32549   0.00000  Uiso   1.00
O211   O     0.12706   0.43988   0.25000   0.00000  Uiso   1.00
O212   O     0.20625   0.43989   0.25000   0.00000  Uiso   1.00
O213   O     0.14640   0.50001   0.17451   0.00000  Uiso   1.00
O214   O     0.22559   0.50002   0.17451   0.00000  Uiso   1.00
F215   F     0.28876   0.52735   0.08857   0.00000  Uiso   1.00
Cl216  Cl    0.22441   0.37915   0.31844   0.00000  Uiso   1.00
Cl217  Cl    0.10868   0.62182   0.18242   0.00000  Uiso   1.00
F218   F     0.06755   0.44831   0.18485   0.00000  Uiso   1.00
Cl219  Cl    0.30292   0.44035   0.17339   0.00000  Uiso   1.00
F220   F     0.26844   0.56856   0.41784   0.00000  Uiso   1.00
F221   F     0.30601   0.54873   0.48809   0.00000  Uiso   1.00
F222   F     0.10127   0.44409   0.05066   0.00000  Uiso   1.00
F223   F     0.19409   0.56361   0.37731   0.00000  Uiso   1.00
F224   F     0.21864   0.62410   0.30457   0.00000  Uiso   1.00
C225   C     0.50009   0.57926   0.24930   0.00000  Uiso   1.00
C226   C     0.48124   0.49377   0.48743   0.00000  Uiso   1.00
C227   C     0.48853   0.51045   0.43712   0.00000  Uiso   1.00
C228   C     0.51571   0.50367   0.01444   0.00000  Uiso   1.00
C229   C     0.55933   0.52520   0.48861   0.00000  Uiso   1.00
C230   C     0.56371   0.54341   0.44067   0.00000  Uiso   1.00
C231   C     0.52688   0.53865   0.41748   0.00000  Uiso   1.00
C232   C     0.50668   0.49550   0.06743   0.00000  Uiso   1.00
C233   C     0.58726   0.51958   0.06497   0.00000  Uiso   1.00
C234   C     0.45762   0.49817   0.40733   0.00000  Uiso   1.00
C235   C     0.52666   0.64501   0.27750   0.00000  Uiso   1.00
C236   C     0.47361   0.50107   0.35013   0.00000  Uiso   1.00
C237   C     0.52653   0.35441   0.27913   0.00000  Uiso   1.00
C238   C     0.50001   0.37627   0.25160   0.00000  Uiso   1.00
C239   C     0.47352   0.35530   0.22342   0.00000  Uiso   1.00
C240   C     0.47345   0.64597   0.22182   0.00000  Uiso   1.00
C241   C     0.49998   0.62394   0.24928   0.00000  Uiso   1.00
C242   C     0.63253   0.52596   0.28231   0.00000  Uiso   1.00
C243   C     0.34869   0.52586   0.28244   0.00000  Uiso   1.00
C244   C     0.36784   0.47422   0.21742   0.00000  Uiso   1.00
C245   C     0.65176   0.47419   0.21723   0.00000  Uiso   1.00
C246   C     0.49985   0.42081   0.25103   0.00000  Uiso   1.00
C247   C     0.52631   0.50042   0.14994   0.00000  Uiso   1.00
C248   C     0.59592   0.53084   0.01322   0.00000  Uiso   1.00
C249   C     0.54141   0.50394   0.09303   0.00000  Uiso   1.00
C250   C     0.41528   0.47560   0.43072   0.00000  Uiso   1.00
C251   C     0.40692   0.46036   0.48041   0.00000  Uiso   1.00
C252   C     0.44063   0.46703   0.00751   0.00000  Uiso   1.00
Cu253  Cu    0.45311   0.49999   0.25000   0.00000  Uiso   1.00
Cu254  Cu    0.54689   0.50001   0.25000   0.00000  Uiso   1.00
H255   H     0.45364   0.37219   0.20164   0.00000  Uiso   1.00
H256   H     0.60660   0.54699   0.30793   0.00000  Uiso   1.00
H257   H     0.35978   0.54662   0.30845   0.00000  Uiso   1.00
H258   H     0.47107   0.48577   0.09082   0.00000  Uiso   1.00
H259   H     0.39069   0.46657   0.40892   0.00000  Uiso   1.00
H260   H     0.37581   0.44054   0.49654   0.00000  Uiso   1.00
N261   N     0.38265   0.49999   0.24998   0.00000  Uiso   1.00
N262   N     0.61735   0.50002   0.25000   0.00000  Uiso   1.00
O263   O     0.46042   0.56011   0.25000   0.00000  Uiso   1.00
O264   O     0.53961   0.56012   0.25000   0.00000  Uiso   1.00
O265   O     0.44108   0.49998   0.32549   0.00000  Uiso   1.00
O266   O     0.52027   0.49999   0.32549   0.00000  Uiso   1.00
O267   O     0.46039   0.43988   0.25000   0.00000  Uiso   1.00
O268   O     0.53958   0.43989   0.25000   0.00000  Uiso   1.00
O269   O     0.47973   0.50001   0.17451   0.00000  Uiso   1.00
O270   O     0.55892   0.50002   0.17451   0.00000  Uiso   1.00
F271   F     0.62209   0.52735   0.08857   0.00000  Uiso   1.00
Cl272  Cl    0.55774   0.37915   0.31844   0.00000  Uiso   1.00
Cl273  Cl    0.44201   0.62182   0.18242   0.00000  Uiso   1.00
F274   F     0.40089   0.44831   0.18485   0.00000  Uiso   1.00
Cl275  Cl    0.63625   0.44035   0.17339   0.00000  Uiso   1.00
F276   F     0.60177   0.56856   0.41784   0.00000  Uiso   1.00
F277   F     0.63934   0.54873   0.48809   0.00000  Uiso   1.00
F278   F     0.43461   0.44409   0.05066   0.00000  Uiso   1.00
F279   F     0.52743   0.56361   0.37731   0.00000  Uiso   1.00
F280   F     0.55198   0.62410   0.30457   0.00000  Uiso   1.00
C281   C     0.83342   0.57926   0.24930   0.00000  Uiso   1.00
C282   C     0.81457   0.49377   0.48743   0.00000  Uiso   1.00
C283   C     0.82187   0.51045   0.43712   0.00000  Uiso   1.00
C284   C     0.84905   0.50367   0.01444   0.00000  Uiso   1.00
C285   C     0.89267   0.52520   0.48861   0.00000  Uiso   1.00
C286   C     0.89704   0.54341   0.44067   0.00000  Uiso   1.00
C287   C     0.86021   0.53865   0.41748   0.00000  Uiso   1.00
C288   C     0.84001   0.49550   0.06743   0.00000  Uiso   1.00
C289   C     0.92059   0.51958   0.06497   0.00000  Uiso   1.00
C290   C     0.79096   0.49817   0.40733   0.00000  Uiso   1.00
C291   C     0.85999   0.64501   0.27750   0.00000  Uiso   1.00
C292   C     0.80695   0.50107   0.35013   0.00000  Uiso   1.00
C293   C     0.85986   0.35441   0.27913   0.00000  Uiso   1.00
C294   C     0.83334   0.37627   0.25160   0.00000  Uiso   1.00
C295   C     0.80685   0.35530   0.22342   0.00000  Uiso   1.00
C296   C     0.80678   0.64597   0.22182   0.00000  Uiso   1.00
C297   C     0.83331   0.62394   0.24928   0.00000  Uiso   1.00
C298   C     0.96587   0.52596   0.28231   0.00000  Uiso   1.00
C299   C     0.68203   0.52586   0.28244   0.00000  Uiso   1.00
C300   C     0.70117   0.47422   0.21742   0.00000  Uiso   1.00
C301   C     0.98509   0.47419   0.21723   0.00000  Uiso   1.00
C302   C     0.83319   0.42081   0.25103   0.00000  Uiso   1.00
C303   C     0.85965   0.50042   0.14994   0.00000  Uiso   1.00
C304   C     0.92925   0.53084   0.01322   0.00000  Uiso   1.00
C305   C     0.87475   0.50394   0.09303   0.00000  Uiso   1.00
C306   C     0.74861   0.47560   0.43072   0.00000  Uiso   1.00
C307   C     0.74026   0.46036   0.48041   0.00000  Uiso   1.00
C308   C     0.77397   0.46703   0.00751   0.00000  Uiso   1.00
Cu309  Cu    0.78645   0.49999   0.25000   0.00000  Uiso   1.00
Cu310  Cu    0.88022   0.50001   0.25000   0.00000  Uiso   1.00
H311   H     0.78697   0.37219   0.20164   0.00000  Uiso   1.00
H312   H     0.93993   0.54699   0.30793   0.00000  Uiso   1.00
H313   H     0.69311   0.54662   0.30845   0.00000  Uiso   1.00
H314   H     0.80440   0.48577   0.09082   0.00000  Uiso   1.00
H315   H     0.72403   0.46657   0.40892   0.00000  Uiso   1.00
H316   H     0.70915   0.44054   0.49654   0.00000  Uiso   1.00
N317   N     0.71598   0.49999   0.24998   0.00000  Uiso   1.00
N318   N     0.95069   0.50002   0.25000   0.00000  Uiso   1.00
O319   O     0.79375   0.56011   0.25000   0.00000  Uiso   1.00
O320   O     0.87294   0.56012   0.25000   0.00000  Uiso   1.00
O321   O     0.77441   0.49998   0.32549   0.00000  Uiso   1.00
O322   O     0.85360   0.49999   0.32549   0.00000  Uiso   1.00
O323   O     0.79373   0.43988   0.25000   0.00000  Uiso   1.00
O324   O     0.87292   0.43989   0.25000   0.00000  Uiso   1.00
O325   O     0.81306   0.50001   0.17451   0.00000  Uiso   1.00
O326   O     0.89225   0.50002   0.17451   0.00000  Uiso   1.00
F327   F     0.95543   0.52735   0.08857   0.00000  Uiso   1.00
Cl328  Cl    0.89108   0.37915   0.31844   0.00000  Uiso   1.00
Cl329  Cl    0.77534   0.62182   0.18242   0.00000  Uiso   1.00
F330   F     0.73422   0.44831   0.18485   0.00000  Uiso   1.00
Cl331  Cl    0.96958   0.44035   0.17339   0.00000  Uiso   1.00
F332   F     0.93510   0.56856   0.41784   0.00000  Uiso   1.00
F333   F     0.97268   0.54873   0.48809   0.00000  Uiso   1.00
F334   F     0.76794   0.44409   0.05066   0.00000  Uiso   1.00
F335   F     0.86076   0.56361   0.37731   0.00000  Uiso   1.00
F336   F     0.88531   0.62410   0.30457   0.00000  Uiso   1.00
C337   C     0.16676   0.91259   0.24930   0.00000  Uiso   1.00
C338   C     0.14791   0.82711   0.48743   0.00000  Uiso   1.00
C339   C     0.15520   0.84379   0.43712   0.00000  Uiso   1.00
C340   C     0.18238   0.83701   0.01444   0.00000  Uiso   1.00
C341   C     0.22600   0.85853   0.48861   0.00000  Uiso   1.00
C342   C     0.23038   0.87674   0.44067   0.00000  Uiso   1.00
C343   C     0.19355   0.87198   0.41748   0.00000  Uiso   1.00
C344   C     0.17335   0.82883   0.06743   0.00000  Uiso   1.00
C345   C     0.25393   0.85292   0.06497   0.00000  Uiso   1.00
C346   C     0.12429   0.83150   0.40733   0.00000  Uiso   1.00
C347   C     0.19333   0.97835   0.27750   0.00000  Uiso   1.00
C348   C     0.14028   0.83440   0.35013   0.00000  Uiso   1.00
C349   C     0.19320   0.68775   0.27913   0.00000  Uiso   1.00
C350   C     0.16668   0.70960   0.25160   0.00000  Uiso   1.00
C351   C     0.14018   0.68864   0.22342   0.00000  Uiso   1.00
C352   C     0.14011   0.97930   0.22182   0.00000  Uiso   1.00
C353   C     0.16665   0.95727   0.24928   0.00000  Uiso   1.00
C354   C     0.29920   0.85929   0.28231   0.00000  Uiso   1.00
C355   C     0.01536   0.85919   0.28244   0.00000  Uiso   1.00
C356   C     0.03450   0.80756   0.21742   0.00000  Uiso   1.00
C357   C     0.31843   0.80752   0.21723   0.00000  Uiso   1.00
C358   C     0.16652   0.75414   0.25103   0.00000  Uiso   1.00
C359   C     0.19298   0.83375   0.14994   0.00000  Uiso   1.00
C360   C     0.26259   0.86417   0.01322   0.00000  Uiso   1.00
C361   C     0.20808   0.83728   0.09303   0.00000  Uiso   1.00
C362   C     0.08194   0.80893   0.43072   0.00000  Uiso   1.00
C363   C     0.07359   0.79369   0.48041   0.00000  Uiso   1.00
C364   C     0.10730   0.80037   0.00751   0.00000  Uiso   1.00
Cu365  Cu    0.11978   0.83333   0.25000   0.00000  Uiso   1.00
Cu366  Cu    0.21355   0.83334   0.25000   0.00000  Uiso   1.00
H367   H     0.12031   0.70552   0.20164   0.00000  Uiso   1.00
H368   H     0.27327   0.88033   0.30793   0.00000  Uiso   1.00
H369   H     0.02645   0.87995   0.30845   0.00000  Uiso   1.00
H370   H     0.13774   0.81910   0.09082   0.00000  Uiso   1.00
H371   H     0.05736   0.79990   0.40892   0.00000  Uiso   1.00
H372   H     0.04248   0.77387   0.49654   0.00000  Uiso   1.00
N373   N     0.04931   0.83332   0.24998   0.00000  Uiso   1.00
N374   N     0.28402   0.83335   0.25000   0.00000  Uiso   1.00
O375   O     0.12708   0.89345   0.25000   0.00000  Uiso   1.00
O376   O     0.20627   0.89346   0.25000   0.00000  Uiso   1.00
O377   O     0.10775   0.83332   0.32549   0.00000  Uiso   1.00
O378   O     0.18694   0.83333   0.32549   0.00000  Uiso   1.00
O379   O     0.12706   0.77321   0.25000   0.00000  Uiso   1.00
O380   O     0.20625   0.77322   0.25000   0.00000  Uiso   1.00
O381   O     0.14640   0.83334   0.17451   0.00000  Uiso   1.00
O382   O     0.22559   0.83335   0.17451   0.00000  Uiso   1.00
F383   F     0.28876   0.86068   0.08857   0.00000  Uiso   1.00
Cl384  Cl    0.22441   0.71248   0.31844   0.00000  Uiso   1.00
Cl385  Cl    0.10868   0.95515   0.18242   0.00000  Uiso   1.00
F386   F     0.06755   0.78164   0.18485   0.00000  Uiso   1.00
Cl387  Cl    0.30292   0.77369   0.17339   0.00000  Uiso   1.00
F388   F     0.26844   0.90189   0.41784   0.00000  Uiso   1.00
F389   F     0.30601   0.88206   0.48809   0.00000  Uiso   1.00
F390   F     0.10127   0.77743   0.05066   0.00000  Uiso   1.00
F391   F     0.19409   0.89694   0.37731   0.00000  Uiso   1.00
F392   F     0.21864   0.95744   0.30457   0.00000  Uiso   1.00
C393   C     0.50009   0.91259   0.24930   0.00000  Uiso   1.00
C394   C     0.48124   0.82711   0.48743   0.00000  Uiso   1.00
C395   C     0.48853   0.84379   0.43712   0.00000  Uiso   1.00
C396   C     0.51571   0.83701   0.01444   0.00000  Uiso   1.00
C397   C     0.55933   0.85853   0.48861   0.00000  Uiso   1.00
C398   C     0.56371   0.87674   0.44067   0.00000  Uiso   1.00
C399   C     0.52688   0.87198   0.41748   0.00000  Uiso   1.00
C400   C     0.50668   0.82883   0.06743   0.00000  Uiso   1.00
C401   C     0.58726   0.85292   0.06497   0.00000  Uiso   1.00
C402   C     0.45762   0.83150   0.40733   0.00000  Uiso   1.00
C403   C     0.52666   0.97835   0.27750   0.00000  Uiso   1.00
C404   C     0.47361   0.83440   0.35013   0.00000  Uiso   1.00
C405   C     0.52653   0.68775   0.27913   0.00000  Uiso   1.00
C406   C     0.50001   0.70960   0.25160   0.00000  Uiso   1.00
C407   C     0.47352   0.68864   0.22342   0.00000  Uiso   1.00
C408   C     0.47345   0.97930   0.22182   0.00000  Uiso   1.00
C409   C     0.49998   0.95727   0.24928   0.00000  Uiso   1.00
C410   C     0.63253   0.85929   0.28231   0.00000  Uiso   1.00
C411   C     0.34869   0.85919   0.28244   0.00000  Uiso   1.00
C412   C     0.36784   0.80756   0.21742   0.00000  Uiso   1.00
C413   C     0.65176   0.80752   0.21723   0.00000  Uiso   1.00
C414   C     0.49985   0.75414   0.25103   0.00000  Uiso   1.00
C415   C     0.52631   0.83375   0.14994   0.00000  Uiso   1.00
C416   C     0.59592   0.86417   0.01322   0.00000  Uiso   1.00
C417   C     0.54141   0.83728   0.09303   0.00000  Uiso   1.00
C418   C     0.41528   0.80893   0.43072   0.00000  Uiso   1.00
C419   C     0.40692   0.79369   0.48041   0.00000  Uiso   1.00
C420   C     0.44063   0.80037   0.00751   0.00000  Uiso   1.00
Cu421  Cu    0.45311   0.83333   0.25000   0.00000  Uiso   1.00
Cu422  Cu    0.54689   0.83334   0.25000   0.00000  Uiso   1.00
H423   H     0.45364   0.70552   0.20164   0.00000  Uiso   1.00
H424   H     0.60660   0.88033   0.30793   0.00000  Uiso   1.00
H425   H     0.35978   0.87995   0.30845   0.00000  Uiso   1.00
H426   H     0.47107   0.81910   0.09082   0.00000  Uiso   1.00
H427   H     0.39069   0.79990   0.40892   0.00000  Uiso   1.00
H428   H     0.37581   0.77387   0.49654   0.00000  Uiso   1.00
N429   N     0.38265   0.83332   0.24998   0.00000  Uiso   1.00
N430   N     0.61735   0.83335   0.25000   0.00000  Uiso   1.00
O431   O     0.46042   0.89345   0.25000   0.00000  Uiso   1.00
O432   O     0.53961   0.89346   0.25000   0.00000  Uiso   1.00
O433   O     0.44108   0.83332   0.32549   0.00000  Uiso   1.00
O434   O     0.52027   0.83333   0.32549   0.00000  Uiso   1.00
O435   O     0.46039   0.77321   0.25000   0.00000  Uiso   1.00
O436   O     0.53958   0.77322   0.25000   0.00000  Uiso   1.00
O437   O     0.47973   0.83334   0.17451   0.00000  Uiso   1.00
O438   O     0.55892   0.83335   0.17451   0.00000  Uiso   1.00
F439   F     0.62209   0.86068   0.08857   0.00000  Uiso   1.00
Cl440  Cl    0.55774   0.71248   0.31844   0.00000  Uiso   1.00
Cl441  Cl    0.44201   0.95515   0.18242   0.00000  Uiso   1.00
F442   F     0.40089   0.78164   0.18485   0.00000  Uiso   1.00
Cl443  Cl    0.63625   0.77369   0.17339   0.00000  Uiso   1.00
F444   F     0.60177   0.90189   0.41784   0.00000  Uiso   1.00
F445   F     0.63934   0.88206   0.48809   0.00000  Uiso   1.00
F446   F     0.43461   0.77743   0.05066   0.00000  Uiso   1.00
F447   F     0.52743   0.89694   0.37731   0.00000  Uiso   1.00
F448   F     0.55198   0.95744   0.30457   0.00000  Uiso   1.00
C449   C     0.83342   0.91259   0.24930   0.00000  Uiso   1.00
C450   C     0.81457   0.82711   0.48743   0.00000  Uiso   1.00
C451   C     0.82187   0.84379   0.43712   0.00000  Uiso   1.00
C452   C     0.84905   0.83701   0.01444   0.00000  Uiso   1.00
C453   C     0.89267   0.85853   0.48861   0.00000  Uiso   1.00
C454   C     0.89704   0.87674   0.44067   0.00000  Uiso   1.00
C455   C     0.86021   0.87198   0.41748   0.00000  Uiso   1.00
C456   C     0.84001   0.82883   0.06743   0.00000  Uiso   1.00
C457   C     0.92059   0.85292   0.06497   0.00000  Uiso   1.00
C458   C     0.79096   0.83150   0.40733   0.00000  Uiso   1.00
C459   C     0.85999   0.97835   0.27750   0.00000  Uiso   1.00
C460   C     0.80695   0.83440   0.35013   0.00000  Uiso   1.00
C461   C     0.85986   0.68775   0.27913   0.00000  Uiso   1.00
C462   C     0.83334   0.70960   0.25160   0.00000  Uiso   1.00
C463   C     0.80685   0.68864   0.22342   0.00000  Uiso   1.00
C464   C     0.80678   0.97930   0.22182   0.00000  Uiso   1.00
C465   C     0.83331   0.95727   0.24928   0.00000  Uiso   1.00
C466   C     0.96587   0.85929   0.28231   0.00000  Uiso   1.00
C467   C     0.68203   0.85919   0.28244   0.00000  Uiso   1.00
C468   C     0.70117   0.80756   0.21742   0.00000  Uiso   1.00
C469   C     0.98509   0.80752   0.21723   0.00000  Uiso   1.00
C470   C     0.83319   0.75414   0.25103   0.00000  Uiso   1.00
C471   C     0.85965   0.83375   0.14994   0.00000  Uiso   1.00
C472   C     0.92925   0.86417   0.01322   0.00000  Uiso   1.00
C473   C     0.87475   0.83728   0.09303   0.00000  Uiso   1.00
C474   C     0.74861   0.80893   0.43072   0.00000  Uiso   1.00
C475   C     0.74026   0.79369   0.48041   0.00000  Uiso   1.00
C476   C     0.77397   0.80037   0.00751   0.00000  Uiso   1.00
Cu477  Cu    0.78645   0.83333   0.25000   0.00000  Uiso   1.00
Cu478  Cu    0.88022   0.83334   0.25000   0.00000  Uiso   1.00
H479   H     0.78697   0.70552   0.20164   0.00000  Uiso   1.00
H480   H     0.93993   0.88033   0.30793   0.00000  Uiso   1.00
H481   H     0.69311   0.87995   0.30845   0.00000  Uiso   1.00
H482   H     0.80440   0.81910   0.09082   0.00000  Uiso   1.00
H483   H     0.72403   0.79990   0.40892   0.00000  Uiso   1.00
H484   H     0.70915   0.77387   0.49654   0.00000  Uiso   1.00
N485   N     0.71598   0.83332   0.24998   0.00000  Uiso   1.00
N486   N     0.95069   0.83335   0.25000   0.00000  Uiso   1.00
O487   O     0.79375   0.89345   0.25000   0.00000  Uiso   1.00
O488   O     0.87294   0.89346   0.25000   0.00000  Uiso   1.00
O489   O     0.77441   0.83332   0.32549   0.00000  Uiso   1.00
O490   O     0.85360   0.83333   0.32549   0.00000  Uiso   1.00
O491   O     0.79373   0.77321   0.25000   0.00000  Uiso   1.00
O492   O     0.87292   0.77322   0.25000   0.00000  Uiso   1.00
O493   O     0.81306   0.83334   0.17451   0.00000  Uiso   1.00
O494   O     0.89225   0.83335   0.17451   0.00000  Uiso   1.00
F495   F     0.95543   0.86068   0.08857   0.00000  Uiso   1.00
Cl496  Cl    0.89108   0.71248   0.31844   0.00000  Uiso   1.00
Cl497  Cl    0.77534   0.95515   0.18242   0.00000  Uiso   1.00
F498   F     0.73422   0.78164   0.18485   0.00000  Uiso   1.00
Cl499  Cl    0.96958   0.77369   0.17339   0.00000  Uiso   1.00
F500   F     0.93510   0.90189   0.41784   0.00000  Uiso   1.00
F501   F     0.97268   0.88206   0.48809   0.00000  Uiso   1.00
F502   F     0.76794   0.77743   0.05066   0.00000  Uiso   1.00
F503   F     0.86076   0.89694   0.37731   0.00000  Uiso   1.00
F504   F     0.88531   0.95744   0.30457   0.00000  Uiso   1.00
C505   C     0.16676   0.24593   0.74930   0.00000  Uiso   1.00
C506   C     0.14791   0.16044   0.98743   0.00000  Uiso   1.00
C507   C     0.15520   0.17712   0.93712   0.00000  Uiso   1.00
C508   C     0.18238   0.17034   0.51444   0.00000  Uiso   1.00
C509   C     0.22600   0.19187   0.98861   0.00000  Uiso   1.00
C510   C     0.23038   0.21007   0.94067   0.00000  Uiso   1.00
C511   C     0.19355   0.20532   0.91748   0.00000  Uiso   1.00
C512   C     0.17335   0.16217   0.56743   0.00000  Uiso   1.00
C513   C     0.25393   0.18625   0.56497   0.00000  Uiso   1.00
C514   C     0.12429   0.16483   0.90733   0.00000  Uiso   1.00
C515   C     0.19333   0.31168   0.77750   0.00000  Uiso   1.00
C516   C     0.14028   0.16774   0.85013   0.00000  Uiso   1.00
C517   C     0.19320   0.02108   0.77913   0.00000  Uiso   1.00
C518   C     0.16668   0.04294   0.75160   0.00000  Uiso   1.00
C519   C     0.14018   0.02197   0.72342   0.00000  Uiso   1.00
C520   C     0.14011   0.31264   0.72182   0.00000  Uiso   1.00
C521   C     0.16665   0.29060   0.74928   0.00000  Uiso   1.00
C522   C     0.29920   0.19262   0.78231   0.00000  Uiso   1.00
C523   C     0.01536   0.19252   0.78244   0.00000  Uiso   1.00
C524   C     0.03450   0.14089   0.71742   0.00000  Uiso   1.00
C525   C     0.31843   0.14085   0.71723   0.00000  Uiso   1.00
C526   C     0.16652   0.08748   0.75103   0.00000  Uiso   1.00
C527   C     0.19298   0.16709   0.64994   0.00000  Uiso   1.00
C528   C     0.26259   0.19750   0.51322   0.00000  Uiso   1.00
C529   C     0.20808   0.17061   0.59303   0.00000  Uiso   1.00
C530   C     0.08194   0.14227   0.93072   0.00000  Uiso   1.00
C531   C     0.07359   0.12703   0.98041   0.00000  Uiso   1.00
C532   C     0.10730   0.13370   0.50751   0.00000  Uiso   1.00
Cu533  Cu    0.11978   0.16666   0.75000   0.00000  Uiso   1.00
Cu534  Cu    0.21355   0.16667   0.75000   0.00000  Uiso   1.00
H535   H     0.12031   0.03886   0.70164   0.00000  Uiso   1.00
H536   H     0.27327   0.21366   0.80793   0.00000  Uiso   1.00
H537   H     0.02645   0.21328   0.80845   0.00000  Uiso   1.00
H538   H     0.13774   0.15244   0.59082   0.00000  Uiso   1.00
H539   H     0.05736   0.13323   0.90892   0.00000  Uiso   1.00
H540   H     0.04248   0.10721   0.99654   0.00000  Uiso   1.00
N541   N     0.04931   0.16666   0.74998   0.00000  Uiso   1.00
N542   N     0.28402   0.16669   0.75000   0.00000  Uiso   1.00
O543   O     0.12708   0.22678   0.75000   0.00000  Uiso   1.00
O544   O     0.20627   0.22679   0.75000   0.00000  Uiso   1.00
O545   O     0.10775   0.16665   0.82549   0.00000  Uiso   1.00
O546   O     0.18694   0.16666   0.82549   0.00000  Uiso   1.00
O547   O     0.12706   0.10654   0.75000   0.00000  Uiso   1.00
O548   O     0.20625   0.10655   0.75000   0.00000  Uiso   1.00
O549   O     0.14640   0.16667   0.67451   0.00000  Uiso   1.00
O550   O     0.22559   0.16668   0.67451   0.00000  Uiso   1.00
F551   F     0.28876   0.19401   0.58857   0.00000  Uiso   1.00
Cl552  Cl    0.22441   0.04582   0.81844   0.00000  Uiso   1.00
Cl553  Cl    0.10868   0.28849   0.68242   0.00000  Uiso   1.00
F554   F     0.06755   0.11498   0.68485   0.00000  Uiso   1.00
Cl555  Cl    0.30292   0.10702   0.67339   0.00000  Uiso   1.00
F556   F     0.26844   0.23523   0.91784   0.00000  Uiso   1.00
F557   F     0.30601   0.21539   0.98809   0.00000  Uiso   1.00
F558   F     0.10127   0.11076   0.55066   0.00000  Uiso   1.00
F559   F     0.19409   0.23027   0.87731   0.00000  Uiso   1.00
F560   F     0.21864   0.29077   0.80457   0.00000  Uiso   1.00
C561   C     0.50009   0.24593   0.74930   0.00000  Uiso   1.00
C562   C     0.48124   0.16044   0.98743   0.00000  Uiso   1.00
C563   C     0.48853   0.17712   0.93712   0.00000  Uiso   1.00
C564   C     0.51571   0.17034   0.51444   0.00000  Uiso   1.00
C565   C     0.55933   0.19187   0.98861   0.00000  Uiso   1.00
C566   C     0.56371   0.21007   0.94067   0.00000  Uiso   1.00
C567   C     0.52688   0.20532   0.91748   0.00000  Uiso   1.00
C568   C     0.50668   0.16217   0.56743   0.00000  Uiso   1.00
C569   C     0.58726   0.18625   0.56497   0.00000  Uiso   1.00
C570   C     0.45762   0.16483   0.90733   0.00000  Uiso   1.00
C571   C     0.52666   0.31168   0.77750   0.00000  Uiso   1.00
C572   C     0.47361   0.16774   0.85013   0.00000  Uiso   1.00
C573   C     0.52653   0.02108   0.77913   0.00000  Uiso   1.00
C574   C     0.50001   0.04294   0.75160   0.00000  Uiso   1.00
C575   C     0.47352   0.02197   0.72342   0.00000  Uiso   1.00
C576   C     0.47345   0.31264   0.72182   0.00000  Uiso   1.00
C577   C     0.49998   0.29060   0.74928   0.00000  Uiso   1.00
C578   C     0.63253   0.19262   0.78231   0.00000  Uiso   1.00
C579   C     0.34869   0.19252   0.78244   0.00000  Uiso   1.00
C580   C     0.36784   0.14089   0.71742   0.00000  Uiso   1.00
C581   C     0.65176   0.14085   0.71723   0.00000  Uiso   1.00
C582   C     0.49985   0.08748   0.75103   0.00000  Uiso   1.00
C583   C     0.52631   0.16709   0.64994   0.00000  Uiso   1.00
C584   C     0.59592   0.19750   0.51322   0.00000  Uiso   1.00
C585   C     0.54141   0.17061   0.59303   0.00000  Uiso   1.00
C586   C     0.41528   0.14227   0.93072   0.00000  Uiso   1.00
C587   C     0.40692   0.12703   0.98041   0.00000  Uiso   1.00
C588   C     0.44063   0.13370   0.50751   0.00000  Uiso   1.00
Cu589  Cu    0.45311   0.16666   0.75000   0.00000  Uiso   1.00
Cu590  Cu    0.54689   0.16667   0.75000   0.00000  Uiso   1.00
H591   H     0.45364   0.03886   0.70164   0.00000  Uiso   1.00
H592   H     0.60660   0.21366   0.80793   0.00000  Uiso   1.00
H593   H     0.35978   0.21328   0.80845   0.00000  Uiso   1.00
H594   H     0.47107   0.15244   0.59082   0.00000  Uiso   1.00
H595   H     0.39069   0.13323   0.90892   0.00000  Uiso   1.00
H596   H     0.37581   0.10721   0.99654   0.00000  Uiso   1.00
N597   N     0.38265   0.16666   0.74998   0.00000  Uiso   1.00
N598   N     0.61735   0.16669   0.75000   0.00000  Uiso   1.00
O599   O     0.46042   0.22678   0.75000   0.00000  Uiso   1.00
O600   O     0.53961   0.22679   0.75000   0.00000  Uiso   1.00
O601   O     0.44108   0.16665   0.82549   0.00000  Uiso   1.00
O602   O     0.52027   0.16666   0.82549   0.00000  Uiso   1.00
O603   O     0.46039   0.10654   0.75000   0.00000  Uiso   1.00
O604   O     0.53958   0.10655   0.75000   0.00000  Uiso   1.00
O605   O     0.47973   0.16667   0.67451   0.00000  Uiso   1.00
O606   O     0.55892   0.16668   0.67451   0.00000  Uiso   1.00
F607   F     0.62209   0.19401   0.58857   0.00000  Uiso   1.00
Cl608  Cl    0.55774   0.04582   0.81844   0.00000  Uiso   1.00
Cl609  Cl    0.44201   0.28849   0.68242   0.00000  Uiso   1.00
F610   F     0.40089   0.11498   0.68485   0.00000  Uiso   1.00
Cl611  Cl    0.63625   0.10702   0.67339   0.00000  Uiso   1.00
F612   F     0.60177   0.23523   0.91784   0.00000  Uiso   1.00
F613   F     0.63934   0.21539   0.98809   0.00000  Uiso   1.00
F614   F     0.43461   0.11076   0.55066   0.00000  Uiso   1.00
F615   F     0.52743   0.23027   0.87731   0.00000  Uiso   1.00
F616   F     0.55198   0.29077   0.80457   0.00000  Uiso   1.00
C617   C     0.83342   0.24593   0.74930   0.00000  Uiso   1.00
C618   C     0.81457   0.16044   0.98743   0.00000  Uiso   1.00
C619   C     0.82187   0.17712   0.93712   0.00000  Uiso   1.00
C620   C     0.84905   0.17034   0.51444   0.00000  Uiso   1.00
C621   C     0.89267   0.19187   0.98861   0.00000  Uiso   1.00
C622   C     0.89704   0.21007   0.94067   0.00000  Uiso   1.00
C623   C     0.86021   0.20532   0.91748   0.00000  Uiso   1.00
C624   C     0.84001   0.16217   0.56743   0.00000  Uiso   1.00
C625   C     0.92059   0.18625   0.56497   0.00000  Uiso   1.00
C626   C     0.79096   0.16483   0.90733   0.00000  Uiso   1.00
C627   C     0.85999   0.31168   0.77750   0.00000  Uiso   1.00
C628   C     0.80695   0.16774   0.85013   0.00000  Uiso   1.00
C629   C     0.85986   0.02108   0.77913   0.00000  Uiso   1.00
C630   C     0.83334   0.04294   0.75160   0.00000  Uiso   1.00
C631   C     0.80685   0.02197   0.72342   0.00000  Uiso   1.00
C632   C     0.80678   0.31264   0.72182   0.00000  Uiso   1.00
C633   C     0.83331   0.29060   0.74928   0.00000  Uiso   1.00
C634   C     0.96587   0.19262   0.78231   0.00000  Uiso   1.00
C635   C     0.68203   0.19252   0.78244   0.00000  Uiso   1.00
C636   C     0.70117   0.14089   0.71742   0.00000  Uiso   1.00
C637   C     0.98509   0.14085   0.71723   0.00000  Uiso   1.00
C638   C     0.83319   0.08748   0.75103   0.00000  Uiso   1.00
C639   C     0.85965   0.16709   0.64994   0.00000  Uiso   1.00
C640   C     0.92925   0.19750   0.51322   0.00000  Uiso   1.00
C641   C     0.87475   0.17061   0.59303   0.00000  Uiso   1.00
C642   C     0.74861   0.14227   0.93072   0.00000  Uiso   1.00
C643   C     0.74026   0.12703   0.98041   0.00000  Uiso   1.00
C644   C     0.77397   0.13370   0.50751   0.00000  Uiso   1.00
Cu645  Cu    0.78645   0.16666   0.75000   0.00000  Uiso   1.00
Cu646  Cu    0.88022   0.16667   0.75000   0.00000  Uiso   1.00
H647   H     0.78697   0.03886   0.70164   0.00000  Uiso   1.00
H648   H     0.93993   0.21366   0.80793   0.00000  Uiso   1.00
H649   H     0.69311   0.21328   0.80845   0.00000  Uiso   1.00
H650   H     0.80440   0.15244   0.59082   0.00000  Uiso   1.00
H651   H     0.72403   0.13323   0.90892   0.00000  Uiso   1.00
H652   H     0.70915   0.10721   0.99654   0.00000  Uiso   1.00
N653   N     0.71598   0.16666   0.74998   0.00000  Uiso   1.00
N654   N     0.95069   0.16669   0.75000   0.00000  Uiso   1.00
O655   O     0.79375   0.22678   0.75000   0.00000  Uiso   1.00
O656   O     0.87294   0.22679   0.75000   0.00000  Uiso   1.00
O657   O     0.77441   0.16665   0.82549   0.00000  Uiso   1.00
O658   O     0.85360   0.16666   0.82549   0.00000  Uiso   1.00
O659   O     0.79373   0.10654   0.75000   0.00000  Uiso   1.00
O660   O     0.87292   0.10655   0.75000   0.00000  Uiso   1.00
O661   O     0.81306   0.16667   0.67451   0.00000  Uiso   1.00
O662   O     0.89225   0.16668   0.67451   0.00000  Uiso   1.00
F663   F     0.95543   0.19401   0.58857   0.00000  Uiso   1.00
Cl664  Cl    0.89108   0.04582   0.81844   0.00000  Uiso   1.00
Cl665  Cl    0.77534   0.28849   0.68242   0.00000  Uiso   1.00
F666   F     0.73422   0.11498   0.68485   0.00000  Uiso   1.00
Cl667  Cl    0.96958   0.10702   0.67339   0.00000  Uiso   1.00
F668   F     0.93510   0.23523   0.91784   0.00000  Uiso   1.00
F669   F     0.97268   0.21539   0.98809   0.00000  Uiso   1.00
F670   F     0.76794   0.11076   0.55066   0.00000  Uiso   1.00
F671   F     0.86076   0.23027   0.87731   0.00000  Uiso   1.00
F672   F     0.88531   0.29077   0.80457   0.00000  Uiso   1.00
C673   C     0.16676   0.57926   0.74930   0.00000  Uiso   1.00
C674   C     0.14791   0.49377   0.98743   0.00000  Uiso   1.00
C675   C     0.15520   0.51045   0.93712   0.00000  Uiso   1.00
C676   C     0.18238   0.50367   0.51444   0.00000  Uiso   1.00
C677   C     0.22600   0.52520   0.98861   0.00000  Uiso   1.00
C678   C     0.23038   0.54341   0.94067   0.00000  Uiso   1.00
C679   C     0.19355   0.53865   0.91748   0.00000  Uiso   1.00
C680   C     0.17335   0.49550   0.56743   0.00000  Uiso   1.00
C681   C     0.25393   0.51958   0.56497   0.00000  Uiso   1.00
C682   C     0.12429   0.49817   0.90733   0.00000  Uiso   1.00
C683   C     0.19333   0.64501   0.77750   0.00000  Uiso   1.00
C684   C     0.14028   0.50107   0.85013   0.00000  Uiso   1.00
C685   C     0.19320   0.35441   0.77913   0.00000  Uiso   1.00
C686   C     0.16668   0.37627   0.75160   0.00000  Uiso   1.00
C687   C     0.14018   0.35530   0.72342   0.00000  Uiso   1.00
C688   C     0.14011   0.64597   0.72182   0.00000  Uiso   1.00
C689   C     0.16665   0.62394   0.74928   0.00000  Uiso   1.00
C690   C     0.29920   0.52596   0.78231   0.00000  Uiso   1.00
C691   C     0.01536   0.52586   0.78244   0.00000  Uiso   1.00
C692   C     0.03450   0.47422   0.71742   0.00000  Uiso   1.00
C693   C     0.31843   0.47419   0.71723   0.00000  Uiso   1.00
C694   C     0.16652   0.42081   0.75103   0.00000  Uiso   1.00
C695   C     0.19298   0.50042   0.64994   0.00000  Uiso   1.00
C696   C     0.26259   0.53084   0.51322   0.00000  Uiso   1.00
C697   C     0.20808   0.50394   0.59303   0.00000  Uiso   1.00
C698   C     0.08194   0.47560   0.93072   0.00000  Uiso   1.00
C699   C     0.07359   0.46036   0.98041   0.00000  Uiso   1.00
C700   C     0.10730   0.46703   0.50751   0.00000  Uiso   1.00
Cu701  Cu    0.11978   0.49999   0.75000   0.00000  Uiso   1.00
Cu702  Cu    0.21355   0.50001   0.75000   0.00000  Uiso   1.00
H703   H     0.12031   0.37219   0.70164   0.00000  Uiso   1.00
H704   H     0.27327   0.54699   0.80793   0.00000  Uiso   1.00
H705   H     0.02645   0.54662   0.80845   0.00000  Uiso   1.00
H706   H     0.13774   0.48577   0.59082   0.00000  Uiso   1.00
H707   H     0.05736   0.46657   0.90892   0.00000  Uiso   1.00
H708   H     0.04248   0.44054   0.99654   0.00000  Uiso   1.00
N709   N     0.04931   0.49999   0.74998   0.00000  Uiso   1.00
N710   N     0.28402   0.50002   0.75000   0.00000  Uiso   1.00
O711   O     0.12708   0.56011   0.75000   0.00000  Uiso   1.00
O712   O     0.20627   0.56012   0.75000   0.00000  Uiso   1.00
O713   O     0.10775   0.49998   0.82549   0.00000  Uiso   1.00
O714   O     0.18694   0.49999   0.82549   0.00000  Uiso   1.00
O715   O     0.12706   0.43988   0.75000   0.00000  Uiso   1.00
O716   O     0.20625   0.43989   0.75000   0.00000  Uiso   1.00
O717   O     0.14640   0.50001   0.67451   0.00000  Uiso   1.00
O718   O     0.22559   0.50002   0.67451   0.00000  Uiso   1.00
F719   F     0.28876   0.52735   0.58857   0.00000  Uiso   1.00
Cl720  Cl    0.22441   0.37915   0.81844   0.00000  Uiso   1.00
Cl721  Cl    0.10868   0.62182   0.68242   0.00000  Uiso   1.00
F722   F     0.06755   0.44831   0.68485   0.00000  Uiso   1.00
Cl723  Cl    0.30292   0.44035   0.67339   0.00000  Uiso   1.00
F724   F     0.26844   0.56856   0.91784   0.00000  Uiso   1.00
F725   F     0.30601   0.54873   0.98809   0.00000  Uiso   1.00
F726   F     0.10127   0.44409   0.55066   0.00000  Uiso   1.00
F727   F     0.19409   0.56361   0.87731   0.00000  Uiso   1.00
F728   F     0.21864   0.62410   0.80457   0.00000  Uiso   1.00
C729   C     0.50009   0.57926   0.74930   0.00000  Uiso   1.00
C730   C     0.48124   0.49377   0.98743   0.00000  Uiso   1.00
C731   C     0.48853   0.51045   0.93712   0.00000  Uiso   1.00
C732   C     0.51571   0.50367   0.51444   0.00000  Uiso   1.00
C733   C     0.55933   0.52520   0.98861   0.00000  Uiso   1.00
C734   C     0.56371   0.54341   0.94067   0.00000  Uiso   1.00
C735   C     0.52688   0.53865   0.91748   0.00000  Uiso   1.00
C736   C     0.50668   0.49550   0.56743   0.00000  Uiso   1.00
C737   C     0.58726   0.51958   0.56497   0.00000  Uiso   1.00
C738   C     0.45762   0.49817   0.90733   0.00000  Uiso   1.00
C739   C     0.52666   0.64501   0.77750   0.00000  Uiso   1.00
C740   C     0.47361   0.50107   0.85013   0.00000  Uiso   1.00
C741   C     0.52653   0.35441   0.77913   0.00000  Uiso   1.00
C742   C     0.50001   0.37627   0.75160   0.00000  Uiso   1.00
C743   C     0.47352   0.35530   0.72342   0.00000  Uiso   1.00
C744   C     0.47345   0.64597   0.72182   0.00000  Uiso   1.00
C745   C     0.49998   0.62394   0.74928   0.00000  Uiso   1.00
C746   C     0.63253   0.52596   0.78231   0.00000  Uiso   1.00
C747   C     0.34869   0.52586   0.78244   0.00000  Uiso   1.00
C748   C     0.36784   0.47422   0.71742   0.00000  Uiso   1.00
C749   C     0.65176   0.47419   0.71723   0.00000  Uiso   1.00
C750   C     0.49985   0.42081   0.75103   0.00000  Uiso   1.00
C751   C     0.52631   0.50042   0.64994   0.00000  Uiso   1.00
C752   C     0.59592   0.53084   0.51322   0.00000  Uiso   1.00
C753   C     0.54141   0.50394   0.59303   0.00000  Uiso   1.00
C754   C     0.41528   0.47560   0.93072   0.00000  Uiso   1.00
C755   C     0.40692   0.46036   0.98041   0.00000  Uiso   1.00
C756   C     0.44063   0.46703   0.50751   0.00000  Uiso   1.00
Cu757  Cu    0.45311   0.49999   0.75000   0.00000  Uiso   1.00
Cu758  Cu    0.54689   0.50001   0.75000   0.00000  Uiso   1.00
H759   H     0.45364   0.37219   0.70164   0.00000  Uiso   1.00
H760   H     0.60660   0.54699   0.80793   0.00000  Uiso   1.00
H761   H     0.35978   0.54662   0.80845   0.00000  Uiso   1.00
H762   H     0.47107   0.48577   0.59082   0.00000  Uiso   1.00
H763   H     0.39069   0.46657   0.90892   0.00000  Uiso   1.00
H764   H     0.37581   0.44054   0.99654   0.00000  Uiso   1.00
N765   N     0.38265   0.49999   0.74998   0.00000  Uiso   1.00
N766   N     0.61735   0.50002   0.75000   0.00000  Uiso   1.00
O767   O     0.46042   0.56011   0.75000   0.00000  Uiso   1.00
O768   O     0.53961   0.56012   0.75000   0.00000  Uiso   1.00
O769   O     0.44108   0.49998   0.82549   0.00000  Uiso   1.00
O770   O     0.52027   0.49999   0.82549   0.00000  Uiso   1.00
O771   O     0.46039   0.43988   0.75000   0.00000  Uiso   1.00
O772   O     0.53958   0.43989   0.75000   0.00000  Uiso   1.00
O773   O     0.47973   0.50001   0.67451   0.00000  Uiso   1.00
O774   O     0.55892   0.50002   0.67451   0.00000  Uiso   1.00
F775   F     0.62209   0.52735   0.58857   0.00000  Uiso   1.00
Cl776  Cl    0.55774   0.37915   0.81844   0.00000  Uiso   1.00
Cl777  Cl    0.44201   0.62182   0.68242   0.00000  Uiso   1.00
F778   F     0.40089   0.44831   0.68485   0.00000  Uiso   1.00
Cl779  Cl    0.63625   0.44035   0.67339   0.00000  Uiso   1.00
F780   F     0.60177   0.56856   0.91784   0.00000  Uiso   1.00
F781   F     0.63934   0.54873   0.98809   0.00000  Uiso   1.00
F782   F     0.43461   0.44409   0.55066   0.00000  Uiso   1.00
F783   F     0.52743   0.56361   0.87731   0.00000  Uiso   1.00
F784   F     0.55198   0.62410   0.80457   0.00000  Uiso   1.00
C785   C     0.83342   0.57926   0.74930   0.00000  Uiso   1.00
C786   C     0.81457   0.49377   0.98743   0.00000  Uiso   1.00
C787   C     0.82187   0.51045   0.93712   0.00000  Uiso   1.00
C788   C     0.84905   0.50367   0.51444   0.00000  Uiso   1.00
C789   C     0.89267   0.52520   0.98861   0.00000  Uiso   1.00
C790   C     0.89704   0.54341   0.94067   0.00000  Uiso   1.00
C791   C     0.86021   0.53865   0.91748   0.00000  Uiso   1.00
C792   C     0.84001   0.49550   0.56743   0.00000  Uiso   1.00
C793   C     0.92059   0.51958   0.56497   0.00000  Uiso   1.00
C794   C     0.79096   0.49817   0.90733   0.00000  Uiso   1.00
C795   C     0.85999   0.64501   0.77750   0.00000  Uiso   1.00
C796   C     0.80695   0.50107   0.85013   0.00000  Uiso   1.00
C797   C     0.85986   0.35441   0.77913   0.00000  Uiso   1.00
C798   C     0.83334   0.37627   0.75160   0.00000  Uiso   1.00
C799   C     0.80685   0.35530   0.72342   0.00000  Uiso   1.00
C800   C     0.80678   0.64597   0.72182   0.00000  Uiso   1.00
C801   C     0.83331   0.62394   0.74928   0.00000  Uiso   1.00
C802   C     0.96587   0.52596   0.78231   0.00000  Uiso   1.00
C803   C     0.68203   0.52586   0.78244   0.00000  Uiso   1.00
C804   C     0.70117   0.47422   0.71742   0.00000  Uiso   1.00
C805   C     0.98509   0.47419   0.71723   0.00000  Uiso   1.00
C806   C     0.83319   0.42081   0.75103   0.00000  Uiso   1.00
C807   C     0.85965   0.50042   0.64994   0.00000  Uiso   1.00
C808   C     0.92925   0.53084   0.51322   0.00000  Uiso   1.00
C809   C     0.87475   0.50394   0.59303   0.00000  Uiso   1.00
C810   C     0.74861   0.47560   0.93072   0.00000  Uiso   1.00
C811   C     0.74026   0.46036   0.98041   0.00000  Uiso   1.00
C812   C     0.77397   0.46703   0.50751   0.00000  Uiso   1.00
Cu813  Cu    0.78645   0.49999   0.75000   0.00000  Uiso   1.00
Cu814  Cu    0.88022   0.50001   0.75000   0.00000  Uiso   1.00
H815   H     0.78697   0.37219   0.70164   0.00000  Uiso   1.00
H816   H     0.93993   0.54699   0.80793   0.00000  Uiso   1.00
H817   H     0.69311   0.54662   0.80845   0.00000  Uiso   1.00
H818   H     0.80440   0.48577   0.59082   0.00000  Uiso   1.00
H819   H     0.72403   0.46657   0.90892   0.00000  Uiso   1.00
H820   H     0.70915   0.44054   0.99654   0.00000  Uiso   1.00
N821   N     0.71598   0.49999   0.74998   0.00000  Uiso   1.00
N822   N     0.95069   0.50002   0.75000   0.00000  Uiso   1.00
O823   O     0.79375   0.56011   0.75000   0.00000  Uiso   1.00
O824   O     0.87294   0.56012   0.75000   0.00000  Uiso   1.00
O825   O     0.77441   0.49998   0.82549   0.00000  Uiso   1.00
O826   O     0.85360   0.49999   0.82549   0.00000  Uiso   1.00
O827   O     0.79373   0.43988   0.75000   0.00000  Uiso   1.00
O828   O     0.87292   0.43989   0.75000   0.00000  Uiso   1.00
O829   O     0.81306   0.50001   0.67451   0.00000  Uiso   1.00
O830   O     0.89225   0.50002   0.67451   0.00000  Uiso   1.00
F831   F     0.95543   0.52735   0.58857   0.00000  Uiso   1.00
Cl832  Cl    0.89108   0.37915   0.81844   0.00000  Uiso   1.00
Cl833  Cl    0.77534   0.62182   0.68242   0.00000  Uiso   1.00
F834   F     0.73422   0.44831   0.68485   0.00000  Uiso   1.00
Cl835  Cl    0.96958   0.44035   0.67339   0.00000  Uiso   1.00
F836   F     0.93510   0.56856   0.91784   0.00000  Uiso   1.00
F837   F     0.97268   0.54873   0.98809   0.00000  Uiso   1.00
F838   F     0.76794   0.44409   0.55066   0.00000  Uiso   1.00
F839   F     0.86076   0.56361   0.87731   0.00000  Uiso   1.00
F840   F     0.88531   0.62410   0.80457   0.00000  Uiso   1.00
C841   C     0.16676   0.91259   0.74930   0.00000  Uiso   1.00
C842   C     0.14791   0.82711   0.98743   0.00000  Uiso   1.00
C843   C     0.15520   0.84379   0.93712   0.00000  Uiso   1.00
C844   C     0.18238   0.83701   0.51444   0.00000  Uiso   1.00
C845   C     0.22600   0.85853   0.98861   0.00000  Uiso   1.00
C846   C     0.23038   0.87674   0.94067   0.00000  Uiso   1.00
C847   C     0.19355   0.87198   0.91748   0.00000  Uiso   1.00
C848   C     0.17335   0.82883   0.56743   0.00000  Uiso   1.00
C849   C     0.25393   0.85292   0.56497   0.00000  Uiso   1.00
C850   C     0.12429   0.83150   0.90733   0.00000  Uiso   1.00
C851   C     0.19333   0.97835   0.77750   0.00000  Uiso   1.00
C852   C     0.14028   0.83440   0.85013   0.00000  Uiso   1.00
C853   C     0.19320   0.68775   0.77913   0.00000  Uiso   1.00
C854   C     0.16668   0.70960   0.75160   0.00000  Uiso   1.00
C855   C     0.14018   0.68864   0.72342   0.00000  Uiso   1.00
C856   C     0.14011   0.97930   0.72182   0.00000  Uiso   1.00
C857   C     0.16665   0.95727   0.74928   0.00000  Uiso   1.00
C858   C     0.29920   0.85929   0.78231   0.00000  Uiso   1.00
C859   C     0.01536   0.85919   0.78244   0.00000  Uiso   1.00
C860   C     0.03450   0.80756   0.71742   0.00000  Uiso   1.00
C861   C     0.31843   0.80752   0.71723   0.00000  Uiso   1.00
C862   C     0.16652   0.75414   0.75103   0.00000  Uiso   1.00
C863   C     0.19298   0.83375   0.64994   0.00000  Uiso   1.00
C864   C     0.26259   0.86417   0.51322   0.00000  Uiso   1.00
C865   C     0.20808   0.83728   0.59303   0.00000  Uiso   1.00
C866   C     0.08194   0.80893   0.93072   0.00000  Uiso   1.00
C867   C     0.07359   0.79369   0.98041   0.00000  Uiso   1.00
C868   C     0.10730   0.80037   0.50751   0.00000  Uiso   1.00
Cu869  Cu    0.11978   0.83333   0.75000   0.00000  Uiso   1.00
Cu870  Cu    0.21355   0.83334   0.75000   0.00000  Uiso   1.00
H871   H     0.12031   0.70552   0.70164   0.00000  Uiso   1.00
H872   H     0.27327   0.88033   0.80793   0.00000  Uiso   1.00
H873   H     0.02645   0.87995   0.80845   0.00000  Uiso   1.00
H874   H     0.13774   0.81910   0.59082   0.00000  Uiso   1.00
H875   H     0.05736   0.79990   0.90892   0.00000  Uiso   1.00
H876   H     0.04248   0.77387   0.99654   0.00000  Uiso   1.00
N877   N     0.04931   0.83332   0.74998   0.00000  Uiso   1.00
N878   N     0.28402   0.83335   0.75000   0.00000  Uiso   1.00
O879   O     0.12708   0.89345   0.75000   0.00000  Uiso   1.00
O880   O     0.20627   0.89346   0.75000   0.00000  Uiso   1.00
O881   O     0.10775   0.83332   0.82549   0.00000  Uiso   1.00
O882   O     0.18694   0.83333   0.82549   0.00000  Uiso   1.00
O883   O     0.12706   0.77321   0.75000   0.00000  Uiso   1.00
O884   O     0.20625   0.77322   0.75000   0.00000  Uiso   1.00
O885   O     0.14640   0.83334   0.67451   0.00000  Uiso   1.00
O886   O     0.22559   0.83335   0.67451   0.00000  Uiso   1.00
F887   F     0.28876   0.86068   0.58857   0.00000  Uiso   1.00
Cl888  Cl    0.22441   0.71248   0.81844   0.00000  Uiso   1.00
Cl889  Cl    0.10868   0.95515   0.68242   0.00000  Uiso   1.00
F890   F     0.06755   0.78164   0.68485   0.00000  Uiso   1.00
Cl891  Cl    0.30292   0.77369   0.67339   0.00000  Uiso   1.00
F892   F     0.26844   0.90189   0.91784   0.00000  Uiso   1.00
F893   F     0.30601   0.88206   0.98809   0.00000  Uiso   1.00
F894   F     0.10127   0.77743   0.55066   0.00000  Uiso   1.00
F895   F     0.19409   0.89694   0.87731   0.00000  Uiso   1.00
F896   F     0.21864   0.95744   0.80457   0.00000  Uiso   1.00
C897   C     0.50009   0.91259   0.74930   0.00000  Uiso   1.00
C898   C     0.48124   0.82711   0.98743   0.00000  Uiso   1.00
C899   C     0.48853   0.84379   0.93712   0.00000  Uiso   1.00
C900   C     0.51571   0.83701   0.51444   0.00000  Uiso   1.00
C901   C     0.55933   0.85853   0.98861   0.00000  Uiso   1.00
C902   C     0.56371   0.87674   0.94067   0.00000  Uiso   1.00
C903   C     0.52688   0.87198   0.91748   0.00000  Uiso   1.00
C904   C     0.50668   0.82883   0.56743   0.00000  Uiso   1.00
C905   C     0.58726   0.85292   0.56497   0.00000  Uiso   1.00
C906   C     0.45762   0.83150   0.90733   0.00000  Uiso   1.00
C907   C     0.52666   0.97835   0.77750   0.00000  Uiso   1.00
C908   C     0.47361   0.83440   0.85013   0.00000  Uiso   1.00
C909   C     0.52653   0.68775   0.77913   0.00000  Uiso   1.00
C910   C     0.50001   0.70960   0.75160   0.00000  Uiso   1.00
C911   C     0.47352   0.68864   0.72342   0.00000  Uiso   1.00
C912   C     0.47345   0.97930   0.72182   0.00000  Uiso   1.00
C913   C     0.49998   0.95727   0.74928   0.00000  Uiso   1.00
C914   C     0.63253   0.85929   0.78231   0.00000  Uiso   1.00
C915   C     0.34869   0.85919   0.78244   0.00000  Uiso   1.00
C916   C     0.36784   0.80756   0.71742   0.00000  Uiso   1.00
C917   C     0.65176   0.80752   0.71723   0.00000  Uiso   1.00
C918   C     0.49985   0.75414   0.75103   0.00000  Uiso   1.00
C919   C     0.52631   0.83375   0.64994   0.00000  Uiso   1.00
C920   C     0.59592   0.86417   0.51322   0.00000  Uiso   1.00
C921   C     0.54141   0.83728   0.59303   0.00000  Uiso   1.00
C922   C     0.41528   0.80893   0.93072   0.00000  Uiso   1.00
C923   C     0.40692   0.79369   0.98041   0.00000  Uiso   1.00
C924   C     0.44063   0.80037   0.50751   0.00000  Uiso   1.00
Cu925  Cu    0.45311   0.83333   0.75000   0.00000  Uiso   1.00
Cu926  Cu    0.54689   0.83334   0.75000   0.00000  Uiso   1.00
H927   H     0.45364   0.70552   0.70164   0.00000  Uiso   1.00
H928   H     0.60660   0.88033   0.80793   0.00000  Uiso   1.00
H929   H     0.35978   0.87995   0.80845   0.00000  Uiso   1.00
H930   H     0.47107   0.81910   0.59082   0.00000  Uiso   1.00
H931   H     0.39069   0.79990   0.90892   0.00000  Uiso   1.00
H932   H     0.37581   0.77387   0.99654   0.00000  Uiso   1.00
N933   N     0.38265   0.83332   0.74998   0.00000  Uiso   1.00
N934   N     0.61735   0.83335   0.75000   0.00000  Uiso   1.00
O935   O     0.46042   0.89345   0.75000   0.00000  Uiso   1.00
O936   O     0.53961   0.89346   0.75000   0.00000  Uiso   1.00
O937   O     0.44108   0.83332   0.82549   0.00000  Uiso   1.00
O938   O     0.52027   0.83333   0.82549   0.00000  Uiso   1.00
O939   O     0.46039   0.77321   0.75000   0.00000  Uiso   1.00
O940   O     0.53958   0.77322   0.75000   0.00000  Uiso   1.00
O941   O     0.47973   0.83334   0.67451   0.00000  Uiso   1.00
O942   O     0.55892   0.83335   0.67451   0.00000  Uiso   1.00
F943   F     0.62209   0.86068   0.58857   0.00000  Uiso   1.00
Cl944  Cl    0.55774   0.71248   0.81844   0.00000  Uiso   1.00
Cl945  Cl    0.44201   0.95515   0.68242   0.00000  Uiso   1.00
F946   F     0.40089   0.78164   0.68485   0.00000  Uiso   1.00
Cl947  Cl    0.63625   0.77369   0.67339   0.00000  Uiso   1.00
F948   F     0.60177   0.90189   0.91784   0.00000  Uiso   1.00
F949   F     0.63934   0.88206   0.98809   0.00000  Uiso   1.00
F950   F     0.43461   0.77743   0.55066   0.00000  Uiso   1.00
F951   F     0.52743   0.89694   0.87731   0.00000  Uiso   1.00
F952   F     0.55198   0.95744   0.80457   0.00000  Uiso   1.00
C953   C     0.83342   0.91259   0.74930   0.00000  Uiso   1.00
C954   C     0.81457   0.82711   0.98743   0.00000  Uiso   1.00
C955   C     0.82187   0.84379   0.93712   0.00000  Uiso   1.00
C956   C     0.84905   0.83701   0.51444   0.00000  Uiso   1.00
C957   C     0.89267   0.85853   0.98861   0.00000  Uiso   1.00
C958   C     0.89704   0.87674   0.94067   0.00000  Uiso   1.00
C959   C     0.86021   0.87198   0.91748   0.00000  Uiso   1.00
C960   C     0.84001   0.82883   0.56743   0.00000  Uiso   1.00
C961   C     0.92059   0.85292   0.56497   0.00000  Uiso   1.00
C962   C     0.79096   0.83150   0.90733   0.00000  Uiso   1.00
C963   C     0.85999   0.97835   0.77750   0.00000  Uiso   1.00
C964   C     0.80695   0.83440   0.85013   0.00000  Uiso   1.00
C965   C     0.85986   0.68775   0.77913   0.00000  Uiso   1.00
C966   C     0.83334   0.70960   0.75160   0.00000  Uiso   1.00
C967   C     0.80685   0.68864   0.72342   0.00000  Uiso   1.00
C968   C     0.80678   0.97930   0.72182   0.00000  Uiso   1.00
C969   C     0.83331   0.95727   0.74928   0.00000  Uiso   1.00
C970   C     0.96587   0.85929   0.78231   0.00000  Uiso   1.00
C971   C     0.68203   0.85919   0.78244   0.00000  Uiso   1.00
C972   C     0.70117   0.80756   0.71742   0.00000  Uiso   1.00
C973   C     0.98509   0.80752   0.71723   0.00000  Uiso   1.00
C974   C     0.83319   0.75414   0.75103   0.00000  Uiso   1.00
C975   C     0.85965   0.83375   0.64994   0.00000  Uiso   1.00
C976   C     0.92925   0.86417   0.51322   0.00000  Uiso   1.00
C977   C     0.87475   0.83728   0.59303   0.00000  Uiso   1.00
C978   C     0.74861   0.80893   0.93072   0.00000  Uiso   1.00
C979   C     0.74026   0.79369   0.98041   0.00000  Uiso   1.00
C980   C     0.77397   0.80037   0.50751   0.00000  Uiso   1.00
Cu981  Cu    0.78645   0.83333   0.75000   0.00000  Uiso   1.00
Cu982  Cu    0.88022   0.83334   0.75000   0.00000  Uiso   1.00
H983   H     0.78697   0.70552   0.70164   0.00000  Uiso   1.00
H984   H     0.93993   0.88033   0.80793   0.00000  Uiso   1.00
H985   H     0.69311   0.87995   0.80845   0.00000  Uiso   1.00
H986   H     0.80440   0.81910   0.59082   0.00000  Uiso   1.00
H987   H     0.72403   0.79990   0.90892   0.00000  Uiso   1.00
H988   H     0.70915   0.77387   0.99654   0.00000  Uiso   1.00
N989   N     0.71598   0.83332   0.74998   0.00000  Uiso   1.00
N990   N     0.95069   0.83335   0.75000   0.00000  Uiso   1.00
O991   O     0.79375   0.89345   0.75000   0.00000  Uiso   1.00
O992   O     0.87294   0.89346   0.75000   0.00000  Uiso   1.00
O993   O     0.77441   0.83332   0.82549   0.00000  Uiso   1.00
O994   O     0.85360   0.83333   0.82549   0.00000  Uiso   1.00
O995   O     0.79373   0.77321   0.75000   0.00000  Uiso   1.00
O996   O     0.87292   0.77322   0.75000   0.00000  Uiso   1.00
O997   O     0.81306   0.83334   0.67451   0.00000  Uiso   1.00
O998   O     0.89225   0.83335   0.67451   0.00000  Uiso   1.00
F999   F     0.95543   0.86068   0.58857   0.00000  Uiso   1.00
Cl1000 Cl    0.89108   0.71248   0.81844   0.00000  Uiso   1.00
Cl1001 Cl    0.77534   0.95515   0.68242   0.00000  Uiso   1.00
F1002  F     0.73422   0.78164   0.68485   0.00000  Uiso   1.00
Cl1003 Cl    0.96958   0.77369   0.67339   0.00000  Uiso   1.00
F1004  F     0.93510   0.90189   0.91784   0.00000  Uiso   1.00
F1005  F     0.97268   0.88206   0.98809   0.00000  Uiso   1.00
F1006  F     0.76794   0.77743   0.55066   0.00000  Uiso   1.00
F1007  F     0.86076   0.89694   0.87731   0.00000  Uiso   1.00
F1008  F     0.88531   0.95744   0.80457   0.00000  Uiso   1.00
loop_
_geom_bond_atom_site_label_1
_geom_bond_atom_site_label_2
_geom_bond_distance
_geom_bond_site_symmetry_2
_ccdc_geom_bond_type
C1     C17     1.450   .     S
C1     O39     1.292   .     A
C1     O40     1.292   .     A
C2     C3      1.422   .     A
C2     C508    1.428   .     S
C2     C532    1.427   .     S
C3     C7      1.411   .     A
C3     C10     1.418   .     A
C4     C8      1.400   .     A
C4     C506    1.428   1_554 S
C4     C509    1.423   1_554 S
C5     C6      1.398   .     A
C5     C508    1.423   .     S
C5     C528    1.410   .     S
C6     C7      1.387   .     A
C6     F52     1.359   .     S
C7     F55     1.356   .     S
C8     H34     1.074   .     S
C8     C25     1.397   .     A
C9     C24     1.393   .     A
C9     C25     1.402   .     A
C9     F47     1.358   .     S
C10    C12     1.472   .     S
C10    C26     1.400   .     A
C11    F56     1.358   .     S
C11    C17     1.405   .     A
C11    C181    1.387   .     S
C12    O41     1.297   .     A
C12    O42     1.298   .     A
C13    Cl48    1.767   .     S
C13    C14     1.407   .     A
C13    C347    1.387   1_545 S
C14    C22     1.446   .     S
C14    C15     1.398   .     A
C15    H31     1.084   .     S
C15    C352    1.385   1_545 S
C16    Cl49    1.765   .     S
C16    C17     1.408   .     A
C16    C183    1.385   .     S
C18    N38     1.367   .     A
C18    H32     1.079   .     S
C18    C75     1.417   .     S
C19    H33     1.082   .     S
C19    N37     1.367   .     A
C19    C130    1.417   1_455 S
C20    F50     1.356   .     S
C20    N37     1.363   .     A
C20    C133    1.415   1_455 S
C21    Cl51    1.757   .     S
C21    N38     1.376   .     A
C21    C76     1.415   .     S
C22    O43     1.292   .     A
C22    O44     1.290   .     A
C23    O46     1.297   .     A
C23    O45     1.296   .     A
C23    C25     1.467   .     S
C24    C509    1.410   1_554 S
C24    F557    1.359   1_554 S
C26    C27     1.385   .     A
C26    H35     1.084   .     S
C27    H36     1.083   .     S
C27    C532    1.391   .     S
C28    F54     1.355   .     S
C28    C506    1.427   1_554 S
C28    C531    1.391   1_554 S
Cu29   O41     1.956   .     S
Cu29   O39     1.964   .     S
Cu29   O43     1.961   .     S
Cu29   Cu30    2.683   .     S
Cu29   N37     2.016   .     S
Cu29   O45     1.942   .     S
Cu30   O44     1.964   .     S
Cu30   O40     1.961   .     S
Cu30   N38     2.016   .     S
Cu30   O42     1.942   .     S
Cu30   O46     1.956   .     S
F53    C528    1.359   .     S
C57    C73     1.450   .     S
C57    O95     1.292   .     A
C57    O96     1.292   .     A
C58    C59     1.422   .     A
C58    C564    1.428   .     S
C58    C588    1.427   .     S
C59    C63     1.411   .     A
C59    C66     1.418   .     A
C60    C64     1.400   .     A
C60    C562    1.428   1_554 S
C60    C565    1.423   1_554 S
C61    C62     1.398   .     A
C61    C564    1.423   .     S
C61    C584    1.410   .     S
C62    C63     1.387   .     A
C62    F108    1.359   .     S
C63    F111    1.356   .     S
C64    H90     1.074   .     S
C64    C81     1.397   .     A
C65    C80     1.393   .     A
C65    C81     1.402   .     A
C65    F103    1.358   .     S
C66    C68     1.472   .     S
C66    C82     1.400   .     A
C67    F112    1.358   .     S
C67    C73     1.405   .     A
C67    C237    1.387   .     S
C68    O97     1.297   .     A
C68    O98     1.298   .     A
C69    Cl104   1.767   .     S
C69    C70     1.407   .     A
C69    C403    1.387   1_545 S
C70    C78     1.446   .     S
C70    C71     1.398   .     A
C71    H87     1.084   .     S
C71    C408    1.385   1_545 S
C72    Cl105   1.765   .     S
C72    C73     1.408   .     A
C72    C239    1.385   .     S
C74    N94     1.367   .     A
C74    H88     1.079   .     S
C74    C131    1.417   .     S
C75    H89     1.082   .     S
C75    N93     1.367   .     A
C76    F106    1.356   .     S
C76    N93     1.363   .     A
C77    Cl107   1.757   .     S
C77    N94     1.376   .     A
C77    C132    1.415   .     S
C78    O99     1.292   .     A
C78    O100    1.290   .     A
C79    O102    1.297   .     A
C79    O101    1.296   .     A
C79    C81     1.467   .     S
C80    C565    1.410   1_554 S
C80    F613    1.359   1_554 S
C82    C83     1.385   .     A
C82    H91     1.084   .     S
C83    H92     1.083   .     S
C83    C588    1.391   .     S
C84    F110    1.355   .     S
C84    C562    1.427   1_554 S
C84    C587    1.391   1_554 S
Cu85   O97     1.956   .     S
Cu85   O95     1.964   .     S
Cu85   O99     1.961   .     S
Cu85   Cu86    2.683   .     S
Cu85   N93     2.016   .     S
Cu85   O101    1.942   .     S
Cu86   O100    1.964   .     S
Cu86   O96     1.961   .     S
Cu86   N94     2.016   .     S
Cu86   O98     1.942   .     S
Cu86   O102    1.956   .     S
F109   C584    1.359   .     S
C113   C129    1.450   .     S
C113   O151    1.292   .     A
C113   O152    1.292   .     A
C114   C115    1.422   .     A
C114   C620    1.428   .     S
C114   C644    1.427   .     S
C115   C119    1.411   .     A
C115   C122    1.418   .     A
C116   C120    1.400   .     A
C116   C618    1.428   1_554 S
C116   C621    1.423   1_554 S
C117   C118    1.398   .     A
C117   C620    1.423   .     S
C117   C640    1.410   .     S
C118   C119    1.387   .     A
C118   F164    1.359   .     S
C119   F167    1.356   .     S
C120   H146    1.074   .     S
C120   C137    1.397   .     A
C121   C136    1.393   .     A
C121   C137    1.402   .     A
C121   F159    1.358   .     S
C122   C124    1.472   .     S
C122   C138    1.400   .     A
C123   F168    1.358   .     S
C123   C129    1.405   .     A
C123   C293    1.387   .     S
C124   O153    1.297   .     A
C124   O154    1.298   .     A
C125   Cl160   1.767   .     S
C125   C126    1.407   .     A
C125   C459    1.387   1_545 S
C126   C134    1.446   .     S
C126   C127    1.398   .     A
C127   H143    1.084   .     S
C127   C464    1.385   1_545 S
C128   Cl161   1.765   .     S
C128   C129    1.408   .     A
C128   C295    1.385   .     S
C130   N150    1.367   .     A
C130   H144    1.079   .     S
C130   C19     1.417   1_655 S
C131   H145    1.082   .     S
C131   N149    1.367   .     A
C132   F162    1.356   .     S
C132   N149    1.363   .     A
C133   Cl163   1.757   .     S
C133   N150    1.376   .     A
C133   C20     1.415   1_655 S
C134   O155    1.292   .     A
C134   O156    1.290   .     A
C135   O158    1.297   .     A
C135   O157    1.296   .     A
C135   C137    1.467   .     S
C136   C621    1.410   1_554 S
C136   F669    1.359   1_554 S
C138   C139    1.385   .     A
C138   H147    1.084   .     S
C139   H148    1.083   .     S
C139   C644    1.391   .     S
C140   F166    1.355   .     S
C140   C618    1.427   1_554 S
C140   C643    1.391   1_554 S
Cu141  O153    1.956   .     S
Cu141  O151    1.964   .     S
Cu141  O155    1.961   .     S
Cu141  Cu142   2.683   .     S
Cu141  N149    2.016   .     S
Cu141  O157    1.942   .     S
Cu142  O156    1.964   .     S
Cu142  O152    1.961   .     S
Cu142  N150    2.016   .     S
Cu142  O154    1.942   .     S
Cu142  O158    1.956   .     S
F165   C640    1.359   .     S
C169   C185    1.450   .     S
C169   O207    1.292   .     A
C169   O208    1.292   .     A
C170   C171    1.422   .     A
C170   C676    1.428   .     S
C170   C700    1.427   .     S
C171   C175    1.411   .     A
C171   C178    1.418   .     A
C172   C176    1.400   .     A
C172   C674    1.428   1_554 S
C172   C677    1.423   1_554 S
C173   C174    1.398   .     A
C173   C676    1.423   .     S
C173   C696    1.410   .     S
C174   C175    1.387   .     A
C174   F220    1.359   .     S
C175   F223    1.356   .     S
C176   H202    1.074   .     S
C176   C193    1.397   .     A
C177   C192    1.393   .     A
C177   C193    1.402   .     A
C177   F215    1.358   .     S
C178   C180    1.472   .     S
C178   C194    1.400   .     A
C179   F224    1.358   .     S
C179   C185    1.405   .     A
C179   C349    1.387   .     S
C180   O209    1.297   .     A
C180   O210    1.298   .     A
C181   Cl216   1.767   .     S
C181   C182    1.407   .     A
C182   C190    1.446   .     S
C182   C183    1.398   .     A
C183   H199    1.084   .     S
C184   Cl217   1.765   .     S
C184   C185    1.408   .     A
C184   C351    1.385   .     S
C186   N206    1.367   .     A
C186   H200    1.079   .     S
C186   C243    1.417   .     S
C187   H201    1.082   .     S
C187   N205    1.367   .     A
C187   C298    1.417   1_455 S
C188   F218    1.356   .     S
C188   N205    1.363   .     A
C188   C301    1.415   1_455 S
C189   Cl219   1.757   .     S
C189   N206    1.376   .     A
C189   C244    1.415   .     S
C190   O211    1.292   .     A
C190   O212    1.290   .     A
C191   O214    1.297   .     A
C191   O213    1.296   .     A
C191   C193    1.467   .     S
C192   C677    1.410   1_554 S
C192   F725    1.359   1_554 S
C194   C195    1.385   .     A
C194   H203    1.084   .     S
C195   H204    1.083   .     S
C195   C700    1.391   .     S
C196   F222    1.355   .     S
C196   C674    1.427   1_554 S
C196   C699    1.391   1_554 S
Cu197  O209    1.956   .     S
Cu197  O207    1.964   .     S
Cu197  O211    1.961   .     S
Cu197  Cu198   2.683   .     S
Cu197  N205    2.016   .     S
Cu197  O213    1.942   .     S
Cu198  O212    1.964   .     S
Cu198  O208    1.961   .     S
Cu198  N206    2.016   .     S
Cu198  O210    1.942   .     S
Cu198  O214    1.956   .     S
F221   C696    1.359   .     S
C225   C241    1.450   .     S
C225   O263    1.292   .     A
C225   O264    1.292   .     A
C226   C227    1.422   .     A
C226   C732    1.428   .     S
C226   C756    1.427   .     S
C227   C231    1.411   .     A
C227   C234    1.418   .     A
C228   C232    1.400   .     A
C228   C730    1.428   1_554 S
C228   C733    1.423   1_554 S
C229   C230    1.398   .     A
C229   C732    1.423   .     S
C229   C752    1.410   .     S
C230   C231    1.387   .     A
C230   F276    1.359   .     S
C231   F279    1.356   .     S
C232   H258    1.074   .     S
C232   C249    1.397   .     A
C233   C248    1.393   .     A
C233   C249    1.402   .     A
C233   F271    1.358   .     S
C234   C236    1.472   .     S
C234   C250    1.400   .     A
C235   F280    1.358   .     S
C235   C241    1.405   .     A
C235   C405    1.387   .     S
C236   O265    1.297   .     A
C236   O266    1.298   .     A
C237   Cl272   1.767   .     S
C237   C238    1.407   .     A
C238   C246    1.446   .     S
C238   C239    1.398   .     A
C239   H255    1.084   .     S
C240   Cl273   1.765   .     S
C240   C241    1.408   .     A
C240   C407    1.385   .     S
C242   N262    1.367   .     A
C242   H256    1.079   .     S
C242   C299    1.417   .     S
C243   H257    1.082   .     S
C243   N261    1.367   .     A
C244   F274    1.356   .     S
C244   N261    1.363   .     A
C245   Cl275   1.757   .     S
C245   N262    1.376   .     A
C245   C300    1.415   .     S
C246   O267    1.292   .     A
C246   O268    1.290   .     A
C247   O270    1.297   .     A
C247   O269    1.296   .     A
C247   C249    1.467   .     S
C248   C733    1.410   1_554 S
C248   F781    1.359   1_554 S
C250   C251    1.385   .     A
C250   H259    1.084   .     S
C251   H260    1.083   .     S
C251   C756    1.391   .     S
C252   F278    1.355   .     S
C252   C730    1.427   1_554 S
C252   C755    1.391   1_554 S
Cu253  O265    1.956   .     S
Cu253  O263    1.964   .     S
Cu253  O267    1.961   .     S
Cu253  Cu254   2.683   .     S
Cu253  N261    2.016   .     S
Cu253  O269    1.942   .     S
Cu254  O268    1.964   .     S
Cu254  O264    1.961   .     S
Cu254  N262    2.016   .     S
Cu254  O266    1.942   .     S
Cu254  O270    1.956   .     S
F277   C752    1.359   .     S
C281   C297    1.450   .     S
C281   O319    1.292   .     A
C281   O320    1.292   .     A
C282   C283    1.422   .     A
C282   C788    1.428   .     S
C282   C812    1.427   .     S
C283   C287    1.411   .     A
C283   C290    1.418   .     A
C284   C288    1.400   .     A
C284   C786    1.428   1_554 S
C284   C789    1.423   1_554 S
C285   C286    1.398   .     A
C285   C788    1.423   .     S
C285   C808    1.410   .     S
C286   C287    1.387   .     A
C286   F332    1.359   .     S
C287   F335    1.356   .     S
C288   H314    1.074   .     S
C288   C305    1.397   .     A
C289   C304    1.393   .     A
C289   C305    1.402   .     A
C289   F327    1.358   .     S
C290   C292    1.472   .     S
C290   C306    1.400   .     A
C291   F336    1.358   .     S
C291   C297    1.405   .     A
C291   C461    1.387   .     S
C292   O321    1.297   .     A
C292   O322    1.298   .     A
C293   Cl328   1.767   .     S
C293   C294    1.407   .     A
C294   C302    1.446   .     S
C294   C295    1.398   .     A
C295   H311    1.084   .     S
C296   Cl329   1.765   .     S
C296   C297    1.408   .     A
C296   C463    1.385   .     S
C298   N318    1.367   .     A
C298   H312    1.079   .     S
C298   C187    1.417   1_655 S
C299   H313    1.082   .     S
C299   N317    1.367   .     A
C300   F330    1.356   .     S
C300   N317    1.363   .     A
C301   Cl331   1.757   .     S
C301   N318    1.376   .     A
C301   C188    1.415   1_655 S
C302   O323    1.292   .     A
C302   O324    1.290   .     A
C303   O326    1.297   .     A
C303   O325    1.296   .     A
C303   C305    1.467   .     S
C304   C789    1.410   1_554 S
C304   F837    1.359   1_554 S
C306   C307    1.385   .     A
C306   H315    1.084   .     S
C307   H316    1.083   .     S
C307   C812    1.391   .     S
C308   F334    1.355   .     S
C308   C786    1.427   1_554 S
C308   C811    1.391   1_554 S
Cu309  O321    1.956   .     S
Cu309  O319    1.964   .     S
Cu309  O323    1.961   .     S
Cu309  Cu310   2.683   .     S
Cu309  N317    2.016   .     S
Cu309  O325    1.942   .     S
Cu310  O324    1.964   .     S
Cu310  O320    1.961   .     S
Cu310  N318    2.016   .     S
Cu310  O322    1.942   .     S
Cu310  O326    1.956   .     S
F333   C808    1.359   .     S
C337   C353    1.450   .     S
C337   O375    1.292   .     A
C337   O376    1.292   .     A
C338   C339    1.422   .     A
C338   C844    1.428   .     S
C338   C868    1.427   .     S
C339   C343    1.411   .     A
C339   C346    1.418   .     A
C340   C344    1.400   .     A
C340   C842    1.428   1_554 S
C340   C845    1.423   1_554 S
C341   C342    1.398   .     A
C341   C844    1.423   .     S
C341   C864    1.410   .     S
C342   C343    1.387   .     A
C342   F388    1.359   .     S
C343   F391    1.356   .     S
C344   H370    1.074   .     S
C344   C361    1.397   .     A
C345   C360    1.393   .     A
C345   C361    1.402   .     A
C345   F383    1.358   .     S
C346   C348    1.472   .     S
C346   C362    1.400   .     A
C347   F392    1.358   .     S
C347   C353    1.405   .     A
C347   C13     1.387   1_565 S
C348   O377    1.297   .     A
C348   O378    1.298   .     A
C349   Cl384   1.767   .     S
C349   C350    1.407   .     A
C350   C358    1.446   .     S
C350   C351    1.398   .     A
C351   H367    1.084   .     S
C352   Cl385   1.765   .     S
C352   C353    1.408   .     A
C352   C15     1.385   1_565 S
C354   N374    1.367   .     A
C354   H368    1.079   .     S
C354   C411    1.417   .     S
C355   H369    1.082   .     S
C355   N373    1.367   .     A
C355   C466    1.417   1_455 S
C356   F386    1.356   .     S
C356   N373    1.363   .     A
C356   C469    1.415   1_455 S
C357   Cl387   1.757   .     S
C357   N374    1.376   .     A
C357   C412    1.415   .     S
C358   O379    1.292   .     A
C358   O380    1.290   .     A
C359   O382    1.297   .     A
C359   O381    1.296   .     A
C359   C361    1.467   .     S
C360   C845    1.410   1_554 S
C360   F893    1.359   1_554 S
C362   C363    1.385   .     A
C362   H371    1.084   .     S
C363   H372    1.083   .     S
C363   C868    1.391   .     S
C364   F390    1.355   .     S
C364   C842    1.427   1_554 S
C364   C867    1.391   1_554 S
Cu365  O377    1.956   .     S
Cu365  O375    1.964   .     S
Cu365  O379    1.961   .     S
Cu365  Cu366   2.683   .     S
Cu365  N373    2.016   .     S
Cu365  O381    1.942   .     S
Cu366  O380    1.964   .     S
Cu366  O376    1.961   .     S
Cu366  N374    2.016   .     S
Cu366  O378    1.942   .     S
Cu366  O382    1.956   .     S
F389   C864    1.359   .     S
C393   C409    1.450   .     S
C393   O431    1.292   .     A
C393   O432    1.292   .     A
C394   C395    1.422   .     A
C394   C900    1.428   .     S
C394   C924    1.427   .     S
C395   C399    1.411   .     A
C395   C402    1.418   .     A
C396   C400    1.400   .     A
C396   C898    1.428   1_554 S
C396   C901    1.423   1_554 S
C397   C398    1.398   .     A
C397   C900    1.423   .     S
C397   C920    1.410   .     S
C398   C399    1.387   .     A
C398   F444    1.359   .     S
C399   F447    1.356   .     S
C400   H426    1.074   .     S
C400   C417    1.397   .     A
C401   C416    1.393   .     A
C401   C417    1.402   .     A
C401   F439    1.358   .     S
C402   C404    1.472   .     S
C402   C418    1.400   .     A
C403   F448    1.358   .     S
C403   C409    1.405   .     A
C403   C69     1.387   1_565 S
C404   O433    1.297   .     A
C404   O434    1.298   .     A
C405   Cl440   1.767   .     S
C405   C406    1.407   .     A
C406   C414    1.446   .     S
C406   C407    1.398   .     A
C407   H423    1.084   .     S
C408   Cl441   1.765   .     S
C408   C409    1.408   .     A
C408   C71     1.385   1_565 S
C410   N430    1.367   .     A
C410   H424    1.079   .     S
C410   C467    1.417   .     S
C411   H425    1.082   .     S
C411   N429    1.367   .     A
C412   F442    1.356   .     S
C412   N429    1.363   .     A
C413   Cl443   1.757   .     S
C413   N430    1.376   .     A
C413   C468    1.415   .     S
C414   O435    1.292   .     A
C414   O436    1.290   .     A
C415   O438    1.297   .     A
C415   O437    1.296   .     A
C415   C417    1.467   .     S
C416   C901    1.410   1_554 S
C416   F949    1.359   1_554 S
C418   C419    1.385   .     A
C418   H427    1.084   .     S
C419   H428    1.083   .     S
C419   C924    1.391   .     S
C420   F446    1.355   .     S
C420   C898    1.427   1_554 S
C420   C923    1.391   1_554 S
Cu421  O433    1.956   .     S
Cu421  O431    1.964   .     S
Cu421  O435    1.961   .     S
Cu421  Cu422   2.683   .     S
Cu421  N429    2.016   .     S
Cu421  O437    1.942   .     S
Cu422  O436    1.964   .     S
Cu422  O432    1.961   .     S
Cu422  N430    2.016   .     S
Cu422  O434    1.942   .     S
Cu422  O438    1.956   .     S
F445   C920    1.359   .     S
C449   C465    1.450   .     S
C449   O487    1.292   .     A
C449   O488    1.292   .     A
C450   C451    1.422   .     A
C450   C956    1.428   .     S
C450   C980    1.427   .     S
C451   C455    1.411   .     A
C451   C458    1.418   .     A
C452   C456    1.400   .     A
C452   C954    1.428   1_554 S
C452   C957    1.423   1_554 S
C453   C454    1.398   .     A
C453   C956    1.423   .     S
C453   C976    1.410   .     S
C454   C455    1.387   .     A
C454   F500    1.359   .     S
C455   F503    1.356   .     S
C456   H482    1.074   .     S
C456   C473    1.397   .     A
C457   C472    1.393   .     A
C457   C473    1.402   .     A
C457   F495    1.358   .     S
C458   C460    1.472   .     S
C458   C474    1.400   .     A
C459   F504    1.358   .     S
C459   C465    1.405   .     A
C459   C125    1.387   1_565 S
C460   O489    1.297   .     A
C460   O490    1.298   .     A
C461   Cl496   1.767   .     S
C461   C462    1.407   .     A
C462   C470    1.446   .     S
C462   C463    1.398   .     A
C463   H479    1.084   .     S
C464   Cl497   1.765   .     S
C464   C465    1.408   .     A
C464   C127    1.385   1_565 S
C466   N486    1.367   .     A
C466   H480    1.079   .     S
C466   C355    1.417   1_655 S
C467   H481    1.082   .     S
C467   N485    1.367   .     A
C468   F498    1.356   .     S
C468   N485    1.363   .     A
C469   Cl499   1.757   .     S
C469   N486    1.376   .     A
C469   C356    1.415   1_655 S
C470   O491    1.292   .     A
C470   O492    1.290   .     A
C471   O494    1.297   .     A
C471   O493    1.296   .     A
C471   C473    1.467   .     S
C472   C957    1.410   1_554 S
C472   F1005   1.359   1_554 S
C474   C475    1.385   .     A
C474   H483    1.084   .     S
C475   H484    1.083   .     S
C475   C980    1.391   .     S
C476   F502    1.355   .     S
C476   C954    1.427   1_554 S
C476   C979    1.391   1_554 S
Cu477  O489    1.956   .     S
Cu477  O487    1.964   .     S
Cu477  O491    1.961   .     S
Cu477  Cu478   2.683   .     S
Cu477  N485    2.016   .     S
Cu477  O493    1.942   .     S
Cu478  O492    1.964   .     S
Cu478  O488    1.961   .     S
Cu478  N486    2.016   .     S
Cu478  O490    1.942   .     S
Cu478  O494    1.956   .     S
F501   C976    1.359   .     S
C505   C521    1.450   .     S
C505   O543    1.292   .     A
C505   O544    1.292   .     A
C506   C507    1.422   .     A
C506   C4      1.428   1_556 S
C506   C28     1.427   1_556 S
C507   C511    1.411   .     A
C507   C514    1.418   .     A
C508   C512    1.400   .     A
C509   C510    1.398   .     A
C509   C4      1.423   1_556 S
C509   C24     1.410   1_556 S
C510   C511    1.387   .     A
C510   F556    1.359   .     S
C511   F559    1.356   .     S
C512   H538    1.074   .     S
C512   C529    1.397   .     A
C513   C528    1.393   .     A
C513   C529    1.402   .     A
C513   F551    1.358   .     S
C514   C516    1.472   .     S
C514   C530    1.400   .     A
C515   F560    1.358   .     S
C515   C521    1.405   .     A
C515   C685    1.387   .     S
C516   O545    1.297   .     A
C516   O546    1.298   .     A
C517   Cl552   1.767   .     S
C517   C518    1.407   .     A
C517   C851    1.387   1_545 S
C518   C526    1.446   .     S
C518   C519    1.398   .     A
C519   H535    1.084   .     S
C519   C856    1.385   1_545 S
C520   Cl553   1.765   .     S
C520   C521    1.408   .     A
C520   C687    1.385   .     S
C522   N542    1.367   .     A
C522   H536    1.079   .     S
C522   C579    1.417   .     S
C523   H537    1.082   .     S
C523   N541    1.367   .     A
C523   C634    1.417   1_455 S
C524   F554    1.356   .     S
C524   N541    1.363   .     A
C524   C637    1.415   1_455 S
C525   Cl555   1.757   .     S
C525   N542    1.376   .     A
C525   C580    1.415   .     S
C526   O547    1.292   .     A
C526   O548    1.290   .     A
C527   O550    1.297   .     A
C527   O549    1.296   .     A
C527   C529    1.467   .     S
C530   C531    1.385   .     A
C530   H539    1.084   .     S
C531   H540    1.083   .     S
C531   C28     1.391   1_556 S
C532   F558    1.355   .     S
Cu533  O545    1.956   .     S
Cu533  O543    1.964   .     S
Cu533  O547    1.961   .     S
Cu533  Cu534   2.683   .     S
Cu533  N541    2.016   .     S
Cu533  O549    1.942   .     S
Cu534  O548    1.964   .     S
Cu534  O544    1.961   .     S
Cu534  N542    2.016   .     S
Cu534  O546    1.942   .     S
Cu534  O550    1.956   .     S
F557   C24     1.359   1_556 S
C561   C577    1.450   .     S
C561   O599    1.292   .     A
C561   O600    1.292   .     A
C562   C563    1.422   .     A
C562   C60     1.428   1_556 S
C562   C84     1.427   1_556 S
C563   C567    1.411   .     A
C563   C570    1.418   .     A
C564   C568    1.400   .     A
C565   C566    1.398   .     A
C565   C60     1.423   1_556 S
C565   C80     1.410   1_556 S
C566   C567    1.387   .     A
C566   F612    1.359   .     S
C567   F615    1.356   .     S
C568   H594    1.074   .     S
C568   C585    1.397   .     A
C569   C584    1.393   .     A
C569   C585    1.402   .     A
C569   F607    1.358   .     S
C570   C572    1.472   .     S
C570   C586    1.400   .     A
C571   F616    1.358   .     S
C571   C577    1.405   .     A
C571   C741    1.387   .     S
C572   O601    1.297   .     A
C572   O602    1.298   .     A
C573   Cl608   1.767   .     S
C573   C574    1.407   .     A
C573   C907    1.387   1_545 S
C574   C582    1.446   .     S
C574   C575    1.398   .     A
C575   H591    1.084   .     S
C575   C912    1.385   1_545 S
C576   Cl609   1.765   .     S
C576   C577    1.408   .     A
C576   C743    1.385   .     S
C578   N598    1.367   .     A
C578   H592    1.079   .     S
C578   C635    1.417   .     S
C579   H593    1.082   .     S
C579   N597    1.367   .     A
C580   F610    1.356   .     S
C580   N597    1.363   .     A
C581   Cl611   1.757   .     S
C581   N598    1.376   .     A
C581   C636    1.415   .     S
C582   O603    1.292   .     A
C582   O604    1.290   .     A
C583   O606    1.297   .     A
C583   O605    1.296   .     A
C583   C585    1.467   .     S
C586   C587    1.385   .     A
C586   H595    1.084   .     S
C587   H596    1.083   .     S
C587   C84     1.391   1_556 S
C588   F614    1.355   .     S
Cu589  O601    1.956   .     S
Cu589  O599    1.964   .     S
Cu589  O603    1.961   .     S
Cu589  Cu590   2.683   .     S
Cu589  N597    2.016   .     S
Cu589  O605    1.942   .     S
Cu590  O604    1.964   .     S
Cu590  O600    1.961   .     S
Cu590  N598    2.016   .     S
Cu590  O602    1.942   .     S
Cu590  O606    1.956   .     S
F613   C80     1.359   1_556 S
C617   C633    1.450   .     S
C617   O655    1.292   .     A
C617   O656    1.292   .     A
C618   C619    1.422   .     A
C618   C116    1.428   1_556 S
C618   C140    1.427   1_556 S
C619   C623    1.411   .     A
C619   C626    1.418   .     A
C620   C624    1.400   .     A
C621   C622    1.398   .     A
C621   C116    1.423   1_556 S
C621   C136    1.410   1_556 S
C622   C623    1.387   .     A
C622   F668    1.359   .     S
C623   F671    1.356   .     S
C624   H650    1.074   .     S
C624   C641    1.397   .     A
C625   C640    1.393   .     A
C625   C641    1.402   .     A
C625   F663    1.358   .     S
C626   C628    1.472   .     S
C626   C642    1.400   .     A
C627   F672    1.358   .     S
C627   C633    1.405   .     A
C627   C797    1.387   .     S
C628   O657    1.297   .     A
C628   O658    1.298   .     A
C629   Cl664   1.767   .     S
C629   C630    1.407   .     A
C629   C963    1.387   1_545 S
C630   C638    1.446   .     S
C630   C631    1.398   .     A
C631   H647    1.084   .     S
C631   C968    1.385   1_545 S
C632   Cl665   1.765   .     S
C632   C633    1.408   .     A
C632   C799    1.385   .     S
C634   N654    1.367   .     A
C634   H648    1.079   .     S
C634   C523    1.417   1_655 S
C635   H649    1.082   .     S
C635   N653    1.367   .     A
C636   F666    1.356   .     S
C636   N653    1.363   .     A
C637   Cl667   1.757   .     S
C637   N654    1.376   .     A
C637   C524    1.415   1_655 S
C638   O659    1.292   .     A
C638   O660    1.290   .     A
C639   O662    1.297   .     A
C639   O661    1.296   .     A
C639   C641    1.467   .     S
C642   C643    1.385   .     A
C642   H651    1.084   .     S
C643   H652    1.083   .     S
C643   C140    1.391   1_556 S
C644   F670    1.355   .     S
Cu645  O657    1.956   .     S
Cu645  O655    1.964   .     S
Cu645  O659    1.961   .     S
Cu645  Cu646   2.683   .     S
Cu645  N653    2.016   .     S
Cu645  O661    1.942   .     S
Cu646  O660    1.964   .     S
Cu646  O656    1.961   .     S
Cu646  N654    2.016   .     S
Cu646  O658    1.942   .     S
Cu646  O662    1.956   .     S
F669   C136    1.359   1_556 S
C673   C689    1.450   .     S
C673   O711    1.292   .     A
C673   O712    1.292   .     A
C674   C675    1.422   .     A
C674   C172    1.428   1_556 S
C674   C196    1.427   1_556 S
C675   C679    1.411   .     A
C675   C682    1.418   .     A
C676   C680    1.400   .     A
C677   C678    1.398   .     A
C677   C172    1.423   1_556 S
C677   C192    1.410   1_556 S
C678   C679    1.387   .     A
C678   F724    1.359   .     S
C679   F727    1.356   .     S
C680   H706    1.074   .     S
C680   C697    1.397   .     A
C681   C696    1.393   .     A
C681   C697    1.402   .     A
C681   F719    1.358   .     S
C682   C684    1.472   .     S
C682   C698    1.400   .     A
C683   F728    1.358   .     S
C683   C689    1.405   .     A
C683   C853    1.387   .     S
C684   O713    1.297   .     A
C684   O714    1.298   .     A
C685   Cl720   1.767   .     S
C685   C686    1.407   .     A
C686   C694    1.446   .     S
C686   C687    1.398   .     A
C687   H703    1.084   .     S
C688   Cl721   1.765   .     S
C688   C689    1.408   .     A
C688   C855    1.385   .     S
C690   N710    1.367   .     A
C690   H704    1.079   .     S
C690   C747    1.417   .     S
C691   H705    1.082   .     S
C691   N709    1.367   .     A
C691   C802    1.417   1_455 S
C692   F722    1.356   .     S
C692   N709    1.363   .     A
C692   C805    1.415   1_455 S
C693   Cl723   1.757   .     S
C693   N710    1.376   .     A
C693   C748    1.415   .     S
C694   O715    1.292   .     A
C694   O716    1.290   .     A
C695   O718    1.297   .     A
C695   O717    1.296   .     A
C695   C697    1.467   .     S
C698   C699    1.385   .     A
C698   H707    1.084   .     S
C699   H708    1.083   .     S
C699   C196    1.391   1_556 S
C700   F726    1.355   .     S
Cu701  O713    1.956   .     S
Cu701  O711    1.964   .     S
Cu701  O715    1.961   .     S
Cu701  Cu702   2.683   .     S
Cu701  N709    2.016   .     S
Cu701  O717    1.942   .     S
Cu702  O716    1.964   .     S
Cu702  O712    1.961   .     S
Cu702  N710    2.016   .     S
Cu702  O714    1.942   .     S
Cu702  O718    1.956   .     S
F725   C192    1.359   1_556 S
C729   C745    1.450   .     S
C729   O767    1.292   .     A
C729   O768    1.292   .     A
C730   C731    1.422   .     A
C730   C228    1.428   1_556 S
C730   C252    1.427   1_556 S
C731   C735    1.411   .     A
C731   C738    1.418   .     A
C732   C736    1.400   .     A
C733   C734    1.398   .     A
C733   C228    1.423   1_556 S
C733   C248    1.410   1_556 S
C734   C735    1.387   .     A
C734   F780    1.359   .     S
C735   F783    1.356   .     S
C736   H762    1.074   .     S
C736   C753    1.397   .     A
C737   C752    1.393   .     A
C737   C753    1.402   .     A
C737   F775    1.358   .     S
C738   C740    1.472   .     S
C738   C754    1.400   .     A
C739   F784    1.358   .     S
C739   C745    1.405   .     A
C739   C909    1.387   .     S
C740   O769    1.297   .     A
C740   O770    1.298   .     A
C741   Cl776   1.767   .     S
C741   C742    1.407   .     A
C742   C750    1.446   .     S
C742   C743    1.398   .     A
C743   H759    1.084   .     S
C744   Cl777   1.765   .     S
C744   C745    1.408   .     A
C744   C911    1.385   .     S
C746   N766    1.367   .     A
C746   H760    1.079   .     S
C746   C803    1.417   .     S
C747   H761    1.082   .     S
C747   N765    1.367   .     A
C748   F778    1.356   .     S
C748   N765    1.363   .     A
C749   Cl779   1.757   .     S
C749   N766    1.376   .     A
C749   C804    1.415   .     S
C750   O771    1.292   .     A
C750   O772    1.290   .     A
C751   O774    1.297   .     A
C751   O773    1.296   .     A
C751   C753    1.467   .     S
C754   C755    1.385   .     A
C754   H763    1.084   .     S
C755   H764    1.083   .     S
C755   C252    1.391   1_556 S
C756   F782    1.355   .     S
Cu757  O769    1.956   .     S
Cu757  O767    1.964   .     S
Cu757  O771    1.961   .     S
Cu757  Cu758   2.683   .     S
Cu757  N765    2.016   .     S
Cu757  O773    1.942   .     S
Cu758  O772    1.964   .     S
Cu758  O768    1.961   .     S
Cu758  N766    2.016   .     S
Cu758  O770    1.942   .     S
Cu758  O774    1.956   .     S
F781   C248    1.359   1_556 S
C785   C801    1.450   .     S
C785   O823    1.292   .     A
C785   O824    1.292   .     A
C786   C787    1.422   .     A
C786   C284    1.428   1_556 S
C786   C308    1.427   1_556 S
C787   C791    1.411   .     A
C787   C794    1.418   .     A
C788   C792    1.400   .     A
C789   C790    1.398   .     A
C789   C284    1.423   1_556 S
C789   C304    1.410   1_556 S
C790   C791    1.387   .     A
C790   F836    1.359   .     S
C791   F839    1.356   .     S
C792   H818    1.074   .     S
C792   C809    1.397   .     A
C793   C808    1.393   .     A
C793   C809    1.402   .     A
C793   F831    1.358   .     S
C794   C796    1.472   .     S
C794   C810    1.400   .     A
C795   F840    1.358   .     S
C795   C801    1.405   .     A
C795   C965    1.387   .     S
C796   O825    1.297   .     A
C796   O826    1.298   .     A
C797   Cl832   1.767   .     S
C797   C798    1.407   .     A
C798   C806    1.446   .     S
C798   C799    1.398   .     A
C799   H815    1.084   .     S
C800   Cl833   1.765   .     S
C800   C801    1.408   .     A
C800   C967    1.385   .     S
C802   N822    1.367   .     A
C802   H816    1.079   .     S
C802   C691    1.417   1_655 S
C803   H817    1.082   .     S
C803   N821    1.367   .     A
C804   F834    1.356   .     S
C804   N821    1.363   .     A
C805   Cl835   1.757   .     S
C805   N822    1.376   .     A
C805   C692    1.415   1_655 S
C806   O827    1.292   .     A
C806   O828    1.290   .     A
C807   O830    1.297   .     A
C807   O829    1.296   .     A
C807   C809    1.467   .     S
C810   C811    1.385   .     A
C810   H819    1.084   .     S
C811   H820    1.083   .     S
C811   C308    1.391   1_556 S
C812   F838    1.355   .     S
Cu813  O825    1.956   .     S
Cu813  O823    1.964   .     S
Cu813  O827    1.961   .     S
Cu813  Cu814   2.683   .     S
Cu813  N821    2.016   .     S
Cu813  O829    1.942   .     S
Cu814  O828    1.964   .     S
Cu814  O824    1.961   .     S
Cu814  N822    2.016   .     S
Cu814  O826    1.942   .     S
Cu814  O830    1.956   .     S
F837   C304    1.359   1_556 S
C841   C857    1.450   .     S
C841   O879    1.292   .     A
C841   O880    1.292   .     A
C842   C843    1.422   .     A
C842   C340    1.428   1_556 S
C842   C364    1.427   1_556 S
C843   C847    1.411   .     A
C843   C850    1.418   .     A
C844   C848    1.400   .     A
C845   C846    1.398   .     A
C845   C340    1.423   1_556 S
C845   C360    1.410   1_556 S
C846   C847    1.387   .     A
C846   F892    1.359   .     S
C847   F895    1.356   .     S
C848   H874    1.074   .     S
C848   C865    1.397   .     A
C849   C864    1.393   .     A
C849   C865    1.402   .     A
C849   F887    1.358   .     S
C850   C852    1.472   .     S
C850   C866    1.400   .     A
C851   F896    1.358   .     S
C851   C857    1.405   .     A
C851   C517    1.387   1_565 S
C852   O881    1.297   .     A
C852   O882    1.298   .     A
C853   Cl888   1.767   .     S
C853   C854    1.407   .     A
C854   C862    1.446   .     S
C854   C855    1.398   .     A
C855   H871    1.084   .     S
C856   Cl889   1.765   .     S
C856   C857    1.408   .     A
C856   C519    1.385   1_565 S
C858   N878    1.367   .     A
C858   H872    1.079   .     S
C858   C915    1.417   .     S
C859   H873    1.082   .     S
C859   N877    1.367   .     A
C859   C970    1.417   1_455 S
C860   F890    1.356   .     S
C860   N877    1.363   .     A
C860   C973    1.415   1_455 S
C861   Cl891   1.757   .     S
C861   N878    1.376   .     A
C861   C916    1.415   .     S
C862   O883    1.292   .     A
C862   O884    1.290   .     A
C863   O886    1.297   .     A
C863   O885    1.296   .     A
C863   C865    1.467   .     S
C866   C867    1.385   .     A
C866   H875    1.084   .     S
C867   H876    1.083   .     S
C867   C364    1.391   1_556 S
C868   F894    1.355   .     S
Cu869  O881    1.956   .     S
Cu869  O879    1.964   .     S
Cu869  O883    1.961   .     S
Cu869  Cu870   2.683   .     S
Cu869  N877    2.016   .     S
Cu869  O885    1.942   .     S
Cu870  O884    1.964   .     S
Cu870  O880    1.961   .     S
Cu870  N878    2.016   .     S
Cu870  O882    1.942   .     S
Cu870  O886    1.956   .     S
F893   C360    1.359   1_556 S
C897   C913    1.450   .     S
C897   O935    1.292   .     A
C897   O936    1.292   .     A
C898   C899    1.422   .     A
C898   C396    1.428   1_556 S
C898   C420    1.427   1_556 S
C899   C903    1.411   .     A
C899   C906    1.418   .     A
C900   C904    1.400   .     A
C901   C902    1.398   .     A
C901   C396    1.423   1_556 S
C901   C416    1.410   1_556 S
C902   C903    1.387   .     A
C902   F948    1.359   .     S
C903   F951    1.356   .     S
C904   H930    1.074   .     S
C904   C921    1.397   .     A
C905   C920    1.393   .     A
C905   C921    1.402   .     A
C905   F943    1.358   .     S
C906   C908    1.472   .     S
C906   C922    1.400   .     A
C907   F952    1.358   .     S
C907   C913    1.405   .     A
C907   C573    1.387   1_565 S
C908   O937    1.297   .     A
C908   O938    1.298   .     A
C909   Cl944   1.767   .     S
C909   C910    1.407   .     A
C910   C918    1.446   .     S
C910   C911    1.398   .     A
C911   H927    1.084   .     S
C912   Cl945   1.765   .     S
C912   C913    1.408   .     A
C912   C575    1.385   1_565 S
C914   N934    1.367   .     A
C914   H928    1.079   .     S
C914   C971    1.417   .     S
C915   H929    1.082   .     S
C915   N933    1.367   .     A
C916   F946    1.356   .     S
C916   N933    1.363   .     A
C917   Cl947   1.757   .     S
C917   N934    1.376   .     A
C917   C972    1.415   .     S
C918   O939    1.292   .     A
C918   O940    1.290   .     A
C919   O942    1.297   .     A
C919   O941    1.296   .     A
C919   C921    1.467   .     S
C922   C923    1.385   .     A
C922   H931    1.084   .     S
C923   H932    1.083   .     S
C923   C420    1.391   1_556 S
C924   F950    1.355   .     S
Cu925  O937    1.956   .     S
Cu925  O935    1.964   .     S
Cu925  O939    1.961   .     S
Cu925  Cu926   2.683   .     S
Cu925  N933    2.016   .     S
Cu925  O941    1.942   .     S
Cu926  O940    1.964   .     S
Cu926  O936    1.961   .     S
Cu926  N934    2.016   .     S
Cu926  O938    1.942   .     S
Cu926  O942    1.956   .     S
F949   C416    1.359   1_556 S
C953   C969    1.450   .     S
C953   O991    1.292   .     A
C953   O992    1.292   .     A
C954   C955    1.422   .     A
C954   C452    1.428   1_556 S
C954   C476    1.427   1_556 S
C955   C959    1.411   .     A
C955   C962    1.418   .     A
C956   C960    1.400   .     A
C957   C958    1.398   .     A
C957   C452    1.423   1_556 S
C957   C472    1.410   1_556 S
C958   C959    1.387   .     A
C958   F1004   1.359   .     S
C959   F1007   1.356   .     S
C960   H986    1.074   .     S
C960   C977    1.397   .     A
C961   C976    1.393   .     A
C961   C977    1.402   .     A
C961   F999    1.358   .     S
C962   C964    1.472   .     S
C962   C978    1.400   .     A
C963   F1008   1.358   .     S
C963   C969    1.405   .     A
C963   C629    1.387   1_565 S
C964   O993    1.297   .     A
C964   O994    1.298   .     A
C965   Cl1000  1.767   .     S
C965   C966    1.407   .     A
C966   C974    1.446   .     S
C966   C967    1.398   .     A
C967   H983    1.084   .     S
C968   Cl1001  1.765   .     S
C968   C969    1.408   .     A
C968   C631    1.385   1_565 S
C970   N990    1.367   .     A
C970   H984    1.079   .     S
C970   C859    1.417   1_655 S
C971   H985    1.082   .     S
C971   N989    1.367   .     A
C972   F1002   1.356   .     S
C972   N989    1.363   .     A
C973   Cl1003  1.757   .     S
C973   N990    1.376   .     A
C973   C860    1.415   1_655 S
C974   O995    1.292   .     A
C974   O996    1.290   .     A
C975   O998    1.297   .     A
C975   O997    1.296   .     A
C975   C977    1.467   .     S
C978   C979    1.385   .     A
C978   H987    1.084   .     S
C979   H988    1.083   .     S
C979   C476    1.391   1_556 S
C980   F1006   1.355   .     S
Cu981  O993    1.956   .     S
Cu981  O991    1.964   .     S
Cu981  O995    1.961   .     S
Cu981  Cu982   2.683   .     S
Cu981  N989    2.016   .     S
Cu981  O997    1.942   .     S
Cu982  O996    1.964   .     S
Cu982  O992    1.961   .     S
Cu982  N990    2.016   .     S
Cu982  O994    1.942   .     S
Cu982  O998    1.956   .     S
F1005  C472    1.359   1_556 S
