data_str_m2_o10_o17_pcu_sym.177
_audit_creation_date              2020-01-03
_audit_creation_method            'Materials Studio'
_symmetry_space_group_name_H-M    'P1'
_symmetry_Int_Tables_number       1
_symmetry_cell_setting            triclinic
loop_
_symmetry_equiv_pos_as_xyz
  x,y,z
_cell_length_a                    30.0632
_cell_length_b                    26.3005
_cell_length_c                    22.2985
_cell_angle_alpha                 102.9290
_cell_angle_beta                  93.7936
_cell_angle_gamma                 92.7110
loop_
_atom_site_label
_atom_site_type_symbol
_atom_site_fract_x
_atom_site_fract_y
_atom_site_fract_z
_atom_site_U_iso_or_equiv
_atom_site_adp_type
_atom_site_occupancy
O1     O     0.25325   0.09538   0.20659   0.00000  Uiso   1.00
O2     O     0.24674   0.23796   0.12674   0.00000  Uiso   1.00
O3     O     0.24480   0.08559   0.10279   0.00000  Uiso   1.00
O4     O     0.25520   0.24774   0.23055   0.00000  Uiso   1.00
C5     C     0.24834   0.06679   0.15128   0.00000  Uiso   1.00
C6     C     0.25161   0.26654   0.18206   0.00000  Uiso   1.00
O7     O     0.18935   0.17155   0.21857   0.00000  Uiso   1.00
O8     O     0.31064   0.16179   0.11476   0.00000  Uiso   1.00
O9     O     0.18090   0.16176   0.11477   0.00000  Uiso   1.00
O10    O     0.31910   0.17157   0.21857   0.00000  Uiso   1.00
C11    C     0.16467   0.16677   0.16773   0.00000  Uiso   1.00
C12    C     0.33533   0.16673   0.16563   0.00000  Uiso   1.00
Cu13   Cu    0.25500   0.17246   0.22813   0.00000  Uiso   1.00
Cu14   Cu    0.24499   0.16087   0.10521   0.00000  Uiso   1.00
C15    C     0.40922   0.21307   0.19092   0.00000  Uiso   1.00
C16    C     0.09063   0.12103   0.14288   0.00000  Uiso   1.00
C17    C     0.38337   0.16716   0.16347   0.00000  Uiso   1.00
C18    C     0.11663   0.16683   0.17002   0.00000  Uiso   1.00
C19    C     0.40290   0.12114   0.13637   0.00000  Uiso   1.00
C20    C     0.09738   0.21327   0.19662   0.00000  Uiso   1.00
C21    C     0.44995   0.12000   0.13882   0.00000  Uiso   1.00
C22    C     0.05023   0.21488   0.19447   0.00000  Uiso   1.00
C23    C     0.47646   0.16700   0.16579   0.00000  Uiso   1.00
C24    C     0.02365   0.16773   0.16764   0.00000  Uiso   1.00
C25    C     0.45584   0.21339   0.19102   0.00000  Uiso   1.00
C26    C     0.04409   0.12105   0.14258   0.00000  Uiso   1.00
C27    C     0.47145   0.07350   0.11645   0.00000  Uiso   1.00
C28    C     0.02820   0.26139   0.21702   0.00000  Uiso   1.00
C29    C     0.01780   0.07469   0.11858   0.00000  Uiso   1.00
C30    C     0.48198   0.25976   0.21502   0.00000  Uiso   1.00
H31    H     0.03296   0.03823   0.10158   0.00000  Uiso   1.00
H32    H     0.46662   0.29606   0.23222   0.00000  Uiso   1.00
C33    C     0.24470   0.01106   0.14278   0.00000  Uiso   1.00
C34    C     0.25518   0.32227   0.19059   0.00000  Uiso   1.00
N35    N     0.23744   0.15214   0.01284   0.00000  Uiso   1.00
N36    N     0.26255   0.18119   0.32049   0.00000  Uiso   1.00
H37    H     0.21521   0.12602   0.31612   0.00000  Uiso   1.00
H38    H     0.28479   0.20732   0.01721   0.00000  Uiso   1.00
N39    N     0.38774   0.25951   0.21774   0.00000  Uiso   1.00
O40    O     0.36099   0.28061   0.18341   0.00000  Uiso   1.00
O41    O     0.39268   0.27871   0.27702   0.00000  Uiso   1.00
N42    N     0.11193   0.07435   0.11639   0.00000  Uiso   1.00
O43    O     0.13872   0.05345   0.15088   0.00000  Uiso   1.00
O44    O     0.10715   0.05505   0.05712   0.00000  Uiso   1.00
N45    N     0.37435   0.07592   0.10733   0.00000  Uiso   1.00
O46    O     0.36521   0.06495   0.04782   0.00000  Uiso   1.00
O47    O     0.35351   0.04946   0.14090   0.00000  Uiso   1.00
N48    N     0.12658   0.25813   0.22471   0.00000  Uiso   1.00
O49    O     0.14167   0.26453   0.28214   0.00000  Uiso   1.00
O50    O     0.14642   0.28418   0.18982   0.00000  Uiso   1.00
N51    N     0.44692   0.02419   0.09272   0.00000  Uiso   1.00
H52    H     0.45702   0.33155   0.11952   0.00000  Uiso   1.00
H53    H     0.45530   0.00947   0.04760   0.00000  Uiso   1.00
N54    N     0.05078   0.31177   0.24114   0.00000  Uiso   1.00
H55    H     0.07009   0.31159   0.28172   0.00000  Uiso   1.00
H56    H     0.06985   0.32221   0.20778   0.00000  Uiso   1.00
N57    N     0.22827   0.31390   0.08266   0.00000  Uiso   1.00
H58    H     0.19717   0.32661   0.07070   0.00000  Uiso   1.00
H59    H     0.25044   0.32052   0.05062   0.00000  Uiso   1.00
N60    N     0.27151   0.01944   0.25075   0.00000  Uiso   1.00
H61    H     0.30261   0.00679   0.26280   0.00000  Uiso   1.00
H62    H     0.24929   0.01276   0.28272   0.00000  Uiso   1.00
O63    O     0.75325   0.09538   0.20659   0.00000  Uiso   1.00
O64    O     0.74674   0.23796   0.12674   0.00000  Uiso   1.00
O65    O     0.74480   0.08559   0.10279   0.00000  Uiso   1.00
O66    O     0.75520   0.24774   0.23055   0.00000  Uiso   1.00
C67    C     0.74834   0.06679   0.15128   0.00000  Uiso   1.00
C68    C     0.75161   0.26654   0.18206   0.00000  Uiso   1.00
O69    O     0.68935   0.17155   0.21857   0.00000  Uiso   1.00
O70    O     0.81064   0.16179   0.11476   0.00000  Uiso   1.00
O71    O     0.68090   0.16176   0.11477   0.00000  Uiso   1.00
O72    O     0.81910   0.17157   0.21857   0.00000  Uiso   1.00
C73    C     0.66467   0.16677   0.16773   0.00000  Uiso   1.00
C74    C     0.83533   0.16673   0.16563   0.00000  Uiso   1.00
Cu75   Cu    0.75500   0.17246   0.22813   0.00000  Uiso   1.00
Cu76   Cu    0.74499   0.16087   0.10521   0.00000  Uiso   1.00
C77    C     0.90922   0.21307   0.19092   0.00000  Uiso   1.00
C78    C     0.59063   0.12103   0.14288   0.00000  Uiso   1.00
C79    C     0.88337   0.16716   0.16347   0.00000  Uiso   1.00
C80    C     0.61663   0.16683   0.17002   0.00000  Uiso   1.00
C81    C     0.90290   0.12114   0.13637   0.00000  Uiso   1.00
C82    C     0.59738   0.21327   0.19662   0.00000  Uiso   1.00
C83    C     0.94995   0.12000   0.13882   0.00000  Uiso   1.00
C84    C     0.55023   0.21488   0.19447   0.00000  Uiso   1.00
C85    C     0.97646   0.16700   0.16579   0.00000  Uiso   1.00
C86    C     0.52365   0.16773   0.16764   0.00000  Uiso   1.00
C87    C     0.95584   0.21339   0.19102   0.00000  Uiso   1.00
C88    C     0.54409   0.12105   0.14258   0.00000  Uiso   1.00
C89    C     0.97145   0.07350   0.11645   0.00000  Uiso   1.00
C90    C     0.52820   0.26139   0.21702   0.00000  Uiso   1.00
C91    C     0.51780   0.07469   0.11858   0.00000  Uiso   1.00
C92    C     0.98198   0.25976   0.21502   0.00000  Uiso   1.00
H93    H     0.53296   0.03823   0.10158   0.00000  Uiso   1.00
H94    H     0.96662   0.29606   0.23222   0.00000  Uiso   1.00
C95    C     0.74470   0.01106   0.14278   0.00000  Uiso   1.00
C96    C     0.75518   0.32227   0.19059   0.00000  Uiso   1.00
N97    N     0.73744   0.15214   0.01284   0.00000  Uiso   1.00
N98    N     0.76255   0.18119   0.32049   0.00000  Uiso   1.00
H99    H     0.71521   0.12602   0.31612   0.00000  Uiso   1.00
H100   H     0.78479   0.20732   0.01721   0.00000  Uiso   1.00
N101   N     0.88774   0.25951   0.21774   0.00000  Uiso   1.00
O102   O     0.86099   0.28061   0.18341   0.00000  Uiso   1.00
O103   O     0.89268   0.27871   0.27702   0.00000  Uiso   1.00
N104   N     0.61193   0.07435   0.11639   0.00000  Uiso   1.00
O105   O     0.63872   0.05345   0.15088   0.00000  Uiso   1.00
O106   O     0.60715   0.05505   0.05712   0.00000  Uiso   1.00
N107   N     0.87435   0.07592   0.10733   0.00000  Uiso   1.00
O108   O     0.86521   0.06495   0.04782   0.00000  Uiso   1.00
O109   O     0.85351   0.04946   0.14090   0.00000  Uiso   1.00
N110   N     0.62658   0.25813   0.22471   0.00000  Uiso   1.00
O111   O     0.64167   0.26453   0.28214   0.00000  Uiso   1.00
O112   O     0.64642   0.28418   0.18982   0.00000  Uiso   1.00
N113   N     0.94692   0.02419   0.09272   0.00000  Uiso   1.00
H114   H     0.95702   0.33155   0.11952   0.00000  Uiso   1.00
H115   H     0.95530   0.00947   0.04760   0.00000  Uiso   1.00
N116   N     0.55078   0.31177   0.24114   0.00000  Uiso   1.00
H117   H     0.57009   0.31159   0.28172   0.00000  Uiso   1.00
H118   H     0.56985   0.32221   0.20778   0.00000  Uiso   1.00
N119   N     0.72827   0.31390   0.08266   0.00000  Uiso   1.00
H120   H     0.69717   0.32661   0.07070   0.00000  Uiso   1.00
H121   H     0.75044   0.32052   0.05062   0.00000  Uiso   1.00
N122   N     0.77151   0.01944   0.25075   0.00000  Uiso   1.00
H123   H     0.80261   0.00679   0.26280   0.00000  Uiso   1.00
H124   H     0.74929   0.01276   0.28272   0.00000  Uiso   1.00
O125   O     0.25325   0.42871   0.20659   0.00000  Uiso   1.00
O126   O     0.24674   0.57129   0.12674   0.00000  Uiso   1.00
O127   O     0.24480   0.41892   0.10279   0.00000  Uiso   1.00
O128   O     0.25520   0.58108   0.23055   0.00000  Uiso   1.00
C129   C     0.24834   0.40012   0.15128   0.00000  Uiso   1.00
C130   C     0.25161   0.59988   0.18206   0.00000  Uiso   1.00
O131   O     0.18935   0.50488   0.21857   0.00000  Uiso   1.00
O132   O     0.31064   0.49512   0.11476   0.00000  Uiso   1.00
O133   O     0.18090   0.49510   0.11477   0.00000  Uiso   1.00
O134   O     0.31910   0.50490   0.21857   0.00000  Uiso   1.00
C135   C     0.16467   0.50011   0.16773   0.00000  Uiso   1.00
C136   C     0.33533   0.50006   0.16563   0.00000  Uiso   1.00
Cu137  Cu    0.25500   0.50579   0.22813   0.00000  Uiso   1.00
Cu138  Cu    0.24499   0.49421   0.10521   0.00000  Uiso   1.00
C139   C     0.40922   0.54640   0.19092   0.00000  Uiso   1.00
C140   C     0.09063   0.45437   0.14288   0.00000  Uiso   1.00
C141   C     0.38337   0.50050   0.16347   0.00000  Uiso   1.00
C142   C     0.11663   0.50016   0.17002   0.00000  Uiso   1.00
C143   C     0.40290   0.45448   0.13637   0.00000  Uiso   1.00
C144   C     0.09738   0.54661   0.19662   0.00000  Uiso   1.00
C145   C     0.44995   0.45334   0.13882   0.00000  Uiso   1.00
C146   C     0.05023   0.54821   0.19447   0.00000  Uiso   1.00
C147   C     0.47646   0.50034   0.16579   0.00000  Uiso   1.00
C148   C     0.02365   0.50106   0.16764   0.00000  Uiso   1.00
C149   C     0.45584   0.54672   0.19102   0.00000  Uiso   1.00
C150   C     0.04409   0.45438   0.14258   0.00000  Uiso   1.00
C151   C     0.47145   0.40683   0.11645   0.00000  Uiso   1.00
C152   C     0.02820   0.59473   0.21702   0.00000  Uiso   1.00
C153   C     0.01780   0.40802   0.11858   0.00000  Uiso   1.00
C154   C     0.48198   0.59309   0.21502   0.00000  Uiso   1.00
H155   H     0.03296   0.37156   0.10158   0.00000  Uiso   1.00
H156   H     0.46662   0.62940   0.23222   0.00000  Uiso   1.00
C157   C     0.24470   0.34440   0.14278   0.00000  Uiso   1.00
C158   C     0.25518   0.65561   0.19059   0.00000  Uiso   1.00
N159   N     0.23744   0.48547   0.01284   0.00000  Uiso   1.00
N160   N     0.26255   0.51453   0.32049   0.00000  Uiso   1.00
H161   H     0.21521   0.45935   0.31612   0.00000  Uiso   1.00
H162   H     0.28479   0.54065   0.01721   0.00000  Uiso   1.00
N163   N     0.38774   0.59285   0.21774   0.00000  Uiso   1.00
O164   O     0.36099   0.61394   0.18341   0.00000  Uiso   1.00
O165   O     0.39268   0.61205   0.27702   0.00000  Uiso   1.00
N166   N     0.11193   0.40768   0.11639   0.00000  Uiso   1.00
O167   O     0.13872   0.38678   0.15088   0.00000  Uiso   1.00
O168   O     0.10715   0.38839   0.05712   0.00000  Uiso   1.00
N169   N     0.37435   0.40925   0.10733   0.00000  Uiso   1.00
O170   O     0.36521   0.39828   0.04782   0.00000  Uiso   1.00
O171   O     0.35351   0.38279   0.14090   0.00000  Uiso   1.00
N172   N     0.12658   0.59146   0.22471   0.00000  Uiso   1.00
O173   O     0.14167   0.59786   0.28214   0.00000  Uiso   1.00
O174   O     0.14642   0.61752   0.18982   0.00000  Uiso   1.00
N175   N     0.44692   0.35752   0.09272   0.00000  Uiso   1.00
H176   H     0.45702   0.66488   0.11952   0.00000  Uiso   1.00
H177   H     0.45530   0.34281   0.04760   0.00000  Uiso   1.00
N178   N     0.05078   0.64510   0.24114   0.00000  Uiso   1.00
H179   H     0.07009   0.64493   0.28172   0.00000  Uiso   1.00
H180   H     0.06985   0.65554   0.20778   0.00000  Uiso   1.00
N181   N     0.22827   0.64723   0.08266   0.00000  Uiso   1.00
H182   H     0.19717   0.65994   0.07070   0.00000  Uiso   1.00
H183   H     0.25044   0.65385   0.05062   0.00000  Uiso   1.00
N184   N     0.27151   0.35277   0.25075   0.00000  Uiso   1.00
H185   H     0.30261   0.34012   0.26280   0.00000  Uiso   1.00
H186   H     0.24929   0.34610   0.28272   0.00000  Uiso   1.00
O187   O     0.75325   0.42871   0.20659   0.00000  Uiso   1.00
O188   O     0.74674   0.57129   0.12674   0.00000  Uiso   1.00
O189   O     0.74480   0.41892   0.10279   0.00000  Uiso   1.00
O190   O     0.75520   0.58108   0.23055   0.00000  Uiso   1.00
C191   C     0.74834   0.40012   0.15128   0.00000  Uiso   1.00
C192   C     0.75161   0.59988   0.18206   0.00000  Uiso   1.00
O193   O     0.68935   0.50488   0.21857   0.00000  Uiso   1.00
O194   O     0.81064   0.49512   0.11476   0.00000  Uiso   1.00
O195   O     0.68090   0.49510   0.11477   0.00000  Uiso   1.00
O196   O     0.81910   0.50490   0.21857   0.00000  Uiso   1.00
C197   C     0.66467   0.50011   0.16773   0.00000  Uiso   1.00
C198   C     0.83533   0.50006   0.16563   0.00000  Uiso   1.00
Cu199  Cu    0.75500   0.50579   0.22813   0.00000  Uiso   1.00
Cu200  Cu    0.74499   0.49421   0.10521   0.00000  Uiso   1.00
C201   C     0.90922   0.54640   0.19092   0.00000  Uiso   1.00
C202   C     0.59063   0.45437   0.14288   0.00000  Uiso   1.00
C203   C     0.88337   0.50050   0.16347   0.00000  Uiso   1.00
C204   C     0.61663   0.50016   0.17002   0.00000  Uiso   1.00
C205   C     0.90290   0.45448   0.13637   0.00000  Uiso   1.00
C206   C     0.59738   0.54661   0.19662   0.00000  Uiso   1.00
C207   C     0.94995   0.45334   0.13882   0.00000  Uiso   1.00
C208   C     0.55023   0.54821   0.19447   0.00000  Uiso   1.00
C209   C     0.97646   0.50034   0.16579   0.00000  Uiso   1.00
C210   C     0.52365   0.50106   0.16764   0.00000  Uiso   1.00
C211   C     0.95584   0.54672   0.19102   0.00000  Uiso   1.00
C212   C     0.54409   0.45438   0.14258   0.00000  Uiso   1.00
C213   C     0.97145   0.40683   0.11645   0.00000  Uiso   1.00
C214   C     0.52820   0.59473   0.21702   0.00000  Uiso   1.00
C215   C     0.51780   0.40802   0.11858   0.00000  Uiso   1.00
C216   C     0.98198   0.59309   0.21502   0.00000  Uiso   1.00
H217   H     0.53296   0.37156   0.10158   0.00000  Uiso   1.00
H218   H     0.96662   0.62940   0.23222   0.00000  Uiso   1.00
C219   C     0.74470   0.34440   0.14278   0.00000  Uiso   1.00
C220   C     0.75518   0.65561   0.19059   0.00000  Uiso   1.00
N221   N     0.73744   0.48547   0.01284   0.00000  Uiso   1.00
N222   N     0.76255   0.51453   0.32049   0.00000  Uiso   1.00
H223   H     0.71521   0.45935   0.31612   0.00000  Uiso   1.00
H224   H     0.78479   0.54065   0.01721   0.00000  Uiso   1.00
N225   N     0.88774   0.59285   0.21774   0.00000  Uiso   1.00
O226   O     0.86099   0.61394   0.18341   0.00000  Uiso   1.00
O227   O     0.89268   0.61205   0.27702   0.00000  Uiso   1.00
N228   N     0.61193   0.40768   0.11639   0.00000  Uiso   1.00
O229   O     0.63872   0.38678   0.15088   0.00000  Uiso   1.00
O230   O     0.60715   0.38839   0.05712   0.00000  Uiso   1.00
N231   N     0.87435   0.40925   0.10733   0.00000  Uiso   1.00
O232   O     0.86521   0.39828   0.04782   0.00000  Uiso   1.00
O233   O     0.85351   0.38279   0.14090   0.00000  Uiso   1.00
N234   N     0.62658   0.59146   0.22471   0.00000  Uiso   1.00
O235   O     0.64167   0.59786   0.28214   0.00000  Uiso   1.00
O236   O     0.64642   0.61752   0.18982   0.00000  Uiso   1.00
N237   N     0.94692   0.35752   0.09272   0.00000  Uiso   1.00
H238   H     0.95702   0.66488   0.11952   0.00000  Uiso   1.00
H239   H     0.95530   0.34281   0.04760   0.00000  Uiso   1.00
N240   N     0.55078   0.64510   0.24114   0.00000  Uiso   1.00
H241   H     0.57009   0.64493   0.28172   0.00000  Uiso   1.00
H242   H     0.56985   0.65554   0.20778   0.00000  Uiso   1.00
N243   N     0.72827   0.64723   0.08266   0.00000  Uiso   1.00
H244   H     0.69717   0.65994   0.07070   0.00000  Uiso   1.00
H245   H     0.75044   0.65385   0.05062   0.00000  Uiso   1.00
N246   N     0.77151   0.35277   0.25075   0.00000  Uiso   1.00
H247   H     0.80261   0.34012   0.26280   0.00000  Uiso   1.00
H248   H     0.74929   0.34610   0.28272   0.00000  Uiso   1.00
O249   O     0.25325   0.76204   0.20659   0.00000  Uiso   1.00
O250   O     0.24674   0.90462   0.12674   0.00000  Uiso   1.00
O251   O     0.24480   0.75226   0.10279   0.00000  Uiso   1.00
O252   O     0.25520   0.91441   0.23055   0.00000  Uiso   1.00
C253   C     0.24834   0.73345   0.15128   0.00000  Uiso   1.00
C254   C     0.25161   0.93321   0.18206   0.00000  Uiso   1.00
O255   O     0.18935   0.83821   0.21857   0.00000  Uiso   1.00
O256   O     0.31064   0.82845   0.11476   0.00000  Uiso   1.00
O257   O     0.18090   0.82843   0.11477   0.00000  Uiso   1.00
O258   O     0.31910   0.83824   0.21857   0.00000  Uiso   1.00
C259   C     0.16467   0.83344   0.16773   0.00000  Uiso   1.00
C260   C     0.33533   0.83340   0.16563   0.00000  Uiso   1.00
Cu261  Cu    0.25500   0.83913   0.22813   0.00000  Uiso   1.00
Cu262  Cu    0.24499   0.82754   0.10521   0.00000  Uiso   1.00
C263   C     0.40922   0.87974   0.19092   0.00000  Uiso   1.00
C264   C     0.09063   0.78770   0.14288   0.00000  Uiso   1.00
C265   C     0.38337   0.83383   0.16347   0.00000  Uiso   1.00
C266   C     0.11663   0.83349   0.17002   0.00000  Uiso   1.00
C267   C     0.40290   0.78781   0.13637   0.00000  Uiso   1.00
C268   C     0.09738   0.87994   0.19662   0.00000  Uiso   1.00
C269   C     0.44995   0.78667   0.13882   0.00000  Uiso   1.00
C270   C     0.05023   0.88155   0.19447   0.00000  Uiso   1.00
C271   C     0.47646   0.83367   0.16579   0.00000  Uiso   1.00
C272   C     0.02365   0.83439   0.16764   0.00000  Uiso   1.00
C273   C     0.45584   0.88006   0.19102   0.00000  Uiso   1.00
C274   C     0.04409   0.78772   0.14258   0.00000  Uiso   1.00
C275   C     0.47145   0.74016   0.11645   0.00000  Uiso   1.00
C276   C     0.02820   0.92806   0.21702   0.00000  Uiso   1.00
C277   C     0.01780   0.74135   0.11858   0.00000  Uiso   1.00
C278   C     0.48198   0.92642   0.21502   0.00000  Uiso   1.00
H279   H     0.03296   0.70490   0.10158   0.00000  Uiso   1.00
H280   H     0.46662   0.96273   0.23222   0.00000  Uiso   1.00
C281   C     0.24470   0.67773   0.14278   0.00000  Uiso   1.00
C282   C     0.25518   0.98894   0.19059   0.00000  Uiso   1.00
N283   N     0.23744   0.81881   0.01284   0.00000  Uiso   1.00
N284   N     0.26255   0.84786   0.32049   0.00000  Uiso   1.00
H285   H     0.21521   0.79269   0.31612   0.00000  Uiso   1.00
H286   H     0.28479   0.87398   0.01721   0.00000  Uiso   1.00
N287   N     0.38774   0.92618   0.21774   0.00000  Uiso   1.00
O288   O     0.36099   0.94727   0.18341   0.00000  Uiso   1.00
O289   O     0.39268   0.94538   0.27702   0.00000  Uiso   1.00
N290   N     0.11193   0.74102   0.11639   0.00000  Uiso   1.00
O291   O     0.13872   0.72012   0.15088   0.00000  Uiso   1.00
O292   O     0.10715   0.72172   0.05712   0.00000  Uiso   1.00
N293   N     0.37435   0.74259   0.10733   0.00000  Uiso   1.00
O294   O     0.36521   0.73162   0.04782   0.00000  Uiso   1.00
O295   O     0.35351   0.71613   0.14090   0.00000  Uiso   1.00
N296   N     0.12658   0.92479   0.22471   0.00000  Uiso   1.00
O297   O     0.14167   0.93120   0.28214   0.00000  Uiso   1.00
O298   O     0.14642   0.95085   0.18982   0.00000  Uiso   1.00
N299   N     0.44692   0.69085   0.09272   0.00000  Uiso   1.00
H300   H     0.45702   0.99821   0.11952   0.00000  Uiso   1.00
H301   H     0.45530   0.67614   0.04760   0.00000  Uiso   1.00
N302   N     0.05078   0.97844   0.24114   0.00000  Uiso   1.00
H303   H     0.07009   0.97826   0.28172   0.00000  Uiso   1.00
H304   H     0.06985   0.98887   0.20778   0.00000  Uiso   1.00
N305   N     0.22827   0.98057   0.08266   0.00000  Uiso   1.00
H306   H     0.19717   0.99328   0.07070   0.00000  Uiso   1.00
H307   H     0.25044   0.98719   0.05062   0.00000  Uiso   1.00
N308   N     0.27151   0.68610   0.25075   0.00000  Uiso   1.00
H309   H     0.30261   0.67346   0.26280   0.00000  Uiso   1.00
H310   H     0.24929   0.67943   0.28272   0.00000  Uiso   1.00
O311   O     0.75325   0.76204   0.20659   0.00000  Uiso   1.00
O312   O     0.74674   0.90462   0.12674   0.00000  Uiso   1.00
O313   O     0.74480   0.75226   0.10279   0.00000  Uiso   1.00
O314   O     0.75520   0.91441   0.23055   0.00000  Uiso   1.00
C315   C     0.74834   0.73345   0.15128   0.00000  Uiso   1.00
C316   C     0.75161   0.93321   0.18206   0.00000  Uiso   1.00
O317   O     0.68935   0.83821   0.21857   0.00000  Uiso   1.00
O318   O     0.81064   0.82845   0.11476   0.00000  Uiso   1.00
O319   O     0.68090   0.82843   0.11477   0.00000  Uiso   1.00
O320   O     0.81910   0.83824   0.21857   0.00000  Uiso   1.00
C321   C     0.66467   0.83344   0.16773   0.00000  Uiso   1.00
C322   C     0.83533   0.83340   0.16563   0.00000  Uiso   1.00
Cu323  Cu    0.75500   0.83913   0.22813   0.00000  Uiso   1.00
Cu324  Cu    0.74499   0.82754   0.10521   0.00000  Uiso   1.00
C325   C     0.90922   0.87974   0.19092   0.00000  Uiso   1.00
C326   C     0.59063   0.78770   0.14288   0.00000  Uiso   1.00
C327   C     0.88337   0.83383   0.16347   0.00000  Uiso   1.00
C328   C     0.61663   0.83349   0.17002   0.00000  Uiso   1.00
C329   C     0.90290   0.78781   0.13637   0.00000  Uiso   1.00
C330   C     0.59738   0.87994   0.19662   0.00000  Uiso   1.00
C331   C     0.94995   0.78667   0.13882   0.00000  Uiso   1.00
C332   C     0.55023   0.88155   0.19447   0.00000  Uiso   1.00
C333   C     0.97646   0.83367   0.16579   0.00000  Uiso   1.00
C334   C     0.52365   0.83439   0.16764   0.00000  Uiso   1.00
C335   C     0.95584   0.88006   0.19102   0.00000  Uiso   1.00
C336   C     0.54409   0.78772   0.14258   0.00000  Uiso   1.00
C337   C     0.97145   0.74016   0.11645   0.00000  Uiso   1.00
C338   C     0.52820   0.92806   0.21702   0.00000  Uiso   1.00
C339   C     0.51780   0.74135   0.11858   0.00000  Uiso   1.00
C340   C     0.98198   0.92642   0.21502   0.00000  Uiso   1.00
H341   H     0.53296   0.70490   0.10158   0.00000  Uiso   1.00
H342   H     0.96662   0.96273   0.23222   0.00000  Uiso   1.00
C343   C     0.74470   0.67773   0.14278   0.00000  Uiso   1.00
C344   C     0.75518   0.98894   0.19059   0.00000  Uiso   1.00
N345   N     0.73744   0.81881   0.01284   0.00000  Uiso   1.00
N346   N     0.76255   0.84786   0.32049   0.00000  Uiso   1.00
H347   H     0.71521   0.79269   0.31612   0.00000  Uiso   1.00
H348   H     0.78479   0.87398   0.01721   0.00000  Uiso   1.00
N349   N     0.88774   0.92618   0.21774   0.00000  Uiso   1.00
O350   O     0.86099   0.94727   0.18341   0.00000  Uiso   1.00
O351   O     0.89268   0.94538   0.27702   0.00000  Uiso   1.00
N352   N     0.61193   0.74102   0.11639   0.00000  Uiso   1.00
O353   O     0.63872   0.72012   0.15088   0.00000  Uiso   1.00
O354   O     0.60715   0.72172   0.05712   0.00000  Uiso   1.00
N355   N     0.87435   0.74259   0.10733   0.00000  Uiso   1.00
O356   O     0.86521   0.73162   0.04782   0.00000  Uiso   1.00
O357   O     0.85351   0.71613   0.14090   0.00000  Uiso   1.00
N358   N     0.62658   0.92479   0.22471   0.00000  Uiso   1.00
O359   O     0.64167   0.93120   0.28214   0.00000  Uiso   1.00
O360   O     0.64642   0.95085   0.18982   0.00000  Uiso   1.00
N361   N     0.94692   0.69085   0.09272   0.00000  Uiso   1.00
H362   H     0.95702   0.99821   0.11952   0.00000  Uiso   1.00
H363   H     0.95530   0.67614   0.04760   0.00000  Uiso   1.00
N364   N     0.55078   0.97844   0.24114   0.00000  Uiso   1.00
H365   H     0.57009   0.97826   0.28172   0.00000  Uiso   1.00
H366   H     0.56985   0.98887   0.20778   0.00000  Uiso   1.00
N367   N     0.72827   0.98057   0.08266   0.00000  Uiso   1.00
H368   H     0.69717   0.99328   0.07070   0.00000  Uiso   1.00
H369   H     0.75044   0.98719   0.05062   0.00000  Uiso   1.00
N370   N     0.77151   0.68610   0.25075   0.00000  Uiso   1.00
H371   H     0.80261   0.67346   0.26280   0.00000  Uiso   1.00
H372   H     0.74929   0.67943   0.28272   0.00000  Uiso   1.00
O373   O     0.25325   0.09538   0.53992   0.00000  Uiso   1.00
O374   O     0.24674   0.23796   0.46008   0.00000  Uiso   1.00
O375   O     0.24480   0.08559   0.43612   0.00000  Uiso   1.00
O376   O     0.25520   0.24774   0.56388   0.00000  Uiso   1.00
C377   C     0.24834   0.06679   0.48461   0.00000  Uiso   1.00
C378   C     0.25161   0.26654   0.51539   0.00000  Uiso   1.00
O379   O     0.18935   0.17155   0.55191   0.00000  Uiso   1.00
O380   O     0.31064   0.16179   0.44809   0.00000  Uiso   1.00
O381   O     0.18090   0.16176   0.44810   0.00000  Uiso   1.00
O382   O     0.31910   0.17157   0.55190   0.00000  Uiso   1.00
C383   C     0.16467   0.16677   0.50107   0.00000  Uiso   1.00
C384   C     0.33533   0.16673   0.49896   0.00000  Uiso   1.00
Cu385  Cu    0.25500   0.17246   0.56146   0.00000  Uiso   1.00
Cu386  Cu    0.24499   0.16087   0.43854   0.00000  Uiso   1.00
C387   C     0.40922   0.21307   0.52426   0.00000  Uiso   1.00
C388   C     0.09063   0.12103   0.47621   0.00000  Uiso   1.00
C389   C     0.38337   0.16716   0.49680   0.00000  Uiso   1.00
C390   C     0.11663   0.16683   0.50335   0.00000  Uiso   1.00
C391   C     0.40290   0.12114   0.46970   0.00000  Uiso   1.00
C392   C     0.09738   0.21327   0.52995   0.00000  Uiso   1.00
C393   C     0.44995   0.12000   0.47215   0.00000  Uiso   1.00
C394   C     0.05023   0.21488   0.52780   0.00000  Uiso   1.00
C395   C     0.47646   0.16700   0.49913   0.00000  Uiso   1.00
C396   C     0.02365   0.16773   0.50097   0.00000  Uiso   1.00
C397   C     0.45584   0.21339   0.52436   0.00000  Uiso   1.00
C398   C     0.04409   0.12105   0.47591   0.00000  Uiso   1.00
C399   C     0.47145   0.07350   0.44978   0.00000  Uiso   1.00
C400   C     0.02820   0.26139   0.55035   0.00000  Uiso   1.00
C401   C     0.01780   0.07469   0.45191   0.00000  Uiso   1.00
C402   C     0.48198   0.25976   0.54835   0.00000  Uiso   1.00
H403   H     0.03296   0.03823   0.43491   0.00000  Uiso   1.00
H404   H     0.46662   0.29606   0.56556   0.00000  Uiso   1.00
C405   C     0.24470   0.01106   0.47611   0.00000  Uiso   1.00
C406   C     0.25518   0.32227   0.52392   0.00000  Uiso   1.00
N407   N     0.23744   0.15214   0.34617   0.00000  Uiso   1.00
N408   N     0.26255   0.18119   0.65383   0.00000  Uiso   1.00
H409   H     0.21521   0.12602   0.64945   0.00000  Uiso   1.00
H410   H     0.28479   0.20732   0.35055   0.00000  Uiso   1.00
N411   N     0.38774   0.25951   0.55107   0.00000  Uiso   1.00
O412   O     0.36099   0.28061   0.51674   0.00000  Uiso   1.00
O413   O     0.39268   0.27871   0.61035   0.00000  Uiso   1.00
N414   N     0.11193   0.07435   0.44972   0.00000  Uiso   1.00
O415   O     0.13872   0.05345   0.48421   0.00000  Uiso   1.00
O416   O     0.10715   0.05505   0.39045   0.00000  Uiso   1.00
N417   N     0.37435   0.07592   0.44066   0.00000  Uiso   1.00
O418   O     0.36521   0.06495   0.38115   0.00000  Uiso   1.00
O419   O     0.35351   0.04946   0.47423   0.00000  Uiso   1.00
N420   N     0.12658   0.25813   0.55805   0.00000  Uiso   1.00
O421   O     0.14167   0.26453   0.61547   0.00000  Uiso   1.00
O422   O     0.14642   0.28418   0.52315   0.00000  Uiso   1.00
N423   N     0.44692   0.02419   0.42605   0.00000  Uiso   1.00
H424   H     0.45702   0.33155   0.45285   0.00000  Uiso   1.00
H425   H     0.45530   0.00947   0.38093   0.00000  Uiso   1.00
N426   N     0.05078   0.31177   0.57448   0.00000  Uiso   1.00
H427   H     0.07009   0.31159   0.61506   0.00000  Uiso   1.00
H428   H     0.06985   0.32221   0.54111   0.00000  Uiso   1.00
N429   N     0.22827   0.31390   0.41599   0.00000  Uiso   1.00
H430   H     0.19717   0.32661   0.40403   0.00000  Uiso   1.00
H431   H     0.25044   0.32052   0.38395   0.00000  Uiso   1.00
N432   N     0.27151   0.01944   0.58409   0.00000  Uiso   1.00
H433   H     0.30261   0.00679   0.59614   0.00000  Uiso   1.00
H434   H     0.24929   0.01276   0.61605   0.00000  Uiso   1.00
O435   O     0.75325   0.09538   0.53992   0.00000  Uiso   1.00
O436   O     0.74674   0.23796   0.46008   0.00000  Uiso   1.00
O437   O     0.74480   0.08559   0.43612   0.00000  Uiso   1.00
O438   O     0.75520   0.24774   0.56388   0.00000  Uiso   1.00
C439   C     0.74834   0.06679   0.48461   0.00000  Uiso   1.00
C440   C     0.75161   0.26654   0.51539   0.00000  Uiso   1.00
O441   O     0.68935   0.17155   0.55191   0.00000  Uiso   1.00
O442   O     0.81064   0.16179   0.44809   0.00000  Uiso   1.00
O443   O     0.68090   0.16176   0.44810   0.00000  Uiso   1.00
O444   O     0.81910   0.17157   0.55190   0.00000  Uiso   1.00
C445   C     0.66467   0.16677   0.50107   0.00000  Uiso   1.00
C446   C     0.83533   0.16673   0.49896   0.00000  Uiso   1.00
Cu447  Cu    0.75500   0.17246   0.56146   0.00000  Uiso   1.00
Cu448  Cu    0.74499   0.16087   0.43854   0.00000  Uiso   1.00
C449   C     0.90922   0.21307   0.52426   0.00000  Uiso   1.00
C450   C     0.59063   0.12103   0.47621   0.00000  Uiso   1.00
C451   C     0.88337   0.16716   0.49680   0.00000  Uiso   1.00
C452   C     0.61663   0.16683   0.50335   0.00000  Uiso   1.00
C453   C     0.90290   0.12114   0.46970   0.00000  Uiso   1.00
C454   C     0.59738   0.21327   0.52995   0.00000  Uiso   1.00
C455   C     0.94995   0.12000   0.47215   0.00000  Uiso   1.00
C456   C     0.55023   0.21488   0.52780   0.00000  Uiso   1.00
C457   C     0.97646   0.16700   0.49913   0.00000  Uiso   1.00
C458   C     0.52365   0.16773   0.50097   0.00000  Uiso   1.00
C459   C     0.95584   0.21339   0.52436   0.00000  Uiso   1.00
C460   C     0.54409   0.12105   0.47591   0.00000  Uiso   1.00
C461   C     0.97145   0.07350   0.44978   0.00000  Uiso   1.00
C462   C     0.52820   0.26139   0.55035   0.00000  Uiso   1.00
C463   C     0.51780   0.07469   0.45191   0.00000  Uiso   1.00
C464   C     0.98198   0.25976   0.54835   0.00000  Uiso   1.00
H465   H     0.53296   0.03823   0.43491   0.00000  Uiso   1.00
H466   H     0.96662   0.29606   0.56556   0.00000  Uiso   1.00
C467   C     0.74470   0.01106   0.47611   0.00000  Uiso   1.00
C468   C     0.75518   0.32227   0.52392   0.00000  Uiso   1.00
N469   N     0.73744   0.15214   0.34617   0.00000  Uiso   1.00
N470   N     0.76255   0.18119   0.65383   0.00000  Uiso   1.00
H471   H     0.71521   0.12602   0.64945   0.00000  Uiso   1.00
H472   H     0.78479   0.20732   0.35055   0.00000  Uiso   1.00
N473   N     0.88774   0.25951   0.55107   0.00000  Uiso   1.00
O474   O     0.86099   0.28061   0.51674   0.00000  Uiso   1.00
O475   O     0.89268   0.27871   0.61035   0.00000  Uiso   1.00
N476   N     0.61193   0.07435   0.44972   0.00000  Uiso   1.00
O477   O     0.63872   0.05345   0.48421   0.00000  Uiso   1.00
O478   O     0.60715   0.05505   0.39045   0.00000  Uiso   1.00
N479   N     0.87435   0.07592   0.44066   0.00000  Uiso   1.00
O480   O     0.86521   0.06495   0.38115   0.00000  Uiso   1.00
O481   O     0.85351   0.04946   0.47423   0.00000  Uiso   1.00
N482   N     0.62658   0.25813   0.55805   0.00000  Uiso   1.00
O483   O     0.64167   0.26453   0.61547   0.00000  Uiso   1.00
O484   O     0.64642   0.28418   0.52315   0.00000  Uiso   1.00
N485   N     0.94692   0.02419   0.42605   0.00000  Uiso   1.00
H486   H     0.95702   0.33155   0.45285   0.00000  Uiso   1.00
H487   H     0.95530   0.00947   0.38093   0.00000  Uiso   1.00
N488   N     0.55078   0.31177   0.57448   0.00000  Uiso   1.00
H489   H     0.57009   0.31159   0.61506   0.00000  Uiso   1.00
H490   H     0.56985   0.32221   0.54111   0.00000  Uiso   1.00
N491   N     0.72827   0.31390   0.41599   0.00000  Uiso   1.00
H492   H     0.69717   0.32661   0.40403   0.00000  Uiso   1.00
H493   H     0.75044   0.32052   0.38395   0.00000  Uiso   1.00
N494   N     0.77151   0.01944   0.58409   0.00000  Uiso   1.00
H495   H     0.80261   0.00679   0.59614   0.00000  Uiso   1.00
H496   H     0.74929   0.01276   0.61605   0.00000  Uiso   1.00
O497   O     0.25325   0.42871   0.53992   0.00000  Uiso   1.00
O498   O     0.24674   0.57129   0.46008   0.00000  Uiso   1.00
O499   O     0.24480   0.41892   0.43612   0.00000  Uiso   1.00
O500   O     0.25520   0.58108   0.56388   0.00000  Uiso   1.00
C501   C     0.24834   0.40012   0.48461   0.00000  Uiso   1.00
C502   C     0.25161   0.59988   0.51539   0.00000  Uiso   1.00
O503   O     0.18935   0.50488   0.55191   0.00000  Uiso   1.00
O504   O     0.31064   0.49512   0.44809   0.00000  Uiso   1.00
O505   O     0.18090   0.49510   0.44810   0.00000  Uiso   1.00
O506   O     0.31910   0.50490   0.55190   0.00000  Uiso   1.00
C507   C     0.16467   0.50011   0.50107   0.00000  Uiso   1.00
C508   C     0.33533   0.50006   0.49896   0.00000  Uiso   1.00
Cu509  Cu    0.25500   0.50579   0.56146   0.00000  Uiso   1.00
Cu510  Cu    0.24499   0.49421   0.43854   0.00000  Uiso   1.00
C511   C     0.40922   0.54640   0.52426   0.00000  Uiso   1.00
C512   C     0.09063   0.45437   0.47621   0.00000  Uiso   1.00
C513   C     0.38337   0.50050   0.49680   0.00000  Uiso   1.00
C514   C     0.11663   0.50016   0.50335   0.00000  Uiso   1.00
C515   C     0.40290   0.45448   0.46970   0.00000  Uiso   1.00
C516   C     0.09738   0.54661   0.52995   0.00000  Uiso   1.00
C517   C     0.44995   0.45334   0.47215   0.00000  Uiso   1.00
C518   C     0.05023   0.54821   0.52780   0.00000  Uiso   1.00
C519   C     0.47646   0.50034   0.49913   0.00000  Uiso   1.00
C520   C     0.02365   0.50106   0.50097   0.00000  Uiso   1.00
C521   C     0.45584   0.54672   0.52436   0.00000  Uiso   1.00
C522   C     0.04409   0.45438   0.47591   0.00000  Uiso   1.00
C523   C     0.47145   0.40683   0.44978   0.00000  Uiso   1.00
C524   C     0.02820   0.59473   0.55035   0.00000  Uiso   1.00
C525   C     0.01780   0.40802   0.45191   0.00000  Uiso   1.00
C526   C     0.48198   0.59309   0.54835   0.00000  Uiso   1.00
H527   H     0.03296   0.37156   0.43491   0.00000  Uiso   1.00
H528   H     0.46662   0.62940   0.56556   0.00000  Uiso   1.00
C529   C     0.24470   0.34440   0.47611   0.00000  Uiso   1.00
C530   C     0.25518   0.65561   0.52392   0.00000  Uiso   1.00
N531   N     0.23744   0.48547   0.34617   0.00000  Uiso   1.00
N532   N     0.26255   0.51453   0.65383   0.00000  Uiso   1.00
H533   H     0.21521   0.45935   0.64945   0.00000  Uiso   1.00
H534   H     0.28479   0.54065   0.35055   0.00000  Uiso   1.00
N535   N     0.38774   0.59285   0.55107   0.00000  Uiso   1.00
O536   O     0.36099   0.61394   0.51674   0.00000  Uiso   1.00
O537   O     0.39268   0.61205   0.61035   0.00000  Uiso   1.00
N538   N     0.11193   0.40768   0.44972   0.00000  Uiso   1.00
O539   O     0.13872   0.38678   0.48421   0.00000  Uiso   1.00
O540   O     0.10715   0.38839   0.39045   0.00000  Uiso   1.00
N541   N     0.37435   0.40925   0.44066   0.00000  Uiso   1.00
O542   O     0.36521   0.39828   0.38115   0.00000  Uiso   1.00
O543   O     0.35351   0.38279   0.47423   0.00000  Uiso   1.00
N544   N     0.12658   0.59146   0.55805   0.00000  Uiso   1.00
O545   O     0.14167   0.59786   0.61547   0.00000  Uiso   1.00
O546   O     0.14642   0.61752   0.52315   0.00000  Uiso   1.00
N547   N     0.44692   0.35752   0.42605   0.00000  Uiso   1.00
H548   H     0.45702   0.66488   0.45285   0.00000  Uiso   1.00
H549   H     0.45530   0.34281   0.38093   0.00000  Uiso   1.00
N550   N     0.05078   0.64510   0.57448   0.00000  Uiso   1.00
H551   H     0.07009   0.64493   0.61506   0.00000  Uiso   1.00
H552   H     0.06985   0.65554   0.54111   0.00000  Uiso   1.00
N553   N     0.22827   0.64723   0.41599   0.00000  Uiso   1.00
H554   H     0.19717   0.65994   0.40403   0.00000  Uiso   1.00
H555   H     0.25044   0.65385   0.38395   0.00000  Uiso   1.00
N556   N     0.27151   0.35277   0.58409   0.00000  Uiso   1.00
H557   H     0.30261   0.34012   0.59614   0.00000  Uiso   1.00
H558   H     0.24929   0.34610   0.61605   0.00000  Uiso   1.00
O559   O     0.75325   0.42871   0.53992   0.00000  Uiso   1.00
O560   O     0.74674   0.57129   0.46008   0.00000  Uiso   1.00
O561   O     0.74480   0.41892   0.43612   0.00000  Uiso   1.00
O562   O     0.75520   0.58108   0.56388   0.00000  Uiso   1.00
C563   C     0.74834   0.40012   0.48461   0.00000  Uiso   1.00
C564   C     0.75161   0.59988   0.51539   0.00000  Uiso   1.00
O565   O     0.68935   0.50488   0.55191   0.00000  Uiso   1.00
O566   O     0.81064   0.49512   0.44809   0.00000  Uiso   1.00
O567   O     0.68090   0.49510   0.44810   0.00000  Uiso   1.00
O568   O     0.81910   0.50490   0.55190   0.00000  Uiso   1.00
C569   C     0.66467   0.50011   0.50107   0.00000  Uiso   1.00
C570   C     0.83533   0.50006   0.49896   0.00000  Uiso   1.00
Cu571  Cu    0.75500   0.50579   0.56146   0.00000  Uiso   1.00
Cu572  Cu    0.74499   0.49421   0.43854   0.00000  Uiso   1.00
C573   C     0.90922   0.54640   0.52426   0.00000  Uiso   1.00
C574   C     0.59063   0.45437   0.47621   0.00000  Uiso   1.00
C575   C     0.88337   0.50050   0.49680   0.00000  Uiso   1.00
C576   C     0.61663   0.50016   0.50335   0.00000  Uiso   1.00
C577   C     0.90290   0.45448   0.46970   0.00000  Uiso   1.00
C578   C     0.59738   0.54661   0.52995   0.00000  Uiso   1.00
C579   C     0.94995   0.45334   0.47215   0.00000  Uiso   1.00
C580   C     0.55023   0.54821   0.52780   0.00000  Uiso   1.00
C581   C     0.97646   0.50034   0.49913   0.00000  Uiso   1.00
C582   C     0.52365   0.50106   0.50097   0.00000  Uiso   1.00
C583   C     0.95584   0.54672   0.52436   0.00000  Uiso   1.00
C584   C     0.54409   0.45438   0.47591   0.00000  Uiso   1.00
C585   C     0.97145   0.40683   0.44978   0.00000  Uiso   1.00
C586   C     0.52820   0.59473   0.55035   0.00000  Uiso   1.00
C587   C     0.51780   0.40802   0.45191   0.00000  Uiso   1.00
C588   C     0.98198   0.59309   0.54835   0.00000  Uiso   1.00
H589   H     0.53296   0.37156   0.43491   0.00000  Uiso   1.00
H590   H     0.96662   0.62940   0.56556   0.00000  Uiso   1.00
C591   C     0.74470   0.34440   0.47611   0.00000  Uiso   1.00
C592   C     0.75518   0.65561   0.52392   0.00000  Uiso   1.00
N593   N     0.73744   0.48547   0.34617   0.00000  Uiso   1.00
N594   N     0.76255   0.51453   0.65383   0.00000  Uiso   1.00
H595   H     0.71521   0.45935   0.64945   0.00000  Uiso   1.00
H596   H     0.78479   0.54065   0.35055   0.00000  Uiso   1.00
N597   N     0.88774   0.59285   0.55107   0.00000  Uiso   1.00
O598   O     0.86099   0.61394   0.51674   0.00000  Uiso   1.00
O599   O     0.89268   0.61205   0.61035   0.00000  Uiso   1.00
N600   N     0.61193   0.40768   0.44972   0.00000  Uiso   1.00
O601   O     0.63872   0.38678   0.48421   0.00000  Uiso   1.00
O602   O     0.60715   0.38839   0.39045   0.00000  Uiso   1.00
N603   N     0.87435   0.40925   0.44066   0.00000  Uiso   1.00
O604   O     0.86521   0.39828   0.38115   0.00000  Uiso   1.00
O605   O     0.85351   0.38279   0.47423   0.00000  Uiso   1.00
N606   N     0.62658   0.59146   0.55805   0.00000  Uiso   1.00
O607   O     0.64167   0.59786   0.61547   0.00000  Uiso   1.00
O608   O     0.64642   0.61752   0.52315   0.00000  Uiso   1.00
N609   N     0.94692   0.35752   0.42605   0.00000  Uiso   1.00
H610   H     0.95702   0.66488   0.45285   0.00000  Uiso   1.00
H611   H     0.95530   0.34281   0.38093   0.00000  Uiso   1.00
N612   N     0.55078   0.64510   0.57448   0.00000  Uiso   1.00
H613   H     0.57009   0.64493   0.61506   0.00000  Uiso   1.00
H614   H     0.56985   0.65554   0.54111   0.00000  Uiso   1.00
N615   N     0.72827   0.64723   0.41599   0.00000  Uiso   1.00
H616   H     0.69717   0.65994   0.40403   0.00000  Uiso   1.00
H617   H     0.75044   0.65385   0.38395   0.00000  Uiso   1.00
N618   N     0.77151   0.35277   0.58409   0.00000  Uiso   1.00
H619   H     0.80261   0.34012   0.59614   0.00000  Uiso   1.00
H620   H     0.74929   0.34610   0.61605   0.00000  Uiso   1.00
O621   O     0.25325   0.76204   0.53992   0.00000  Uiso   1.00
O622   O     0.24674   0.90462   0.46008   0.00000  Uiso   1.00
O623   O     0.24480   0.75226   0.43612   0.00000  Uiso   1.00
O624   O     0.25520   0.91441   0.56388   0.00000  Uiso   1.00
C625   C     0.24834   0.73345   0.48461   0.00000  Uiso   1.00
C626   C     0.25161   0.93321   0.51539   0.00000  Uiso   1.00
O627   O     0.18935   0.83821   0.55191   0.00000  Uiso   1.00
O628   O     0.31064   0.82845   0.44809   0.00000  Uiso   1.00
O629   O     0.18090   0.82843   0.44810   0.00000  Uiso   1.00
O630   O     0.31910   0.83824   0.55190   0.00000  Uiso   1.00
C631   C     0.16467   0.83344   0.50107   0.00000  Uiso   1.00
C632   C     0.33533   0.83340   0.49896   0.00000  Uiso   1.00
Cu633  Cu    0.25500   0.83913   0.56146   0.00000  Uiso   1.00
Cu634  Cu    0.24499   0.82754   0.43854   0.00000  Uiso   1.00
C635   C     0.40922   0.87974   0.52426   0.00000  Uiso   1.00
C636   C     0.09063   0.78770   0.47621   0.00000  Uiso   1.00
C637   C     0.38337   0.83383   0.49680   0.00000  Uiso   1.00
C638   C     0.11663   0.83349   0.50335   0.00000  Uiso   1.00
C639   C     0.40290   0.78781   0.46970   0.00000  Uiso   1.00
C640   C     0.09738   0.87994   0.52995   0.00000  Uiso   1.00
C641   C     0.44995   0.78667   0.47215   0.00000  Uiso   1.00
C642   C     0.05023   0.88155   0.52780   0.00000  Uiso   1.00
C643   C     0.47646   0.83367   0.49913   0.00000  Uiso   1.00
C644   C     0.02365   0.83439   0.50097   0.00000  Uiso   1.00
C645   C     0.45584   0.88006   0.52436   0.00000  Uiso   1.00
C646   C     0.04409   0.78772   0.47591   0.00000  Uiso   1.00
C647   C     0.47145   0.74016   0.44978   0.00000  Uiso   1.00
C648   C     0.02820   0.92806   0.55035   0.00000  Uiso   1.00
C649   C     0.01780   0.74135   0.45191   0.00000  Uiso   1.00
C650   C     0.48198   0.92642   0.54835   0.00000  Uiso   1.00
H651   H     0.03296   0.70490   0.43491   0.00000  Uiso   1.00
H652   H     0.46662   0.96273   0.56556   0.00000  Uiso   1.00
C653   C     0.24470   0.67773   0.47611   0.00000  Uiso   1.00
C654   C     0.25518   0.98894   0.52392   0.00000  Uiso   1.00
N655   N     0.23744   0.81881   0.34617   0.00000  Uiso   1.00
N656   N     0.26255   0.84786   0.65383   0.00000  Uiso   1.00
H657   H     0.21521   0.79269   0.64945   0.00000  Uiso   1.00
H658   H     0.28479   0.87398   0.35055   0.00000  Uiso   1.00
N659   N     0.38774   0.92618   0.55107   0.00000  Uiso   1.00
O660   O     0.36099   0.94727   0.51674   0.00000  Uiso   1.00
O661   O     0.39268   0.94538   0.61035   0.00000  Uiso   1.00
N662   N     0.11193   0.74102   0.44972   0.00000  Uiso   1.00
O663   O     0.13872   0.72012   0.48421   0.00000  Uiso   1.00
O664   O     0.10715   0.72172   0.39045   0.00000  Uiso   1.00
N665   N     0.37435   0.74259   0.44066   0.00000  Uiso   1.00
O666   O     0.36521   0.73162   0.38115   0.00000  Uiso   1.00
O667   O     0.35351   0.71613   0.47423   0.00000  Uiso   1.00
N668   N     0.12658   0.92479   0.55805   0.00000  Uiso   1.00
O669   O     0.14167   0.93120   0.61547   0.00000  Uiso   1.00
O670   O     0.14642   0.95085   0.52315   0.00000  Uiso   1.00
N671   N     0.44692   0.69085   0.42605   0.00000  Uiso   1.00
H672   H     0.45702   0.99821   0.45285   0.00000  Uiso   1.00
H673   H     0.45530   0.67614   0.38093   0.00000  Uiso   1.00
N674   N     0.05078   0.97844   0.57448   0.00000  Uiso   1.00
H675   H     0.07009   0.97826   0.61506   0.00000  Uiso   1.00
H676   H     0.06985   0.98887   0.54111   0.00000  Uiso   1.00
N677   N     0.22827   0.98057   0.41599   0.00000  Uiso   1.00
H678   H     0.19717   0.99328   0.40403   0.00000  Uiso   1.00
H679   H     0.25044   0.98719   0.38395   0.00000  Uiso   1.00
N680   N     0.27151   0.68610   0.58409   0.00000  Uiso   1.00
H681   H     0.30261   0.67346   0.59614   0.00000  Uiso   1.00
H682   H     0.24929   0.67943   0.61605   0.00000  Uiso   1.00
O683   O     0.75325   0.76204   0.53992   0.00000  Uiso   1.00
O684   O     0.74674   0.90462   0.46008   0.00000  Uiso   1.00
O685   O     0.74480   0.75226   0.43612   0.00000  Uiso   1.00
O686   O     0.75520   0.91441   0.56388   0.00000  Uiso   1.00
C687   C     0.74834   0.73345   0.48461   0.00000  Uiso   1.00
C688   C     0.75161   0.93321   0.51539   0.00000  Uiso   1.00
O689   O     0.68935   0.83821   0.55191   0.00000  Uiso   1.00
O690   O     0.81064   0.82845   0.44809   0.00000  Uiso   1.00
O691   O     0.68090   0.82843   0.44810   0.00000  Uiso   1.00
O692   O     0.81910   0.83824   0.55190   0.00000  Uiso   1.00
C693   C     0.66467   0.83344   0.50107   0.00000  Uiso   1.00
C694   C     0.83533   0.83340   0.49896   0.00000  Uiso   1.00
Cu695  Cu    0.75500   0.83913   0.56146   0.00000  Uiso   1.00
Cu696  Cu    0.74499   0.82754   0.43854   0.00000  Uiso   1.00
C697   C     0.90922   0.87974   0.52426   0.00000  Uiso   1.00
C698   C     0.59063   0.78770   0.47621   0.00000  Uiso   1.00
C699   C     0.88337   0.83383   0.49680   0.00000  Uiso   1.00
C700   C     0.61663   0.83349   0.50335   0.00000  Uiso   1.00
C701   C     0.90290   0.78781   0.46970   0.00000  Uiso   1.00
C702   C     0.59738   0.87994   0.52995   0.00000  Uiso   1.00
C703   C     0.94995   0.78667   0.47215   0.00000  Uiso   1.00
C704   C     0.55023   0.88155   0.52780   0.00000  Uiso   1.00
C705   C     0.97646   0.83367   0.49913   0.00000  Uiso   1.00
C706   C     0.52365   0.83439   0.50097   0.00000  Uiso   1.00
C707   C     0.95584   0.88006   0.52436   0.00000  Uiso   1.00
C708   C     0.54409   0.78772   0.47591   0.00000  Uiso   1.00
C709   C     0.97145   0.74016   0.44978   0.00000  Uiso   1.00
C710   C     0.52820   0.92806   0.55035   0.00000  Uiso   1.00
C711   C     0.51780   0.74135   0.45191   0.00000  Uiso   1.00
C712   C     0.98198   0.92642   0.54835   0.00000  Uiso   1.00
H713   H     0.53296   0.70490   0.43491   0.00000  Uiso   1.00
H714   H     0.96662   0.96273   0.56556   0.00000  Uiso   1.00
C715   C     0.74470   0.67773   0.47611   0.00000  Uiso   1.00
C716   C     0.75518   0.98894   0.52392   0.00000  Uiso   1.00
N717   N     0.73744   0.81881   0.34617   0.00000  Uiso   1.00
N718   N     0.76255   0.84786   0.65383   0.00000  Uiso   1.00
H719   H     0.71521   0.79269   0.64945   0.00000  Uiso   1.00
H720   H     0.78479   0.87398   0.35055   0.00000  Uiso   1.00
N721   N     0.88774   0.92618   0.55107   0.00000  Uiso   1.00
O722   O     0.86099   0.94727   0.51674   0.00000  Uiso   1.00
O723   O     0.89268   0.94538   0.61035   0.00000  Uiso   1.00
N724   N     0.61193   0.74102   0.44972   0.00000  Uiso   1.00
O725   O     0.63872   0.72012   0.48421   0.00000  Uiso   1.00
O726   O     0.60715   0.72172   0.39045   0.00000  Uiso   1.00
N727   N     0.87435   0.74259   0.44066   0.00000  Uiso   1.00
O728   O     0.86521   0.73162   0.38115   0.00000  Uiso   1.00
O729   O     0.85351   0.71613   0.47423   0.00000  Uiso   1.00
N730   N     0.62658   0.92479   0.55805   0.00000  Uiso   1.00
O731   O     0.64167   0.93120   0.61547   0.00000  Uiso   1.00
O732   O     0.64642   0.95085   0.52315   0.00000  Uiso   1.00
N733   N     0.94692   0.69085   0.42605   0.00000  Uiso   1.00
H734   H     0.95702   0.99821   0.45285   0.00000  Uiso   1.00
H735   H     0.95530   0.67614   0.38093   0.00000  Uiso   1.00
N736   N     0.55078   0.97844   0.57448   0.00000  Uiso   1.00
H737   H     0.57009   0.97826   0.61506   0.00000  Uiso   1.00
H738   H     0.56985   0.98887   0.54111   0.00000  Uiso   1.00
N739   N     0.72827   0.98057   0.41599   0.00000  Uiso   1.00
H740   H     0.69717   0.99328   0.40403   0.00000  Uiso   1.00
H741   H     0.75044   0.98719   0.38395   0.00000  Uiso   1.00
N742   N     0.77151   0.68610   0.58409   0.00000  Uiso   1.00
H743   H     0.80261   0.67346   0.59614   0.00000  Uiso   1.00
H744   H     0.74929   0.67943   0.61605   0.00000  Uiso   1.00
O745   O     0.25325   0.09538   0.87326   0.00000  Uiso   1.00
O746   O     0.24674   0.23796   0.79341   0.00000  Uiso   1.00
O747   O     0.24480   0.08559   0.76945   0.00000  Uiso   1.00
O748   O     0.25520   0.24774   0.89721   0.00000  Uiso   1.00
C749   C     0.24834   0.06679   0.81794   0.00000  Uiso   1.00
C750   C     0.25161   0.26654   0.84873   0.00000  Uiso   1.00
O751   O     0.18935   0.17155   0.88524   0.00000  Uiso   1.00
O752   O     0.31064   0.16179   0.78143   0.00000  Uiso   1.00
O753   O     0.18090   0.16176   0.78143   0.00000  Uiso   1.00
O754   O     0.31910   0.17157   0.88523   0.00000  Uiso   1.00
C755   C     0.16467   0.16677   0.83440   0.00000  Uiso   1.00
C756   C     0.33533   0.16673   0.83230   0.00000  Uiso   1.00
Cu757  Cu    0.25500   0.17246   0.89479   0.00000  Uiso   1.00
Cu758  Cu    0.24499   0.16087   0.77187   0.00000  Uiso   1.00
C759   C     0.40922   0.21307   0.85759   0.00000  Uiso   1.00
C760   C     0.09063   0.12103   0.80954   0.00000  Uiso   1.00
C761   C     0.38337   0.16716   0.83013   0.00000  Uiso   1.00
C762   C     0.11663   0.16683   0.83668   0.00000  Uiso   1.00
C763   C     0.40290   0.12114   0.80303   0.00000  Uiso   1.00
C764   C     0.09738   0.21327   0.86329   0.00000  Uiso   1.00
C765   C     0.44995   0.12000   0.80549   0.00000  Uiso   1.00
C766   C     0.05023   0.21488   0.86113   0.00000  Uiso   1.00
C767   C     0.47646   0.16700   0.83246   0.00000  Uiso   1.00
C768   C     0.02365   0.16773   0.83431   0.00000  Uiso   1.00
C769   C     0.45584   0.21339   0.85769   0.00000  Uiso   1.00
C770   C     0.04409   0.12105   0.80924   0.00000  Uiso   1.00
C771   C     0.47145   0.07350   0.78312   0.00000  Uiso   1.00
C772   C     0.02820   0.26139   0.88368   0.00000  Uiso   1.00
C773   C     0.01780   0.07469   0.78525   0.00000  Uiso   1.00
C774   C     0.48198   0.25976   0.88169   0.00000  Uiso   1.00
H775   H     0.03296   0.03823   0.76825   0.00000  Uiso   1.00
H776   H     0.46662   0.29606   0.89889   0.00000  Uiso   1.00
C777   C     0.24470   0.01106   0.80944   0.00000  Uiso   1.00
C778   C     0.25518   0.32227   0.85726   0.00000  Uiso   1.00
N779   N     0.23744   0.15214   0.67951   0.00000  Uiso   1.00
N780   N     0.26255   0.18119   0.98716   0.00000  Uiso   1.00
H781   H     0.21521   0.12602   0.98279   0.00000  Uiso   1.00
H782   H     0.28479   0.20732   0.68388   0.00000  Uiso   1.00
N783   N     0.38774   0.25951   0.88440   0.00000  Uiso   1.00
O784   O     0.36099   0.28061   0.85008   0.00000  Uiso   1.00
O785   O     0.39268   0.27871   0.94369   0.00000  Uiso   1.00
N786   N     0.11193   0.07435   0.78305   0.00000  Uiso   1.00
O787   O     0.13872   0.05345   0.81755   0.00000  Uiso   1.00
O788   O     0.10715   0.05505   0.72379   0.00000  Uiso   1.00
N789   N     0.37435   0.07592   0.77399   0.00000  Uiso   1.00
O790   O     0.36521   0.06495   0.71449   0.00000  Uiso   1.00
O791   O     0.35351   0.04946   0.80757   0.00000  Uiso   1.00
N792   N     0.12658   0.25813   0.89138   0.00000  Uiso   1.00
O793   O     0.14167   0.26453   0.94880   0.00000  Uiso   1.00
O794   O     0.14642   0.28418   0.85648   0.00000  Uiso   1.00
N795   N     0.44692   0.02419   0.75939   0.00000  Uiso   1.00
H796   H     0.45702   0.33155   0.78619   0.00000  Uiso   1.00
H797   H     0.45530   0.00947   0.71427   0.00000  Uiso   1.00
N798   N     0.05078   0.31177   0.90781   0.00000  Uiso   1.00
H799   H     0.07009   0.31159   0.94839   0.00000  Uiso   1.00
H800   H     0.06985   0.32221   0.87445   0.00000  Uiso   1.00
N801   N     0.22827   0.31390   0.74932   0.00000  Uiso   1.00
H802   H     0.19717   0.32661   0.73737   0.00000  Uiso   1.00
H803   H     0.25044   0.32052   0.71729   0.00000  Uiso   1.00
N804   N     0.27151   0.01944   0.91742   0.00000  Uiso   1.00
H805   H     0.30261   0.00679   0.92947   0.00000  Uiso   1.00
H806   H     0.24929   0.01276   0.94938   0.00000  Uiso   1.00
O807   O     0.75325   0.09538   0.87326   0.00000  Uiso   1.00
O808   O     0.74674   0.23796   0.79341   0.00000  Uiso   1.00
O809   O     0.74480   0.08559   0.76945   0.00000  Uiso   1.00
O810   O     0.75520   0.24774   0.89721   0.00000  Uiso   1.00
C811   C     0.74834   0.06679   0.81794   0.00000  Uiso   1.00
C812   C     0.75161   0.26654   0.84873   0.00000  Uiso   1.00
O813   O     0.68935   0.17155   0.88524   0.00000  Uiso   1.00
O814   O     0.81064   0.16179   0.78143   0.00000  Uiso   1.00
O815   O     0.68090   0.16176   0.78143   0.00000  Uiso   1.00
O816   O     0.81910   0.17157   0.88523   0.00000  Uiso   1.00
C817   C     0.66467   0.16677   0.83440   0.00000  Uiso   1.00
C818   C     0.83533   0.16673   0.83230   0.00000  Uiso   1.00
Cu819  Cu    0.75500   0.17246   0.89479   0.00000  Uiso   1.00
Cu820  Cu    0.74499   0.16087   0.77187   0.00000  Uiso   1.00
C821   C     0.90922   0.21307   0.85759   0.00000  Uiso   1.00
C822   C     0.59063   0.12103   0.80954   0.00000  Uiso   1.00
C823   C     0.88337   0.16716   0.83013   0.00000  Uiso   1.00
C824   C     0.61663   0.16683   0.83668   0.00000  Uiso   1.00
C825   C     0.90290   0.12114   0.80303   0.00000  Uiso   1.00
C826   C     0.59738   0.21327   0.86329   0.00000  Uiso   1.00
C827   C     0.94995   0.12000   0.80549   0.00000  Uiso   1.00
C828   C     0.55023   0.21488   0.86113   0.00000  Uiso   1.00
C829   C     0.97646   0.16700   0.83246   0.00000  Uiso   1.00
C830   C     0.52365   0.16773   0.83431   0.00000  Uiso   1.00
C831   C     0.95584   0.21339   0.85769   0.00000  Uiso   1.00
C832   C     0.54409   0.12105   0.80924   0.00000  Uiso   1.00
C833   C     0.97145   0.07350   0.78312   0.00000  Uiso   1.00
C834   C     0.52820   0.26139   0.88368   0.00000  Uiso   1.00
C835   C     0.51780   0.07469   0.78525   0.00000  Uiso   1.00
C836   C     0.98198   0.25976   0.88169   0.00000  Uiso   1.00
H837   H     0.53296   0.03823   0.76825   0.00000  Uiso   1.00
H838   H     0.96662   0.29606   0.89889   0.00000  Uiso   1.00
C839   C     0.74470   0.01106   0.80944   0.00000  Uiso   1.00
C840   C     0.75518   0.32227   0.85726   0.00000  Uiso   1.00
N841   N     0.73744   0.15214   0.67951   0.00000  Uiso   1.00
N842   N     0.76255   0.18119   0.98716   0.00000  Uiso   1.00
H843   H     0.71521   0.12602   0.98279   0.00000  Uiso   1.00
H844   H     0.78479   0.20732   0.68388   0.00000  Uiso   1.00
N845   N     0.88774   0.25951   0.88440   0.00000  Uiso   1.00
O846   O     0.86099   0.28061   0.85008   0.00000  Uiso   1.00
O847   O     0.89268   0.27871   0.94369   0.00000  Uiso   1.00
N848   N     0.61193   0.07435   0.78305   0.00000  Uiso   1.00
O849   O     0.63872   0.05345   0.81755   0.00000  Uiso   1.00
O850   O     0.60715   0.05505   0.72379   0.00000  Uiso   1.00
N851   N     0.87435   0.07592   0.77399   0.00000  Uiso   1.00
O852   O     0.86521   0.06495   0.71449   0.00000  Uiso   1.00
O853   O     0.85351   0.04946   0.80757   0.00000  Uiso   1.00
N854   N     0.62658   0.25813   0.89138   0.00000  Uiso   1.00
O855   O     0.64167   0.26453   0.94880   0.00000  Uiso   1.00
O856   O     0.64642   0.28418   0.85648   0.00000  Uiso   1.00
N857   N     0.94692   0.02419   0.75939   0.00000  Uiso   1.00
H858   H     0.95702   0.33155   0.78619   0.00000  Uiso   1.00
H859   H     0.95530   0.00947   0.71427   0.00000  Uiso   1.00
N860   N     0.55078   0.31177   0.90781   0.00000  Uiso   1.00
H861   H     0.57009   0.31159   0.94839   0.00000  Uiso   1.00
H862   H     0.56985   0.32221   0.87445   0.00000  Uiso   1.00
N863   N     0.72827   0.31390   0.74932   0.00000  Uiso   1.00
H864   H     0.69717   0.32661   0.73737   0.00000  Uiso   1.00
H865   H     0.75044   0.32052   0.71729   0.00000  Uiso   1.00
N866   N     0.77151   0.01944   0.91742   0.00000  Uiso   1.00
H867   H     0.80261   0.00679   0.92947   0.00000  Uiso   1.00
H868   H     0.74929   0.01276   0.94938   0.00000  Uiso   1.00
O869   O     0.25325   0.42871   0.87326   0.00000  Uiso   1.00
O870   O     0.24674   0.57129   0.79341   0.00000  Uiso   1.00
O871   O     0.24480   0.41892   0.76945   0.00000  Uiso   1.00
O872   O     0.25520   0.58108   0.89721   0.00000  Uiso   1.00
C873   C     0.24834   0.40012   0.81794   0.00000  Uiso   1.00
C874   C     0.25161   0.59988   0.84873   0.00000  Uiso   1.00
O875   O     0.18935   0.50488   0.88524   0.00000  Uiso   1.00
O876   O     0.31064   0.49512   0.78143   0.00000  Uiso   1.00
O877   O     0.18090   0.49510   0.78143   0.00000  Uiso   1.00
O878   O     0.31910   0.50490   0.88523   0.00000  Uiso   1.00
C879   C     0.16467   0.50011   0.83440   0.00000  Uiso   1.00
C880   C     0.33533   0.50006   0.83230   0.00000  Uiso   1.00
Cu881  Cu    0.25500   0.50579   0.89479   0.00000  Uiso   1.00
Cu882  Cu    0.24499   0.49421   0.77187   0.00000  Uiso   1.00
C883   C     0.40922   0.54640   0.85759   0.00000  Uiso   1.00
C884   C     0.09063   0.45437   0.80954   0.00000  Uiso   1.00
C885   C     0.38337   0.50050   0.83013   0.00000  Uiso   1.00
C886   C     0.11663   0.50016   0.83668   0.00000  Uiso   1.00
C887   C     0.40290   0.45448   0.80303   0.00000  Uiso   1.00
C888   C     0.09738   0.54661   0.86329   0.00000  Uiso   1.00
C889   C     0.44995   0.45334   0.80549   0.00000  Uiso   1.00
C890   C     0.05023   0.54821   0.86113   0.00000  Uiso   1.00
C891   C     0.47646   0.50034   0.83246   0.00000  Uiso   1.00
C892   C     0.02365   0.50106   0.83431   0.00000  Uiso   1.00
C893   C     0.45584   0.54672   0.85769   0.00000  Uiso   1.00
C894   C     0.04409   0.45438   0.80924   0.00000  Uiso   1.00
C895   C     0.47145   0.40683   0.78312   0.00000  Uiso   1.00
C896   C     0.02820   0.59473   0.88368   0.00000  Uiso   1.00
C897   C     0.01780   0.40802   0.78525   0.00000  Uiso   1.00
C898   C     0.48198   0.59309   0.88169   0.00000  Uiso   1.00
H899   H     0.03296   0.37156   0.76825   0.00000  Uiso   1.00
H900   H     0.46662   0.62940   0.89889   0.00000  Uiso   1.00
C901   C     0.24470   0.34440   0.80944   0.00000  Uiso   1.00
C902   C     0.25518   0.65561   0.85726   0.00000  Uiso   1.00
N903   N     0.23744   0.48547   0.67951   0.00000  Uiso   1.00
N904   N     0.26255   0.51453   0.98716   0.00000  Uiso   1.00
H905   H     0.21521   0.45935   0.98279   0.00000  Uiso   1.00
H906   H     0.28479   0.54065   0.68388   0.00000  Uiso   1.00
N907   N     0.38774   0.59285   0.88440   0.00000  Uiso   1.00
O908   O     0.36099   0.61394   0.85008   0.00000  Uiso   1.00
O909   O     0.39268   0.61205   0.94369   0.00000  Uiso   1.00
N910   N     0.11193   0.40768   0.78305   0.00000  Uiso   1.00
O911   O     0.13872   0.38678   0.81755   0.00000  Uiso   1.00
O912   O     0.10715   0.38839   0.72379   0.00000  Uiso   1.00
N913   N     0.37435   0.40925   0.77399   0.00000  Uiso   1.00
O914   O     0.36521   0.39828   0.71449   0.00000  Uiso   1.00
O915   O     0.35351   0.38279   0.80757   0.00000  Uiso   1.00
N916   N     0.12658   0.59146   0.89138   0.00000  Uiso   1.00
O917   O     0.14167   0.59786   0.94880   0.00000  Uiso   1.00
O918   O     0.14642   0.61752   0.85648   0.00000  Uiso   1.00
N919   N     0.44692   0.35752   0.75939   0.00000  Uiso   1.00
H920   H     0.45702   0.66488   0.78619   0.00000  Uiso   1.00
H921   H     0.45530   0.34281   0.71427   0.00000  Uiso   1.00
N922   N     0.05078   0.64510   0.90781   0.00000  Uiso   1.00
H923   H     0.07009   0.64493   0.94839   0.00000  Uiso   1.00
H924   H     0.06985   0.65554   0.87445   0.00000  Uiso   1.00
N925   N     0.22827   0.64723   0.74932   0.00000  Uiso   1.00
H926   H     0.19717   0.65994   0.73737   0.00000  Uiso   1.00
H927   H     0.25044   0.65385   0.71729   0.00000  Uiso   1.00
N928   N     0.27151   0.35277   0.91742   0.00000  Uiso   1.00
H929   H     0.30261   0.34012   0.92947   0.00000  Uiso   1.00
H930   H     0.24929   0.34610   0.94938   0.00000  Uiso   1.00
O931   O     0.75325   0.42871   0.87326   0.00000  Uiso   1.00
O932   O     0.74674   0.57129   0.79341   0.00000  Uiso   1.00
O933   O     0.74480   0.41892   0.76945   0.00000  Uiso   1.00
O934   O     0.75520   0.58108   0.89721   0.00000  Uiso   1.00
C935   C     0.74834   0.40012   0.81794   0.00000  Uiso   1.00
C936   C     0.75161   0.59988   0.84873   0.00000  Uiso   1.00
O937   O     0.68935   0.50488   0.88524   0.00000  Uiso   1.00
O938   O     0.81064   0.49512   0.78143   0.00000  Uiso   1.00
O939   O     0.68090   0.49510   0.78143   0.00000  Uiso   1.00
O940   O     0.81910   0.50490   0.88523   0.00000  Uiso   1.00
C941   C     0.66467   0.50011   0.83440   0.00000  Uiso   1.00
C942   C     0.83533   0.50006   0.83230   0.00000  Uiso   1.00
Cu943  Cu    0.75500   0.50579   0.89479   0.00000  Uiso   1.00
Cu944  Cu    0.74499   0.49421   0.77187   0.00000  Uiso   1.00
C945   C     0.90922   0.54640   0.85759   0.00000  Uiso   1.00
C946   C     0.59063   0.45437   0.80954   0.00000  Uiso   1.00
C947   C     0.88337   0.50050   0.83013   0.00000  Uiso   1.00
C948   C     0.61663   0.50016   0.83668   0.00000  Uiso   1.00
C949   C     0.90290   0.45448   0.80303   0.00000  Uiso   1.00
C950   C     0.59738   0.54661   0.86329   0.00000  Uiso   1.00
C951   C     0.94995   0.45334   0.80549   0.00000  Uiso   1.00
C952   C     0.55023   0.54821   0.86113   0.00000  Uiso   1.00
C953   C     0.97646   0.50034   0.83246   0.00000  Uiso   1.00
C954   C     0.52365   0.50106   0.83431   0.00000  Uiso   1.00
C955   C     0.95584   0.54672   0.85769   0.00000  Uiso   1.00
C956   C     0.54409   0.45438   0.80924   0.00000  Uiso   1.00
C957   C     0.97145   0.40683   0.78312   0.00000  Uiso   1.00
C958   C     0.52820   0.59473   0.88368   0.00000  Uiso   1.00
C959   C     0.51780   0.40802   0.78525   0.00000  Uiso   1.00
C960   C     0.98198   0.59309   0.88169   0.00000  Uiso   1.00
H961   H     0.53296   0.37156   0.76825   0.00000  Uiso   1.00
H962   H     0.96662   0.62940   0.89889   0.00000  Uiso   1.00
C963   C     0.74470   0.34440   0.80944   0.00000  Uiso   1.00
C964   C     0.75518   0.65561   0.85726   0.00000  Uiso   1.00
N965   N     0.73744   0.48547   0.67951   0.00000  Uiso   1.00
N966   N     0.76255   0.51453   0.98716   0.00000  Uiso   1.00
H967   H     0.71521   0.45935   0.98279   0.00000  Uiso   1.00
H968   H     0.78479   0.54065   0.68388   0.00000  Uiso   1.00
N969   N     0.88774   0.59285   0.88440   0.00000  Uiso   1.00
O970   O     0.86099   0.61394   0.85008   0.00000  Uiso   1.00
O971   O     0.89268   0.61205   0.94369   0.00000  Uiso   1.00
N972   N     0.61193   0.40768   0.78305   0.00000  Uiso   1.00
O973   O     0.63872   0.38678   0.81755   0.00000  Uiso   1.00
O974   O     0.60715   0.38839   0.72379   0.00000  Uiso   1.00
N975   N     0.87435   0.40925   0.77399   0.00000  Uiso   1.00
O976   O     0.86521   0.39828   0.71449   0.00000  Uiso   1.00
O977   O     0.85351   0.38279   0.80757   0.00000  Uiso   1.00
N978   N     0.62658   0.59146   0.89138   0.00000  Uiso   1.00
O979   O     0.64167   0.59786   0.94880   0.00000  Uiso   1.00
O980   O     0.64642   0.61752   0.85648   0.00000  Uiso   1.00
N981   N     0.94692   0.35752   0.75939   0.00000  Uiso   1.00
H982   H     0.95702   0.66488   0.78619   0.00000  Uiso   1.00
H983   H     0.95530   0.34281   0.71427   0.00000  Uiso   1.00
N984   N     0.55078   0.64510   0.90781   0.00000  Uiso   1.00
H985   H     0.57009   0.64493   0.94839   0.00000  Uiso   1.00
H986   H     0.56985   0.65554   0.87445   0.00000  Uiso   1.00
N987   N     0.72827   0.64723   0.74932   0.00000  Uiso   1.00
H988   H     0.69717   0.65994   0.73737   0.00000  Uiso   1.00
H989   H     0.75044   0.65385   0.71729   0.00000  Uiso   1.00
N990   N     0.77151   0.35277   0.91742   0.00000  Uiso   1.00
H991   H     0.80261   0.34012   0.92947   0.00000  Uiso   1.00
H992   H     0.74929   0.34610   0.94938   0.00000  Uiso   1.00
O993   O     0.25325   0.76204   0.87326   0.00000  Uiso   1.00
O994   O     0.24674   0.90462   0.79341   0.00000  Uiso   1.00
O995   O     0.24480   0.75226   0.76945   0.00000  Uiso   1.00
O996   O     0.25520   0.91441   0.89721   0.00000  Uiso   1.00
C997   C     0.24834   0.73345   0.81794   0.00000  Uiso   1.00
C998   C     0.25161   0.93321   0.84873   0.00000  Uiso   1.00
O999   O     0.18935   0.83821   0.88524   0.00000  Uiso   1.00
O1000  O     0.31064   0.82845   0.78143   0.00000  Uiso   1.00
O1001  O     0.18090   0.82843   0.78143   0.00000  Uiso   1.00
O1002  O     0.31910   0.83824   0.88523   0.00000  Uiso   1.00
C1003  C     0.16467   0.83344   0.83440   0.00000  Uiso   1.00
C1004  C     0.33533   0.83340   0.83230   0.00000  Uiso   1.00
Cu1005 Cu    0.25500   0.83913   0.89479   0.00000  Uiso   1.00
Cu1006 Cu    0.24499   0.82754   0.77187   0.00000  Uiso   1.00
C1007  C     0.40922   0.87974   0.85759   0.00000  Uiso   1.00
C1008  C     0.09063   0.78770   0.80954   0.00000  Uiso   1.00
C1009  C     0.38337   0.83383   0.83013   0.00000  Uiso   1.00
C1010  C     0.11663   0.83349   0.83668   0.00000  Uiso   1.00
C1011  C     0.40290   0.78781   0.80303   0.00000  Uiso   1.00
C1012  C     0.09738   0.87994   0.86329   0.00000  Uiso   1.00
C1013  C     0.44995   0.78667   0.80549   0.00000  Uiso   1.00
C1014  C     0.05023   0.88155   0.86113   0.00000  Uiso   1.00
C1015  C     0.47646   0.83367   0.83246   0.00000  Uiso   1.00
C1016  C     0.02365   0.83439   0.83431   0.00000  Uiso   1.00
C1017  C     0.45584   0.88006   0.85769   0.00000  Uiso   1.00
C1018  C     0.04409   0.78772   0.80924   0.00000  Uiso   1.00
C1019  C     0.47145   0.74016   0.78312   0.00000  Uiso   1.00
C1020  C     0.02820   0.92806   0.88368   0.00000  Uiso   1.00
C1021  C     0.01780   0.74135   0.78525   0.00000  Uiso   1.00
C1022  C     0.48198   0.92642   0.88169   0.00000  Uiso   1.00
H1023  H     0.03296   0.70490   0.76825   0.00000  Uiso   1.00
H1024  H     0.46662   0.96273   0.89889   0.00000  Uiso   1.00
C1025  C     0.24470   0.67773   0.80944   0.00000  Uiso   1.00
C1026  C     0.25518   0.98894   0.85726   0.00000  Uiso   1.00
N1027  N     0.23744   0.81881   0.67951   0.00000  Uiso   1.00
N1028  N     0.26255   0.84786   0.98716   0.00000  Uiso   1.00
H1029  H     0.21521   0.79269   0.98279   0.00000  Uiso   1.00
H1030  H     0.28479   0.87398   0.68388   0.00000  Uiso   1.00
N1031  N     0.38774   0.92618   0.88440   0.00000  Uiso   1.00
O1032  O     0.36099   0.94727   0.85008   0.00000  Uiso   1.00
O1033  O     0.39268   0.94538   0.94369   0.00000  Uiso   1.00
N1034  N     0.11193   0.74102   0.78305   0.00000  Uiso   1.00
O1035  O     0.13872   0.72012   0.81755   0.00000  Uiso   1.00
O1036  O     0.10715   0.72172   0.72379   0.00000  Uiso   1.00
N1037  N     0.37435   0.74259   0.77399   0.00000  Uiso   1.00
O1038  O     0.36521   0.73162   0.71449   0.00000  Uiso   1.00
O1039  O     0.35351   0.71613   0.80757   0.00000  Uiso   1.00
N1040  N     0.12658   0.92479   0.89138   0.00000  Uiso   1.00
O1041  O     0.14167   0.93120   0.94880   0.00000  Uiso   1.00
O1042  O     0.14642   0.95085   0.85648   0.00000  Uiso   1.00
N1043  N     0.44692   0.69085   0.75939   0.00000  Uiso   1.00
H1044  H     0.45702   0.99821   0.78619   0.00000  Uiso   1.00
H1045  H     0.45530   0.67614   0.71427   0.00000  Uiso   1.00
N1046  N     0.05078   0.97844   0.90781   0.00000  Uiso   1.00
H1047  H     0.07009   0.97826   0.94839   0.00000  Uiso   1.00
H1048  H     0.06985   0.98887   0.87445   0.00000  Uiso   1.00
N1049  N     0.22827   0.98057   0.74932   0.00000  Uiso   1.00
H1050  H     0.19717   0.99328   0.73737   0.00000  Uiso   1.00
H1051  H     0.25044   0.98719   0.71729   0.00000  Uiso   1.00
N1052  N     0.27151   0.68610   0.91742   0.00000  Uiso   1.00
H1053  H     0.30261   0.67346   0.92947   0.00000  Uiso   1.00
H1054  H     0.24929   0.67943   0.94938   0.00000  Uiso   1.00
O1055  O     0.75325   0.76204   0.87326   0.00000  Uiso   1.00
O1056  O     0.74674   0.90462   0.79341   0.00000  Uiso   1.00
O1057  O     0.74480   0.75226   0.76945   0.00000  Uiso   1.00
O1058  O     0.75520   0.91441   0.89721   0.00000  Uiso   1.00
C1059  C     0.74834   0.73345   0.81794   0.00000  Uiso   1.00
C1060  C     0.75161   0.93321   0.84873   0.00000  Uiso   1.00
O1061  O     0.68935   0.83821   0.88524   0.00000  Uiso   1.00
O1062  O     0.81064   0.82845   0.78143   0.00000  Uiso   1.00
O1063  O     0.68090   0.82843   0.78143   0.00000  Uiso   1.00
O1064  O     0.81910   0.83824   0.88523   0.00000  Uiso   1.00
C1065  C     0.66467   0.83344   0.83440   0.00000  Uiso   1.00
C1066  C     0.83533   0.83340   0.83230   0.00000  Uiso   1.00
Cu1067 Cu    0.75500   0.83913   0.89479   0.00000  Uiso   1.00
Cu1068 Cu    0.74499   0.82754   0.77187   0.00000  Uiso   1.00
C1069  C     0.90922   0.87974   0.85759   0.00000  Uiso   1.00
C1070  C     0.59063   0.78770   0.80954   0.00000  Uiso   1.00
C1071  C     0.88337   0.83383   0.83013   0.00000  Uiso   1.00
C1072  C     0.61663   0.83349   0.83668   0.00000  Uiso   1.00
C1073  C     0.90290   0.78781   0.80303   0.00000  Uiso   1.00
C1074  C     0.59738   0.87994   0.86329   0.00000  Uiso   1.00
C1075  C     0.94995   0.78667   0.80549   0.00000  Uiso   1.00
C1076  C     0.55023   0.88155   0.86113   0.00000  Uiso   1.00
C1077  C     0.97646   0.83367   0.83246   0.00000  Uiso   1.00
C1078  C     0.52365   0.83439   0.83431   0.00000  Uiso   1.00
C1079  C     0.95584   0.88006   0.85769   0.00000  Uiso   1.00
C1080  C     0.54409   0.78772   0.80924   0.00000  Uiso   1.00
C1081  C     0.97145   0.74016   0.78312   0.00000  Uiso   1.00
C1082  C     0.52820   0.92806   0.88368   0.00000  Uiso   1.00
C1083  C     0.51780   0.74135   0.78525   0.00000  Uiso   1.00
C1084  C     0.98198   0.92642   0.88169   0.00000  Uiso   1.00
H1085  H     0.53296   0.70490   0.76825   0.00000  Uiso   1.00
H1086  H     0.96662   0.96273   0.89889   0.00000  Uiso   1.00
C1087  C     0.74470   0.67773   0.80944   0.00000  Uiso   1.00
C1088  C     0.75518   0.98894   0.85726   0.00000  Uiso   1.00
N1089  N     0.73744   0.81881   0.67951   0.00000  Uiso   1.00
N1090  N     0.76255   0.84786   0.98716   0.00000  Uiso   1.00
H1091  H     0.71521   0.79269   0.98279   0.00000  Uiso   1.00
H1092  H     0.78479   0.87398   0.68388   0.00000  Uiso   1.00
N1093  N     0.88774   0.92618   0.88440   0.00000  Uiso   1.00
O1094  O     0.86099   0.94727   0.85008   0.00000  Uiso   1.00
O1095  O     0.89268   0.94538   0.94369   0.00000  Uiso   1.00
N1096  N     0.61193   0.74102   0.78305   0.00000  Uiso   1.00
O1097  O     0.63872   0.72012   0.81755   0.00000  Uiso   1.00
O1098  O     0.60715   0.72172   0.72379   0.00000  Uiso   1.00
N1099  N     0.87435   0.74259   0.77399   0.00000  Uiso   1.00
O1100  O     0.86521   0.73162   0.71449   0.00000  Uiso   1.00
O1101  O     0.85351   0.71613   0.80757   0.00000  Uiso   1.00
N1102  N     0.62658   0.92479   0.89138   0.00000  Uiso   1.00
O1103  O     0.64167   0.93120   0.94880   0.00000  Uiso   1.00
O1104  O     0.64642   0.95085   0.85648   0.00000  Uiso   1.00
N1105  N     0.94692   0.69085   0.75939   0.00000  Uiso   1.00
H1106  H     0.95702   0.99821   0.78619   0.00000  Uiso   1.00
H1107  H     0.95530   0.67614   0.71427   0.00000  Uiso   1.00
N1108  N     0.55078   0.97844   0.90781   0.00000  Uiso   1.00
H1109  H     0.57009   0.97826   0.94839   0.00000  Uiso   1.00
H1110  H     0.56985   0.98887   0.87445   0.00000  Uiso   1.00
N1111  N     0.72827   0.98057   0.74932   0.00000  Uiso   1.00
H1112  H     0.69717   0.99328   0.73737   0.00000  Uiso   1.00
H1113  H     0.75044   0.98719   0.71729   0.00000  Uiso   1.00
N1114  N     0.77151   0.68610   0.91742   0.00000  Uiso   1.00
H1115  H     0.80261   0.67346   0.92947   0.00000  Uiso   1.00
H1116  H     0.74929   0.67943   0.94938   0.00000  Uiso   1.00
loop_
_geom_bond_atom_site_label_1
_geom_bond_atom_site_label_2
_geom_bond_distance
_geom_bond_site_symmetry_2
_ccdc_geom_bond_type
O1     C5      1.288   .     A
O1     Cu13    1.973   .     S
O2     C6      1.288   .     A
O2     Cu14    1.973   .     S
O3     Cu14    1.968   .     S
O3     C5      1.286   .     A
O4     C6      1.286   .     A
O4     Cu13    1.968   .     S
C5     C33     1.433   .     S
C6     C34     1.433   .     S
O7     C11     1.291   .     A
O7     Cu13    1.969   .     S
O8     C12     1.292   .     A
O8     Cu14    1.969   .     S
O9     C11     1.290   .     A
O9     Cu14    1.953   .     S
O10    C12     1.289   .     A
O10    Cu13    1.953   .     S
C11    C18     1.448   .     S
C12    C17     1.448   .     S
Cu13   N36     2.017   .     S
Cu13   Cu14    2.684   .     S
Cu14   N35     2.017   .     S
C15    N39     1.437   .     S
C15    C25     1.401   .     A
C15    C17     1.398   .     A
C16    C26     1.399   .     A
C16    N42     1.437   .     S
C16    C18     1.396   .     A
C17    C19     1.401   .     A
C18    C20     1.403   .     A
C19    N45     1.434   .     S
C19    C21     1.414   .     A
C20    N48     1.433   .     S
C20    C22     1.418   .     A
C21    C27     1.417   .     A
C21    C23     1.427   .     A
C22    C28     1.426   .     A
C22    C24     1.430   .     A
C23    C25     1.414   .     A
C23    C86     1.416   .     S
C24    C26     1.417   .     A
C24    C85     1.416   1_455 S
C25    C30     1.397   .     A
C26    C29     1.400   .     A
C27    N51     1.434   .     S
C27    C91     1.390   .     S
C28    N54     1.433   .     S
C28    C92     1.386   1_455 S
C29    H31     1.083   .     S
C29    C89     1.390   1_455 S
C30    H32     1.083   .     S
C30    C90     1.386   .     S
C33    C282    1.351   1_545 S
C33    N305    1.442   1_545 S
C34    C157    1.351   .     S
C34    N184    1.442   .     S
N35    N780    1.296   1_554 S
N35    H781    1.029   1_554 S
N36    N407    1.296   .     S
N36    H410    1.029   .     S
H37    N407    1.029   .     S
H38    N780    1.029   1_554 S
N39    O40     1.301   .     A
N39    O41     1.301   .     A
N42    O44     1.301   .     A
N42    O43     1.301   .     A
N45    O46     1.301   .     A
N45    O47     1.301   .     A
N48    O50     1.301   .     A
N48    O49     1.301   .     A
N51    H53     1.046   .     S
N51    H300    1.046   1_545 S
H52    N175    1.046   .     S
N54    H55     1.043   .     S
N54    H56     1.044   .     S
N57    H58     1.046   .     S
N57    H59     1.045   .     S
N57    C157    1.442   .     S
N60    H62     1.045   .     S
N60    H61     1.046   .     S
N60    C282    1.442   1_545 S
O63    C67     1.288   .     A
O63    Cu75    1.973   .     S
O64    C68     1.288   .     A
O64    Cu76    1.973   .     S
O65    Cu76    1.968   .     S
O65    C67     1.286   .     A
O66    C68     1.286   .     A
O66    Cu75    1.968   .     S
C67    C95     1.433   .     S
C68    C96     1.433   .     S
O69    C73     1.291   .     A
O69    Cu75    1.969   .     S
O70    C74     1.292   .     A
O70    Cu76    1.969   .     S
O71    C73     1.290   .     A
O71    Cu76    1.953   .     S
O72    C74     1.289   .     A
O72    Cu75    1.953   .     S
C73    C80     1.448   .     S
C74    C79     1.448   .     S
Cu75   N98     2.017   .     S
Cu75   Cu76    2.684   .     S
Cu76   N97     2.017   .     S
C77    N101    1.437   .     S
C77    C87     1.401   .     A
C77    C79     1.398   .     A
C78    C88     1.399   .     A
C78    N104    1.437   .     S
C78    C80     1.396   .     A
C79    C81     1.401   .     A
C80    C82     1.403   .     A
C81    N107    1.434   .     S
C81    C83     1.414   .     A
C82    N110    1.433   .     S
C82    C84     1.418   .     A
C83    C89     1.417   .     A
C83    C85     1.427   .     A
C84    C90     1.426   .     A
C84    C86     1.430   .     A
C85    C87     1.414   .     A
C85    C24     1.416   1_655 S
C86    C88     1.417   .     A
C87    C92     1.397   .     A
C88    C91     1.400   .     A
C89    N113    1.434   .     S
C89    C29     1.390   1_655 S
C90    N116    1.433   .     S
C91    H93     1.083   .     S
C92    H94     1.083   .     S
C92    C28     1.386   1_655 S
C95    C344    1.351   1_545 S
C95    N367    1.442   1_545 S
C96    C219    1.351   .     S
C96    N246    1.442   .     S
N97    N842    1.296   1_554 S
N97    H843    1.029   1_554 S
N98    N469    1.296   .     S
N98    H472    1.029   .     S
H99    N469    1.029   .     S
H100   N842    1.029   1_554 S
N101   O102    1.301   .     A
N101   O103    1.301   .     A
N104   O106    1.301   .     A
N104   O105    1.301   .     A
N107   O108    1.301   .     A
N107   O109    1.301   .     A
N110   O112    1.301   .     A
N110   O111    1.301   .     A
N113   H115    1.046   .     S
N113   H362    1.046   1_545 S
H114   N237    1.046   .     S
N116   H117    1.043   .     S
N116   H118    1.044   .     S
N119   H120    1.046   .     S
N119   H121    1.045   .     S
N119   C219    1.442   .     S
N122   H124    1.045   .     S
N122   H123    1.046   .     S
N122   C344    1.442   1_545 S
O125   C129    1.288   .     A
O125   Cu137   1.973   .     S
O126   C130    1.288   .     A
O126   Cu138   1.973   .     S
O127   Cu138   1.968   .     S
O127   C129    1.286   .     A
O128   C130    1.286   .     A
O128   Cu137   1.968   .     S
C129   C157    1.433   .     S
C130   C158    1.433   .     S
O131   C135    1.291   .     A
O131   Cu137   1.969   .     S
O132   C136    1.292   .     A
O132   Cu138   1.969   .     S
O133   C135    1.290   .     A
O133   Cu138   1.953   .     S
O134   C136    1.289   .     A
O134   Cu137   1.953   .     S
C135   C142    1.448   .     S
C136   C141    1.448   .     S
Cu137  N160    2.017   .     S
Cu137  Cu138   2.684   .     S
Cu138  N159    2.017   .     S
C139   N163    1.437   .     S
C139   C149    1.401   .     A
C139   C141    1.398   .     A
C140   C150    1.399   .     A
C140   N166    1.437   .     S
C140   C142    1.396   .     A
C141   C143    1.401   .     A
C142   C144    1.403   .     A
C143   N169    1.434   .     S
C143   C145    1.414   .     A
C144   N172    1.433   .     S
C144   C146    1.418   .     A
C145   C151    1.417   .     A
C145   C147    1.427   .     A
C146   C152    1.426   .     A
C146   C148    1.430   .     A
C147   C149    1.414   .     A
C147   C210    1.416   .     S
C148   C150    1.417   .     A
C148   C209    1.416   1_455 S
C149   C154    1.397   .     A
C150   C153    1.400   .     A
C151   N175    1.434   .     S
C151   C215    1.390   .     S
C152   N178    1.433   .     S
C152   C216    1.386   1_455 S
C153   H155    1.083   .     S
C153   C213    1.390   1_455 S
C154   H156    1.083   .     S
C154   C214    1.386   .     S
C158   C281    1.351   .     S
C158   N308    1.442   .     S
N159   N904    1.296   1_554 S
N159   H905    1.029   1_554 S
N160   N531    1.296   .     S
N160   H534    1.029   .     S
H161   N531    1.029   .     S
H162   N904    1.029   1_554 S
N163   O164    1.301   .     A
N163   O165    1.301   .     A
N166   O168    1.301   .     A
N166   O167    1.301   .     A
N169   O170    1.301   .     A
N169   O171    1.301   .     A
N172   O174    1.301   .     A
N172   O173    1.301   .     A
N175   H177    1.046   .     S
H176   N299    1.046   .     S
N178   H179    1.043   .     S
N178   H180    1.044   .     S
N181   H182    1.046   .     S
N181   H183    1.045   .     S
N181   C281    1.442   .     S
N184   H186    1.045   .     S
N184   H185    1.046   .     S
O187   C191    1.288   .     A
O187   Cu199   1.973   .     S
O188   C192    1.288   .     A
O188   Cu200   1.973   .     S
O189   Cu200   1.968   .     S
O189   C191    1.286   .     A
O190   C192    1.286   .     A
O190   Cu199   1.968   .     S
C191   C219    1.433   .     S
C192   C220    1.433   .     S
O193   C197    1.291   .     A
O193   Cu199   1.969   .     S
O194   C198    1.292   .     A
O194   Cu200   1.969   .     S
O195   C197    1.290   .     A
O195   Cu200   1.953   .     S
O196   C198    1.289   .     A
O196   Cu199   1.953   .     S
C197   C204    1.448   .     S
C198   C203    1.448   .     S
Cu199  N222    2.017   .     S
Cu199  Cu200   2.684   .     S
Cu200  N221    2.017   .     S
C201   N225    1.437   .     S
C201   C211    1.401   .     A
C201   C203    1.398   .     A
C202   C212    1.399   .     A
C202   N228    1.437   .     S
C202   C204    1.396   .     A
C203   C205    1.401   .     A
C204   C206    1.403   .     A
C205   N231    1.434   .     S
C205   C207    1.414   .     A
C206   N234    1.433   .     S
C206   C208    1.418   .     A
C207   C213    1.417   .     A
C207   C209    1.427   .     A
C208   C214    1.426   .     A
C208   C210    1.430   .     A
C209   C211    1.414   .     A
C209   C148    1.416   1_655 S
C210   C212    1.417   .     A
C211   C216    1.397   .     A
C212   C215    1.400   .     A
C213   N237    1.434   .     S
C213   C153    1.390   1_655 S
C214   N240    1.433   .     S
C215   H217    1.083   .     S
C216   H218    1.083   .     S
C216   C152    1.386   1_655 S
C220   C343    1.351   .     S
C220   N370    1.442   .     S
N221   N966    1.296   1_554 S
N221   H967    1.029   1_554 S
N222   N593    1.296   .     S
N222   H596    1.029   .     S
H223   N593    1.029   .     S
H224   N966    1.029   1_554 S
N225   O226    1.301   .     A
N225   O227    1.301   .     A
N228   O230    1.301   .     A
N228   O229    1.301   .     A
N231   O232    1.301   .     A
N231   O233    1.301   .     A
N234   O236    1.301   .     A
N234   O235    1.301   .     A
N237   H239    1.046   .     S
H238   N361    1.046   .     S
N240   H241    1.043   .     S
N240   H242    1.044   .     S
N243   H244    1.046   .     S
N243   H245    1.045   .     S
N243   C343    1.442   .     S
N246   H248    1.045   .     S
N246   H247    1.046   .     S
O249   C253    1.288   .     A
O249   Cu261   1.973   .     S
O250   C254    1.288   .     A
O250   Cu262   1.973   .     S
O251   Cu262   1.968   .     S
O251   C253    1.286   .     A
O252   C254    1.286   .     A
O252   Cu261   1.968   .     S
C253   C281    1.433   .     S
C254   C282    1.433   .     S
O255   C259    1.291   .     A
O255   Cu261   1.969   .     S
O256   C260    1.292   .     A
O256   Cu262   1.969   .     S
O257   C259    1.290   .     A
O257   Cu262   1.953   .     S
O258   C260    1.289   .     A
O258   Cu261   1.953   .     S
C259   C266    1.448   .     S
C260   C265    1.448   .     S
Cu261  N284    2.017   .     S
Cu261  Cu262   2.684   .     S
Cu262  N283    2.017   .     S
C263   N287    1.437   .     S
C263   C273    1.401   .     A
C263   C265    1.398   .     A
C264   C274    1.399   .     A
C264   N290    1.437   .     S
C264   C266    1.396   .     A
C265   C267    1.401   .     A
C266   C268    1.403   .     A
C267   N293    1.434   .     S
C267   C269    1.414   .     A
C268   N296    1.433   .     S
C268   C270    1.418   .     A
C269   C275    1.417   .     A
C269   C271    1.427   .     A
C270   C276    1.426   .     A
C270   C272    1.430   .     A
C271   C273    1.414   .     A
C271   C334    1.416   .     S
C272   C274    1.417   .     A
C272   C333    1.416   1_455 S
C273   C278    1.397   .     A
C274   C277    1.400   .     A
C275   N299    1.434   .     S
C275   C339    1.390   .     S
C276   N302    1.433   .     S
C276   C340    1.386   1_455 S
C277   H279    1.083   .     S
C277   C337    1.390   1_455 S
C278   H280    1.083   .     S
C278   C338    1.386   .     S
C282   C33     1.351   1_565 S
C282   N60     1.442   1_565 S
N283   N1028   1.296   1_554 S
N283   H1029   1.029   1_554 S
N284   N655    1.296   .     S
N284   H658    1.029   .     S
H285   N655    1.029   .     S
H286   N1028   1.029   1_554 S
N287   O288    1.301   .     A
N287   O289    1.301   .     A
N290   O292    1.301   .     A
N290   O291    1.301   .     A
N293   O294    1.301   .     A
N293   O295    1.301   .     A
N296   O298    1.301   .     A
N296   O297    1.301   .     A
N299   H301    1.046   .     S
H300   N51     1.046   1_565 S
N302   H303    1.043   .     S
N302   H304    1.044   .     S
N305   H306    1.046   .     S
N305   H307    1.045   .     S
N305   C33     1.442   1_565 S
N308   H310    1.045   .     S
N308   H309    1.046   .     S
O311   C315    1.288   .     A
O311   Cu323   1.973   .     S
O312   C316    1.288   .     A
O312   Cu324   1.973   .     S
O313   Cu324   1.968   .     S
O313   C315    1.286   .     A
O314   C316    1.286   .     A
O314   Cu323   1.968   .     S
C315   C343    1.433   .     S
C316   C344    1.433   .     S
O317   C321    1.291   .     A
O317   Cu323   1.969   .     S
O318   C322    1.292   .     A
O318   Cu324   1.969   .     S
O319   C321    1.290   .     A
O319   Cu324   1.953   .     S
O320   C322    1.289   .     A
O320   Cu323   1.953   .     S
C321   C328    1.448   .     S
C322   C327    1.448   .     S
Cu323  N346    2.017   .     S
Cu323  Cu324   2.684   .     S
Cu324  N345    2.017   .     S
C325   N349    1.437   .     S
C325   C335    1.401   .     A
C325   C327    1.398   .     A
C326   C336    1.399   .     A
C326   N352    1.437   .     S
C326   C328    1.396   .     A
C327   C329    1.401   .     A
C328   C330    1.403   .     A
C329   N355    1.434   .     S
C329   C331    1.414   .     A
C330   N358    1.433   .     S
C330   C332    1.418   .     A
C331   C337    1.417   .     A
C331   C333    1.427   .     A
C332   C338    1.426   .     A
C332   C334    1.430   .     A
C333   C335    1.414   .     A
C333   C272    1.416   1_655 S
C334   C336    1.417   .     A
C335   C340    1.397   .     A
C336   C339    1.400   .     A
C337   N361    1.434   .     S
C337   C277    1.390   1_655 S
C338   N364    1.433   .     S
C339   H341    1.083   .     S
C340   H342    1.083   .     S
C340   C276    1.386   1_655 S
C344   C95     1.351   1_565 S
C344   N122    1.442   1_565 S
N345   N1090   1.296   1_554 S
N345   H1091   1.029   1_554 S
N346   N717    1.296   .     S
N346   H720    1.029   .     S
H347   N717    1.029   .     S
H348   N1090   1.029   1_554 S
N349   O350    1.301   .     A
N349   O351    1.301   .     A
N352   O354    1.301   .     A
N352   O353    1.301   .     A
N355   O356    1.301   .     A
N355   O357    1.301   .     A
N358   O360    1.301   .     A
N358   O359    1.301   .     A
N361   H363    1.046   .     S
H362   N113    1.046   1_565 S
N364   H365    1.043   .     S
N364   H366    1.044   .     S
N367   H368    1.046   .     S
N367   H369    1.045   .     S
N367   C95     1.442   1_565 S
N370   H372    1.045   .     S
N370   H371    1.046   .     S
O373   C377    1.288   .     A
O373   Cu385   1.973   .     S
O374   C378    1.288   .     A
O374   Cu386   1.973   .     S
O375   Cu386   1.968   .     S
O375   C377    1.286   .     A
O376   C378    1.286   .     A
O376   Cu385   1.968   .     S
C377   C405    1.433   .     S
C378   C406    1.433   .     S
O379   C383    1.291   .     A
O379   Cu385   1.969   .     S
O380   C384    1.292   .     A
O380   Cu386   1.969   .     S
O381   C383    1.290   .     A
O381   Cu386   1.953   .     S
O382   C384    1.289   .     A
O382   Cu385   1.953   .     S
C383   C390    1.448   .     S
C384   C389    1.448   .     S
Cu385  N408    2.017   .     S
Cu385  Cu386   2.684   .     S
Cu386  N407    2.017   .     S
C387   N411    1.437   .     S
C387   C397    1.401   .     A
C387   C389    1.398   .     A
C388   C398    1.399   .     A
C388   N414    1.437   .     S
C388   C390    1.396   .     A
C389   C391    1.401   .     A
C390   C392    1.403   .     A
C391   N417    1.434   .     S
C391   C393    1.414   .     A
C392   N420    1.433   .     S
C392   C394    1.418   .     A
C393   C399    1.417   .     A
C393   C395    1.427   .     A
C394   C400    1.426   .     A
C394   C396    1.430   .     A
C395   C397    1.414   .     A
C395   C458    1.416   .     S
C396   C398    1.417   .     A
C396   C457    1.416   1_455 S
C397   C402    1.397   .     A
C398   C401    1.400   .     A
C399   N423    1.434   .     S
C399   C463    1.390   .     S
C400   N426    1.433   .     S
C400   C464    1.386   1_455 S
C401   H403    1.083   .     S
C401   C461    1.390   1_455 S
C402   H404    1.083   .     S
C402   C462    1.386   .     S
C405   C654    1.351   1_545 S
C405   N677    1.442   1_545 S
C406   C529    1.351   .     S
C406   N556    1.442   .     S
N408   N779    1.296   .     S
N408   H782    1.029   .     S
H409   N779    1.029   .     S
N411   O412    1.301   .     A
N411   O413    1.301   .     A
N414   O416    1.301   .     A
N414   O415    1.301   .     A
N417   O418    1.301   .     A
N417   O419    1.301   .     A
N420   O422    1.301   .     A
N420   O421    1.301   .     A
N423   H425    1.046   .     S
N423   H672    1.046   1_545 S
H424   N547    1.046   .     S
N426   H427    1.043   .     S
N426   H428    1.044   .     S
N429   H430    1.046   .     S
N429   H431    1.045   .     S
N429   C529    1.442   .     S
N432   H434    1.045   .     S
N432   H433    1.046   .     S
N432   C654    1.442   1_545 S
O435   C439    1.288   .     A
O435   Cu447   1.973   .     S
O436   C440    1.288   .     A
O436   Cu448   1.973   .     S
O437   Cu448   1.968   .     S
O437   C439    1.286   .     A
O438   C440    1.286   .     A
O438   Cu447   1.968   .     S
C439   C467    1.433   .     S
C440   C468    1.433   .     S
O441   C445    1.291   .     A
O441   Cu447   1.969   .     S
O442   C446    1.292   .     A
O442   Cu448   1.969   .     S
O443   C445    1.290   .     A
O443   Cu448   1.953   .     S
O444   C446    1.289   .     A
O444   Cu447   1.953   .     S
C445   C452    1.448   .     S
C446   C451    1.448   .     S
Cu447  N470    2.017   .     S
Cu447  Cu448   2.684   .     S
Cu448  N469    2.017   .     S
C449   N473    1.437   .     S
C449   C459    1.401   .     A
C449   C451    1.398   .     A
C450   C460    1.399   .     A
C450   N476    1.437   .     S
C450   C452    1.396   .     A
C451   C453    1.401   .     A
C452   C454    1.403   .     A
C453   N479    1.434   .     S
C453   C455    1.414   .     A
C454   N482    1.433   .     S
C454   C456    1.418   .     A
C455   C461    1.417   .     A
C455   C457    1.427   .     A
C456   C462    1.426   .     A
C456   C458    1.430   .     A
C457   C459    1.414   .     A
C457   C396    1.416   1_655 S
C458   C460    1.417   .     A
C459   C464    1.397   .     A
C460   C463    1.400   .     A
C461   N485    1.434   .     S
C461   C401    1.390   1_655 S
C462   N488    1.433   .     S
C463   H465    1.083   .     S
C464   H466    1.083   .     S
C464   C400    1.386   1_655 S
C467   C716    1.351   1_545 S
C467   N739    1.442   1_545 S
C468   C591    1.351   .     S
C468   N618    1.442   .     S
N470   N841    1.296   .     S
N470   H844    1.029   .     S
H471   N841    1.029   .     S
N473   O474    1.301   .     A
N473   O475    1.301   .     A
N476   O478    1.301   .     A
N476   O477    1.301   .     A
N479   O480    1.301   .     A
N479   O481    1.301   .     A
N482   O484    1.301   .     A
N482   O483    1.301   .     A
N485   H487    1.046   .     S
N485   H734    1.046   1_545 S
H486   N609    1.046   .     S
N488   H489    1.043   .     S
N488   H490    1.044   .     S
N491   H492    1.046   .     S
N491   H493    1.045   .     S
N491   C591    1.442   .     S
N494   H496    1.045   .     S
N494   H495    1.046   .     S
N494   C716    1.442   1_545 S
O497   C501    1.288   .     A
O497   Cu509   1.973   .     S
O498   C502    1.288   .     A
O498   Cu510   1.973   .     S
O499   Cu510   1.968   .     S
O499   C501    1.286   .     A
O500   C502    1.286   .     A
O500   Cu509   1.968   .     S
C501   C529    1.433   .     S
C502   C530    1.433   .     S
O503   C507    1.291   .     A
O503   Cu509   1.969   .     S
O504   C508    1.292   .     A
O504   Cu510   1.969   .     S
O505   C507    1.290   .     A
O505   Cu510   1.953   .     S
O506   C508    1.289   .     A
O506   Cu509   1.953   .     S
C507   C514    1.448   .     S
C508   C513    1.448   .     S
Cu509  N532    2.017   .     S
Cu509  Cu510   2.684   .     S
Cu510  N531    2.017   .     S
C511   N535    1.437   .     S
C511   C521    1.401   .     A
C511   C513    1.398   .     A
C512   C522    1.399   .     A
C512   N538    1.437   .     S
C512   C514    1.396   .     A
C513   C515    1.401   .     A
C514   C516    1.403   .     A
C515   N541    1.434   .     S
C515   C517    1.414   .     A
C516   N544    1.433   .     S
C516   C518    1.418   .     A
C517   C523    1.417   .     A
C517   C519    1.427   .     A
C518   C524    1.426   .     A
C518   C520    1.430   .     A
C519   C521    1.414   .     A
C519   C582    1.416   .     S
C520   C522    1.417   .     A
C520   C581    1.416   1_455 S
C521   C526    1.397   .     A
C522   C525    1.400   .     A
C523   N547    1.434   .     S
C523   C587    1.390   .     S
C524   N550    1.433   .     S
C524   C588    1.386   1_455 S
C525   H527    1.083   .     S
C525   C585    1.390   1_455 S
C526   H528    1.083   .     S
C526   C586    1.386   .     S
C530   C653    1.351   .     S
C530   N680    1.442   .     S
N532   N903    1.296   .     S
N532   H906    1.029   .     S
H533   N903    1.029   .     S
N535   O536    1.301   .     A
N535   O537    1.301   .     A
N538   O540    1.301   .     A
N538   O539    1.301   .     A
N541   O542    1.301   .     A
N541   O543    1.301   .     A
N544   O546    1.301   .     A
N544   O545    1.301   .     A
N547   H549    1.046   .     S
H548   N671    1.046   .     S
N550   H551    1.043   .     S
N550   H552    1.044   .     S
N553   H554    1.046   .     S
N553   H555    1.045   .     S
N553   C653    1.442   .     S
N556   H558    1.045   .     S
N556   H557    1.046   .     S
O559   C563    1.288   .     A
O559   Cu571   1.973   .     S
O560   C564    1.288   .     A
O560   Cu572   1.973   .     S
O561   Cu572   1.968   .     S
O561   C563    1.286   .     A
O562   C564    1.286   .     A
O562   Cu571   1.968   .     S
C563   C591    1.433   .     S
C564   C592    1.433   .     S
O565   C569    1.291   .     A
O565   Cu571   1.969   .     S
O566   C570    1.292   .     A
O566   Cu572   1.969   .     S
O567   C569    1.290   .     A
O567   Cu572   1.953   .     S
O568   C570    1.289   .     A
O568   Cu571   1.953   .     S
C569   C576    1.448   .     S
C570   C575    1.448   .     S
Cu571  N594    2.017   .     S
Cu571  Cu572   2.684   .     S
Cu572  N593    2.017   .     S
C573   N597    1.437   .     S
C573   C583    1.401   .     A
C573   C575    1.398   .     A
C574   C584    1.399   .     A
C574   N600    1.437   .     S
C574   C576    1.396   .     A
C575   C577    1.401   .     A
C576   C578    1.403   .     A
C577   N603    1.434   .     S
C577   C579    1.414   .     A
C578   N606    1.433   .     S
C578   C580    1.418   .     A
C579   C585    1.417   .     A
C579   C581    1.427   .     A
C580   C586    1.426   .     A
C580   C582    1.430   .     A
C581   C583    1.414   .     A
C581   C520    1.416   1_655 S
C582   C584    1.417   .     A
C583   C588    1.397   .     A
C584   C587    1.400   .     A
C585   N609    1.434   .     S
C585   C525    1.390   1_655 S
C586   N612    1.433   .     S
C587   H589    1.083   .     S
C588   H590    1.083   .     S
C588   C524    1.386   1_655 S
C592   C715    1.351   .     S
C592   N742    1.442   .     S
N594   N965    1.296   .     S
N594   H968    1.029   .     S
H595   N965    1.029   .     S
N597   O598    1.301   .     A
N597   O599    1.301   .     A
N600   O602    1.301   .     A
N600   O601    1.301   .     A
N603   O604    1.301   .     A
N603   O605    1.301   .     A
N606   O608    1.301   .     A
N606   O607    1.301   .     A
N609   H611    1.046   .     S
H610   N733    1.046   .     S
N612   H613    1.043   .     S
N612   H614    1.044   .     S
N615   H616    1.046   .     S
N615   H617    1.045   .     S
N615   C715    1.442   .     S
N618   H620    1.045   .     S
N618   H619    1.046   .     S
O621   C625    1.288   .     A
O621   Cu633   1.973   .     S
O622   C626    1.288   .     A
O622   Cu634   1.973   .     S
O623   Cu634   1.968   .     S
O623   C625    1.286   .     A
O624   C626    1.286   .     A
O624   Cu633   1.968   .     S
C625   C653    1.433   .     S
C626   C654    1.433   .     S
O627   C631    1.291   .     A
O627   Cu633   1.969   .     S
O628   C632    1.292   .     A
O628   Cu634   1.969   .     S
O629   C631    1.290   .     A
O629   Cu634   1.953   .     S
O630   C632    1.289   .     A
O630   Cu633   1.953   .     S
C631   C638    1.448   .     S
C632   C637    1.448   .     S
Cu633  N656    2.017   .     S
Cu633  Cu634   2.684   .     S
Cu634  N655    2.017   .     S
C635   N659    1.437   .     S
C635   C645    1.401   .     A
C635   C637    1.398   .     A
C636   C646    1.399   .     A
C636   N662    1.437   .     S
C636   C638    1.396   .     A
C637   C639    1.401   .     A
C638   C640    1.403   .     A
C639   N665    1.434   .     S
C639   C641    1.414   .     A
C640   N668    1.433   .     S
C640   C642    1.418   .     A
C641   C647    1.417   .     A
C641   C643    1.427   .     A
C642   C648    1.426   .     A
C642   C644    1.430   .     A
C643   C645    1.414   .     A
C643   C706    1.416   .     S
C644   C646    1.417   .     A
C644   C705    1.416   1_455 S
C645   C650    1.397   .     A
C646   C649    1.400   .     A
C647   N671    1.434   .     S
C647   C711    1.390   .     S
C648   N674    1.433   .     S
C648   C712    1.386   1_455 S
C649   H651    1.083   .     S
C649   C709    1.390   1_455 S
C650   H652    1.083   .     S
C650   C710    1.386   .     S
C654   C405    1.351   1_565 S
C654   N432    1.442   1_565 S
N656   N1027   1.296   .     S
N656   H1030   1.029   .     S
H657   N1027   1.029   .     S
N659   O660    1.301   .     A
N659   O661    1.301   .     A
N662   O664    1.301   .     A
N662   O663    1.301   .     A
N665   O666    1.301   .     A
N665   O667    1.301   .     A
N668   O670    1.301   .     A
N668   O669    1.301   .     A
N671   H673    1.046   .     S
H672   N423    1.046   1_565 S
N674   H675    1.043   .     S
N674   H676    1.044   .     S
N677   H678    1.046   .     S
N677   H679    1.045   .     S
N677   C405    1.442   1_565 S
N680   H682    1.045   .     S
N680   H681    1.046   .     S
O683   C687    1.288   .     A
O683   Cu695   1.973   .     S
O684   C688    1.288   .     A
O684   Cu696   1.973   .     S
O685   Cu696   1.968   .     S
O685   C687    1.286   .     A
O686   C688    1.286   .     A
O686   Cu695   1.968   .     S
C687   C715    1.433   .     S
C688   C716    1.433   .     S
O689   C693    1.291   .     A
O689   Cu695   1.969   .     S
O690   C694    1.292   .     A
O690   Cu696   1.969   .     S
O691   C693    1.290   .     A
O691   Cu696   1.953   .     S
O692   C694    1.289   .     A
O692   Cu695   1.953   .     S
C693   C700    1.448   .     S
C694   C699    1.448   .     S
Cu695  N718    2.017   .     S
Cu695  Cu696   2.684   .     S
Cu696  N717    2.017   .     S
C697   N721    1.437   .     S
C697   C707    1.401   .     A
C697   C699    1.398   .     A
C698   C708    1.399   .     A
C698   N724    1.437   .     S
C698   C700    1.396   .     A
C699   C701    1.401   .     A
C700   C702    1.403   .     A
C701   N727    1.434   .     S
C701   C703    1.414   .     A
C702   N730    1.433   .     S
C702   C704    1.418   .     A
C703   C709    1.417   .     A
C703   C705    1.427   .     A
C704   C710    1.426   .     A
C704   C706    1.430   .     A
C705   C707    1.414   .     A
C705   C644    1.416   1_655 S
C706   C708    1.417   .     A
C707   C712    1.397   .     A
C708   C711    1.400   .     A
C709   N733    1.434   .     S
C709   C649    1.390   1_655 S
C710   N736    1.433   .     S
C711   H713    1.083   .     S
C712   H714    1.083   .     S
C712   C648    1.386   1_655 S
C716   C467    1.351   1_565 S
C716   N494    1.442   1_565 S
N718   N1089   1.296   .     S
N718   H1092   1.029   .     S
H719   N1089   1.029   .     S
N721   O722    1.301   .     A
N721   O723    1.301   .     A
N724   O726    1.301   .     A
N724   O725    1.301   .     A
N727   O728    1.301   .     A
N727   O729    1.301   .     A
N730   O732    1.301   .     A
N730   O731    1.301   .     A
N733   H735    1.046   .     S
H734   N485    1.046   1_565 S
N736   H737    1.043   .     S
N736   H738    1.044   .     S
N739   H740    1.046   .     S
N739   H741    1.045   .     S
N739   C467    1.442   1_565 S
N742   H744    1.045   .     S
N742   H743    1.046   .     S
O745   C749    1.288   .     A
O745   Cu757   1.973   .     S
O746   C750    1.288   .     A
O746   Cu758   1.973   .     S
O747   Cu758   1.968   .     S
O747   C749    1.286   .     A
O748   C750    1.286   .     A
O748   Cu757   1.968   .     S
C749   C777    1.433   .     S
C750   C778    1.433   .     S
O751   C755    1.291   .     A
O751   Cu757   1.969   .     S
O752   C756    1.292   .     A
O752   Cu758   1.969   .     S
O753   C755    1.290   .     A
O753   Cu758   1.953   .     S
O754   C756    1.289   .     A
O754   Cu757   1.953   .     S
C755   C762    1.448   .     S
C756   C761    1.448   .     S
Cu757  N780    2.017   .     S
Cu757  Cu758   2.684   .     S
Cu758  N779    2.017   .     S
C759   N783    1.437   .     S
C759   C769    1.401   .     A
C759   C761    1.398   .     A
C760   C770    1.399   .     A
C760   N786    1.437   .     S
C760   C762    1.396   .     A
C761   C763    1.401   .     A
C762   C764    1.403   .     A
C763   N789    1.434   .     S
C763   C765    1.414   .     A
C764   N792    1.433   .     S
C764   C766    1.418   .     A
C765   C771    1.417   .     A
C765   C767    1.427   .     A
C766   C772    1.426   .     A
C766   C768    1.430   .     A
C767   C769    1.414   .     A
C767   C830    1.416   .     S
C768   C770    1.417   .     A
C768   C829    1.416   1_455 S
C769   C774    1.397   .     A
C770   C773    1.400   .     A
C771   N795    1.434   .     S
C771   C835    1.390   .     S
C772   N798    1.433   .     S
C772   C836    1.386   1_455 S
C773   H775    1.083   .     S
C773   C833    1.390   1_455 S
C774   H776    1.083   .     S
C774   C834    1.386   .     S
C777   C1026   1.351   1_545 S
C777   N1049   1.442   1_545 S
C778   C901    1.351   .     S
C778   N928    1.442   .     S
N780   N35     1.296   1_556 S
N780   H38     1.029   1_556 S
H781   N35     1.029   1_556 S
N783   O784    1.301   .     A
N783   O785    1.301   .     A
N786   O788    1.301   .     A
N786   O787    1.301   .     A
N789   O790    1.301   .     A
N789   O791    1.301   .     A
N792   O794    1.301   .     A
N792   O793    1.301   .     A
N795   H797    1.046   .     S
N795   H1044   1.046   1_545 S
H796   N919    1.046   .     S
N798   H799    1.043   .     S
N798   H800    1.044   .     S
N801   H802    1.046   .     S
N801   H803    1.045   .     S
N801   C901    1.442   .     S
N804   H806    1.045   .     S
N804   H805    1.046   .     S
N804   C1026   1.442   1_545 S
O807   C811    1.288   .     A
O807   Cu819   1.973   .     S
O808   C812    1.288   .     A
O808   Cu820   1.973   .     S
O809   Cu820   1.968   .     S
O809   C811    1.286   .     A
O810   C812    1.286   .     A
O810   Cu819   1.968   .     S
C811   C839    1.433   .     S
C812   C840    1.433   .     S
O813   C817    1.291   .     A
O813   Cu819   1.969   .     S
O814   C818    1.292   .     A
O814   Cu820   1.969   .     S
O815   C817    1.290   .     A
O815   Cu820   1.953   .     S
O816   C818    1.289   .     A
O816   Cu819   1.953   .     S
C817   C824    1.448   .     S
C818   C823    1.448   .     S
Cu819  N842    2.017   .     S
Cu819  Cu820   2.684   .     S
Cu820  N841    2.017   .     S
C821   N845    1.437   .     S
C821   C831    1.401   .     A
C821   C823    1.398   .     A
C822   C832    1.399   .     A
C822   N848    1.437   .     S
C822   C824    1.396   .     A
C823   C825    1.401   .     A
C824   C826    1.403   .     A
C825   N851    1.434   .     S
C825   C827    1.414   .     A
C826   N854    1.433   .     S
C826   C828    1.418   .     A
C827   C833    1.417   .     A
C827   C829    1.427   .     A
C828   C834    1.426   .     A
C828   C830    1.430   .     A
C829   C831    1.414   .     A
C829   C768    1.416   1_655 S
C830   C832    1.417   .     A
C831   C836    1.397   .     A
C832   C835    1.400   .     A
C833   N857    1.434   .     S
C833   C773    1.390   1_655 S
C834   N860    1.433   .     S
C835   H837    1.083   .     S
C836   H838    1.083   .     S
C836   C772    1.386   1_655 S
C839   C1088   1.351   1_545 S
C839   N1111   1.442   1_545 S
C840   C963    1.351   .     S
C840   N990    1.442   .     S
N842   N97     1.296   1_556 S
N842   H100    1.029   1_556 S
H843   N97     1.029   1_556 S
N845   O846    1.301   .     A
N845   O847    1.301   .     A
N848   O850    1.301   .     A
N848   O849    1.301   .     A
N851   O852    1.301   .     A
N851   O853    1.301   .     A
N854   O856    1.301   .     A
N854   O855    1.301   .     A
N857   H859    1.046   .     S
N857   H1106   1.046   1_545 S
H858   N981    1.046   .     S
N860   H861    1.043   .     S
N860   H862    1.044   .     S
N863   H864    1.046   .     S
N863   H865    1.045   .     S
N863   C963    1.442   .     S
N866   H868    1.045   .     S
N866   H867    1.046   .     S
N866   C1088   1.442   1_545 S
O869   C873    1.288   .     A
O869   Cu881   1.973   .     S
O870   C874    1.288   .     A
O870   Cu882   1.973   .     S
O871   Cu882   1.968   .     S
O871   C873    1.286   .     A
O872   C874    1.286   .     A
O872   Cu881   1.968   .     S
C873   C901    1.433   .     S
C874   C902    1.433   .     S
O875   C879    1.291   .     A
O875   Cu881   1.969   .     S
O876   C880    1.292   .     A
O876   Cu882   1.969   .     S
O877   C879    1.290   .     A
O877   Cu882   1.953   .     S
O878   C880    1.289   .     A
O878   Cu881   1.953   .     S
C879   C886    1.448   .     S
C880   C885    1.448   .     S
Cu881  N904    2.017   .     S
Cu881  Cu882   2.684   .     S
Cu882  N903    2.017   .     S
C883   N907    1.437   .     S
C883   C893    1.401   .     A
C883   C885    1.398   .     A
C884   C894    1.399   .     A
C884   N910    1.437   .     S
C884   C886    1.396   .     A
C885   C887    1.401   .     A
C886   C888    1.403   .     A
C887   N913    1.434   .     S
C887   C889    1.414   .     A
C888   N916    1.433   .     S
C888   C890    1.418   .     A
C889   C895    1.417   .     A
C889   C891    1.427   .     A
C890   C896    1.426   .     A
C890   C892    1.430   .     A
C891   C893    1.414   .     A
C891   C954    1.416   .     S
C892   C894    1.417   .     A
C892   C953    1.416   1_455 S
C893   C898    1.397   .     A
C894   C897    1.400   .     A
C895   N919    1.434   .     S
C895   C959    1.390   .     S
C896   N922    1.433   .     S
C896   C960    1.386   1_455 S
C897   H899    1.083   .     S
C897   C957    1.390   1_455 S
C898   H900    1.083   .     S
C898   C958    1.386   .     S
C902   C1025   1.351   .     S
C902   N1052   1.442   .     S
N904   N159    1.296   1_556 S
N904   H162    1.029   1_556 S
H905   N159    1.029   1_556 S
N907   O908    1.301   .     A
N907   O909    1.301   .     A
N910   O912    1.301   .     A
N910   O911    1.301   .     A
N913   O914    1.301   .     A
N913   O915    1.301   .     A
N916   O918    1.301   .     A
N916   O917    1.301   .     A
N919   H921    1.046   .     S
H920   N1043   1.046   .     S
N922   H923    1.043   .     S
N922   H924    1.044   .     S
N925   H926    1.046   .     S
N925   H927    1.045   .     S
N925   C1025   1.442   .     S
N928   H930    1.045   .     S
N928   H929    1.046   .     S
O931   C935    1.288   .     A
O931   Cu943   1.973   .     S
O932   C936    1.288   .     A
O932   Cu944   1.973   .     S
O933   Cu944   1.968   .     S
O933   C935    1.286   .     A
O934   C936    1.286   .     A
O934   Cu943   1.968   .     S
C935   C963    1.433   .     S
C936   C964    1.433   .     S
O937   C941    1.291   .     A
O937   Cu943   1.969   .     S
O938   C942    1.292   .     A
O938   Cu944   1.969   .     S
O939   C941    1.290   .     A
O939   Cu944   1.953   .     S
O940   C942    1.289   .     A
O940   Cu943   1.953   .     S
C941   C948    1.448   .     S
C942   C947    1.448   .     S
Cu943  N966    2.017   .     S
Cu943  Cu944   2.684   .     S
Cu944  N965    2.017   .     S
C945   N969    1.437   .     S
C945   C955    1.401   .     A
C945   C947    1.398   .     A
C946   C956    1.399   .     A
C946   N972    1.437   .     S
C946   C948    1.396   .     A
C947   C949    1.401   .     A
C948   C950    1.403   .     A
C949   N975    1.434   .     S
C949   C951    1.414   .     A
C950   N978    1.433   .     S
C950   C952    1.418   .     A
C951   C957    1.417   .     A
C951   C953    1.427   .     A
C952   C958    1.426   .     A
C952   C954    1.430   .     A
C953   C955    1.414   .     A
C953   C892    1.416   1_655 S
C954   C956    1.417   .     A
C955   C960    1.397   .     A
C956   C959    1.400   .     A
C957   N981    1.434   .     S
C957   C897    1.390   1_655 S
C958   N984    1.433   .     S
C959   H961    1.083   .     S
C960   H962    1.083   .     S
C960   C896    1.386   1_655 S
C964   C1087   1.351   .     S
C964   N1114   1.442   .     S
N966   N221    1.296   1_556 S
N966   H224    1.029   1_556 S
H967   N221    1.029   1_556 S
N969   O970    1.301   .     A
N969   O971    1.301   .     A
N972   O974    1.301   .     A
N972   O973    1.301   .     A
N975   O976    1.301   .     A
N975   O977    1.301   .     A
N978   O980    1.301   .     A
N978   O979    1.301   .     A
N981   H983    1.046   .     S
H982   N1105   1.046   .     S
N984   H985    1.043   .     S
N984   H986    1.044   .     S
N987   H988    1.046   .     S
N987   H989    1.045   .     S
N987   C1087   1.442   .     S
N990   H992    1.045   .     S
N990   H991    1.046   .     S
O993   C997    1.288   .     A
O993   Cu1005  1.973   .     S
O994   C998    1.288   .     A
O994   Cu1006  1.973   .     S
O995   Cu1006  1.968   .     S
O995   C997    1.286   .     A
O996   C998    1.286   .     A
O996   Cu1005  1.968   .     S
C997   C1025   1.433   .     S
C998   C1026   1.433   .     S
O999   C1003   1.291   .     A
O999   Cu1005  1.969   .     S
O1000  C1004   1.292   .     A
O1000  Cu1006  1.969   .     S
O1001  C1003   1.290   .     A
O1001  Cu1006  1.953   .     S
O1002  C1004   1.289   .     A
O1002  Cu1005  1.953   .     S
C1003  C1010   1.448   .     S
C1004  C1009   1.448   .     S
Cu1005 N1028   2.017   .     S
Cu1005 Cu1006  2.684   .     S
Cu1006 N1027   2.017   .     S
C1007  N1031   1.437   .     S
C1007  C1017   1.401   .     A
C1007  C1009   1.398   .     A
C1008  C1018   1.399   .     A
C1008  N1034   1.437   .     S
C1008  C1010   1.396   .     A
C1009  C1011   1.401   .     A
C1010  C1012   1.403   .     A
C1011  N1037   1.434   .     S
C1011  C1013   1.414   .     A
C1012  N1040   1.433   .     S
C1012  C1014   1.418   .     A
C1013  C1019   1.417   .     A
C1013  C1015   1.427   .     A
C1014  C1020   1.426   .     A
C1014  C1016   1.430   .     A
C1015  C1017   1.414   .     A
C1015  C1078   1.416   .     S
C1016  C1018   1.417   .     A
C1016  C1077   1.416   1_455 S
C1017  C1022   1.397   .     A
C1018  C1021   1.400   .     A
C1019  N1043   1.434   .     S
C1019  C1083   1.390   .     S
C1020  N1046   1.433   .     S
C1020  C1084   1.386   1_455 S
C1021  H1023   1.083   .     S
C1021  C1081   1.390   1_455 S
C1022  H1024   1.083   .     S
C1022  C1082   1.386   .     S
C1026  C777    1.351   1_565 S
C1026  N804    1.442   1_565 S
N1028  N283    1.296   1_556 S
N1028  H286    1.029   1_556 S
H1029  N283    1.029   1_556 S
N1031  O1032   1.301   .     A
N1031  O1033   1.301   .     A
N1034  O1036   1.301   .     A
N1034  O1035   1.301   .     A
N1037  O1038   1.301   .     A
N1037  O1039   1.301   .     A
N1040  O1042   1.301   .     A
N1040  O1041   1.301   .     A
N1043  H1045   1.046   .     S
H1044  N795    1.046   1_565 S
N1046  H1047   1.043   .     S
N1046  H1048   1.044   .     S
N1049  H1050   1.046   .     S
N1049  H1051   1.045   .     S
N1049  C777    1.442   1_565 S
N1052  H1054   1.045   .     S
N1052  H1053   1.046   .     S
O1055  C1059   1.288   .     A
O1055  Cu1067  1.973   .     S
O1056  C1060   1.288   .     A
O1056  Cu1068  1.973   .     S
O1057  Cu1068  1.968   .     S
O1057  C1059   1.286   .     A
O1058  C1060   1.286   .     A
O1058  Cu1067  1.968   .     S
C1059  C1087   1.433   .     S
C1060  C1088   1.433   .     S
O1061  C1065   1.291   .     A
O1061  Cu1067  1.969   .     S
O1062  C1066   1.292   .     A
O1062  Cu1068  1.969   .     S
O1063  C1065   1.290   .     A
O1063  Cu1068  1.953   .     S
O1064  C1066   1.289   .     A
O1064  Cu1067  1.953   .     S
C1065  C1072   1.448   .     S
C1066  C1071   1.448   .     S
Cu1067 N1090   2.017   .     S
Cu1067 Cu1068  2.684   .     S
Cu1068 N1089   2.017   .     S
C1069  N1093   1.437   .     S
C1069  C1079   1.401   .     A
C1069  C1071   1.398   .     A
C1070  C1080   1.399   .     A
C1070  N1096   1.437   .     S
C1070  C1072   1.396   .     A
C1071  C1073   1.401   .     A
C1072  C1074   1.403   .     A
C1073  N1099   1.434   .     S
C1073  C1075   1.414   .     A
C1074  N1102   1.433   .     S
C1074  C1076   1.418   .     A
C1075  C1081   1.417   .     A
C1075  C1077   1.427   .     A
C1076  C1082   1.426   .     A
C1076  C1078   1.430   .     A
C1077  C1079   1.414   .     A
C1077  C1016   1.416   1_655 S
C1078  C1080   1.417   .     A
C1079  C1084   1.397   .     A
C1080  C1083   1.400   .     A
C1081  N1105   1.434   .     S
C1081  C1021   1.390   1_655 S
C1082  N1108   1.433   .     S
C1083  H1085   1.083   .     S
C1084  H1086   1.083   .     S
C1084  C1020   1.386   1_655 S
C1088  C839    1.351   1_565 S
C1088  N866    1.442   1_565 S
N1090  N345    1.296   1_556 S
N1090  H348    1.029   1_556 S
H1091  N345    1.029   1_556 S
N1093  O1094   1.301   .     A
N1093  O1095   1.301   .     A
N1096  O1098   1.301   .     A
N1096  O1097   1.301   .     A
N1099  O1100   1.301   .     A
N1099  O1101   1.301   .     A
N1102  O1104   1.301   .     A
N1102  O1103   1.301   .     A
N1105  H1107   1.046   .     S
H1106  N857    1.046   1_565 S
N1108  H1109   1.043   .     S
N1108  H1110   1.044   .     S
N1111  H1112   1.046   .     S
N1111  H1113   1.045   .     S
N1111  C839    1.442   1_565 S
N1114  H1116   1.045   .     S
N1114  H1115   1.046   .     S
