data_str_m2_o2_o5_pcu_sym.46
_audit_creation_date              2020-01-03
_audit_creation_method            'Materials Studio'
_symmetry_space_group_name_H-M    'P1'
_symmetry_Int_Tables_number       1
_symmetry_cell_setting            triclinic
loop_
_symmetry_equiv_pos_as_xyz
  x,y,z
_cell_length_a                    30.3071
_cell_length_b                    27.7206
_cell_length_c                    27.2463
_cell_angle_alpha                 90.0118
_cell_angle_beta                  90.1577
_cell_angle_gamma                 90.1969
loop_
_atom_site_label
_atom_site_type_symbol
_atom_site_fract_x
_atom_site_fract_y
_atom_site_fract_z
_atom_site_U_iso_or_equiv
_atom_site_adp_type
_atom_site_occupancy
O1     O     0.18573   0.29072   0.16667   0.00000  Uiso   1.00
O2     O     0.31427   0.20929   0.16666   0.00000  Uiso   1.00
O3     O     0.31427   0.29072   0.16666   0.00000  Uiso   1.00
O4     O     0.18573   0.20929   0.16667   0.00000  Uiso   1.00
C5     C     0.16482   0.24989   0.16701   0.00000  Uiso   1.00
C6     C     0.33507   0.25010   0.16683   0.00000  Uiso   1.00
O7     O     0.25000   0.29071   0.09613   0.00000  Uiso   1.00
O8     O     0.25000   0.20929   0.23720   0.00000  Uiso   1.00
O9     O     0.25000   0.29071   0.23720   0.00000  Uiso   1.00
O10    O     0.25000   0.20929   0.09613   0.00000  Uiso   1.00
C11    C     0.27085   0.05407   0.20433   0.00000  Uiso   1.00
C12    C     0.21595   0.44591   0.14392   0.00000  Uiso   1.00
C13    C     0.22909   0.05387   0.12912   0.00000  Uiso   1.00
C14    C     0.28395   0.44615   0.18966   0.00000  Uiso   1.00
C15    C     0.25000   0.25000   0.07350   0.00000  Uiso   1.00
C16    C     0.25003   0.25000   0.25983   0.00000  Uiso   1.00
Cu17   Cu    0.25000   0.29822   0.16667   0.00000  Uiso   1.00
Cu18   Cu    0.25000   0.20179   0.16667   0.00000  Uiso   1.00
H19    H     0.28727   0.12453   0.23238   0.00000  Uiso   1.00
H20    H     0.19055   0.37546   0.12585   0.00000  Uiso   1.00
H21    H     0.21265   0.12416   0.10101   0.00000  Uiso   1.00
H22    H     0.30917   0.37585   0.20790   0.00000  Uiso   1.00
N23    N     0.25000   0.12935   0.16667   0.00000  Uiso   1.00
N24    N     0.25000   0.37066   0.16667   0.00000  Uiso   1.00
C25    C     0.24997   0.02735   0.16674   0.00000  Uiso   1.00
C26    C     0.24997   0.47266   0.16677   0.00000  Uiso   1.00
C27    C     0.25002   0.24999   0.02183   0.00000  Uiso   1.00
C28    C     0.25004   0.25000   0.31149   0.00000  Uiso   1.00
C29    C     0.04735   0.29054   0.18608   0.00000  Uiso   1.00
C30    C     0.45215   0.21277   0.19279   0.00000  Uiso   1.00
C31    C     0.45326   0.28808   0.14770   0.00000  Uiso   1.00
C32    C     0.04631   0.20870   0.15514   0.00000  Uiso   1.00
H33    H     0.02997   0.32239   0.19848   0.00000  Uiso   1.00
H34    H     0.46946   0.18353   0.21079   0.00000  Uiso   1.00
H35    H     0.47180   0.31603   0.12905   0.00000  Uiso   1.00
H36    H     0.02796   0.17765   0.14197   0.00000  Uiso   1.00
C37    C     0.09332   0.29056   0.18606   0.00000  Uiso   1.00
C38    C     0.40619   0.21292   0.19256   0.00000  Uiso   1.00
C39    C     0.40709   0.28901   0.14696   0.00000  Uiso   1.00
C40    C     0.09240   0.20786   0.15459   0.00000  Uiso   1.00
C41    C     0.11630   0.24955   0.16884   0.00000  Uiso   1.00
C42    C     0.38340   0.25047   0.16839   0.00000  Uiso   1.00
C43    C     0.02387   0.24975   0.17089   0.00000  Uiso   1.00
C44    C     0.47566   0.25030   0.17068   0.00000  Uiso   1.00
C45    C     0.27077   0.10481   0.20339   0.00000  Uiso   1.00
C46    C     0.21679   0.39518   0.14395   0.00000  Uiso   1.00
C47    C     0.22922   0.10460   0.12999   0.00000  Uiso   1.00
C48    C     0.28308   0.39542   0.18961   0.00000  Uiso   1.00
H49    H     0.28676   0.03620   0.23486   0.00000  Uiso   1.00
H50    H     0.18835   0.46377   0.12655   0.00000  Uiso   1.00
H51    H     0.21314   0.03584   0.09865   0.00000  Uiso   1.00
H52    H     0.31152   0.46420   0.20711   0.00000  Uiso   1.00
O53    O     0.11545   0.33174   0.20097   0.00000  Uiso   1.00
C54    C     0.12104   0.32974   0.25232   0.00000  Uiso   1.00
H55    H     0.13991   0.36208   0.26419   0.00000  Uiso   1.00
H56    H     0.14035   0.29743   0.26353   0.00000  Uiso   1.00
H57    H     0.08868   0.33032   0.27153   0.00000  Uiso   1.00
O58    O     0.38379   0.17522   0.21460   0.00000  Uiso   1.00
C59    C     0.37734   0.18684   0.26445   0.00000  Uiso   1.00
H60    H     0.35888   0.15692   0.28210   0.00000  Uiso   1.00
H61    H     0.35727   0.22016   0.26860   0.00000  Uiso   1.00
H62    H     0.40937   0.19080   0.28415   0.00000  Uiso   1.00
O63    O     0.38485   0.32441   0.12090   0.00000  Uiso   1.00
C64    C     0.39382   0.37016   0.14149   0.00000  Uiso   1.00
H65    H     0.39095   0.37001   0.18226   0.00000  Uiso   1.00
H66    H     0.36914   0.39611   0.12721   0.00000  Uiso   1.00
H67    H     0.42689   0.38344   0.13022   0.00000  Uiso   1.00
O68    O     0.11390   0.16813   0.13540   0.00000  Uiso   1.00
C69    C     0.11087   0.12961   0.16908   0.00000  Uiso   1.00
H70    H     0.12389   0.14002   0.20588   0.00000  Uiso   1.00
H71    H     0.13135   0.09938   0.15544   0.00000  Uiso   1.00
H72    H     0.07642   0.11607   0.17217   0.00000  Uiso   1.00
O73    O     0.68573   0.29072   0.16667   0.00000  Uiso   1.00
O74    O     0.81427   0.20929   0.16666   0.00000  Uiso   1.00
O75    O     0.81427   0.29072   0.16666   0.00000  Uiso   1.00
O76    O     0.68573   0.20929   0.16667   0.00000  Uiso   1.00
C77    C     0.66482   0.24989   0.16701   0.00000  Uiso   1.00
C78    C     0.83507   0.25010   0.16683   0.00000  Uiso   1.00
O79    O     0.75000   0.29071   0.09613   0.00000  Uiso   1.00
O80    O     0.75000   0.20929   0.23720   0.00000  Uiso   1.00
O81    O     0.75000   0.29071   0.23720   0.00000  Uiso   1.00
O82    O     0.75000   0.20929   0.09613   0.00000  Uiso   1.00
C83    C     0.77085   0.05407   0.20433   0.00000  Uiso   1.00
C84    C     0.71595   0.44591   0.14392   0.00000  Uiso   1.00
C85    C     0.72909   0.05387   0.12912   0.00000  Uiso   1.00
C86    C     0.78395   0.44615   0.18966   0.00000  Uiso   1.00
C87    C     0.75000   0.25000   0.07350   0.00000  Uiso   1.00
C88    C     0.75003   0.25000   0.25983   0.00000  Uiso   1.00
Cu89   Cu    0.75000   0.29822   0.16667   0.00000  Uiso   1.00
Cu90   Cu    0.75000   0.20179   0.16667   0.00000  Uiso   1.00
H91    H     0.78727   0.12453   0.23238   0.00000  Uiso   1.00
H92    H     0.69055   0.37546   0.12585   0.00000  Uiso   1.00
H93    H     0.71265   0.12416   0.10101   0.00000  Uiso   1.00
H94    H     0.80917   0.37585   0.20790   0.00000  Uiso   1.00
N95    N     0.75000   0.12935   0.16667   0.00000  Uiso   1.00
N96    N     0.75000   0.37066   0.16667   0.00000  Uiso   1.00
C97    C     0.74997   0.02735   0.16674   0.00000  Uiso   1.00
C98    C     0.74997   0.47266   0.16677   0.00000  Uiso   1.00
C99    C     0.75002   0.24999   0.02183   0.00000  Uiso   1.00
C100   C     0.75004   0.25000   0.31149   0.00000  Uiso   1.00
C101   C     0.54735   0.29054   0.18608   0.00000  Uiso   1.00
C102   C     0.95215   0.21277   0.19279   0.00000  Uiso   1.00
C103   C     0.95326   0.28808   0.14770   0.00000  Uiso   1.00
C104   C     0.54631   0.20870   0.15514   0.00000  Uiso   1.00
H105   H     0.52997   0.32239   0.19848   0.00000  Uiso   1.00
H106   H     0.96946   0.18353   0.21079   0.00000  Uiso   1.00
H107   H     0.97180   0.31603   0.12905   0.00000  Uiso   1.00
H108   H     0.52796   0.17765   0.14197   0.00000  Uiso   1.00
C109   C     0.59332   0.29056   0.18606   0.00000  Uiso   1.00
C110   C     0.90619   0.21292   0.19256   0.00000  Uiso   1.00
C111   C     0.90709   0.28901   0.14696   0.00000  Uiso   1.00
C112   C     0.59240   0.20786   0.15459   0.00000  Uiso   1.00
C113   C     0.61630   0.24955   0.16884   0.00000  Uiso   1.00
C114   C     0.88340   0.25047   0.16839   0.00000  Uiso   1.00
C115   C     0.52387   0.24975   0.17089   0.00000  Uiso   1.00
C116   C     0.97566   0.25030   0.17068   0.00000  Uiso   1.00
C117   C     0.77077   0.10481   0.20339   0.00000  Uiso   1.00
C118   C     0.71679   0.39518   0.14395   0.00000  Uiso   1.00
C119   C     0.72922   0.10460   0.12999   0.00000  Uiso   1.00
C120   C     0.78308   0.39542   0.18961   0.00000  Uiso   1.00
H121   H     0.78676   0.03620   0.23486   0.00000  Uiso   1.00
H122   H     0.68835   0.46377   0.12655   0.00000  Uiso   1.00
H123   H     0.71314   0.03584   0.09865   0.00000  Uiso   1.00
H124   H     0.81152   0.46420   0.20711   0.00000  Uiso   1.00
O125   O     0.61545   0.33174   0.20097   0.00000  Uiso   1.00
C126   C     0.62104   0.32974   0.25232   0.00000  Uiso   1.00
H127   H     0.63991   0.36208   0.26419   0.00000  Uiso   1.00
H128   H     0.64035   0.29743   0.26353   0.00000  Uiso   1.00
H129   H     0.58868   0.33032   0.27153   0.00000  Uiso   1.00
O130   O     0.88379   0.17522   0.21460   0.00000  Uiso   1.00
C131   C     0.87734   0.18684   0.26445   0.00000  Uiso   1.00
H132   H     0.85888   0.15692   0.28210   0.00000  Uiso   1.00
H133   H     0.85727   0.22016   0.26860   0.00000  Uiso   1.00
H134   H     0.90937   0.19080   0.28415   0.00000  Uiso   1.00
O135   O     0.88485   0.32441   0.12090   0.00000  Uiso   1.00
C136   C     0.89382   0.37016   0.14149   0.00000  Uiso   1.00
H137   H     0.89095   0.37001   0.18226   0.00000  Uiso   1.00
H138   H     0.86914   0.39611   0.12721   0.00000  Uiso   1.00
H139   H     0.92689   0.38344   0.13022   0.00000  Uiso   1.00
O140   O     0.61390   0.16813   0.13540   0.00000  Uiso   1.00
C141   C     0.61087   0.12961   0.16908   0.00000  Uiso   1.00
H142   H     0.62389   0.14002   0.20588   0.00000  Uiso   1.00
H143   H     0.63135   0.09938   0.15544   0.00000  Uiso   1.00
H144   H     0.57642   0.11607   0.17217   0.00000  Uiso   1.00
O145   O     0.18573   0.79072   0.16667   0.00000  Uiso   1.00
O146   O     0.31427   0.70929   0.16666   0.00000  Uiso   1.00
O147   O     0.31427   0.79072   0.16666   0.00000  Uiso   1.00
O148   O     0.18573   0.70929   0.16667   0.00000  Uiso   1.00
C149   C     0.16482   0.74989   0.16701   0.00000  Uiso   1.00
C150   C     0.33507   0.75010   0.16683   0.00000  Uiso   1.00
O151   O     0.25000   0.79071   0.09613   0.00000  Uiso   1.00
O152   O     0.25000   0.70929   0.23720   0.00000  Uiso   1.00
O153   O     0.25000   0.79071   0.23720   0.00000  Uiso   1.00
O154   O     0.25000   0.70929   0.09613   0.00000  Uiso   1.00
C155   C     0.27085   0.55407   0.20433   0.00000  Uiso   1.00
C156   C     0.21595   0.94591   0.14392   0.00000  Uiso   1.00
C157   C     0.22909   0.55387   0.12912   0.00000  Uiso   1.00
C158   C     0.28395   0.94615   0.18966   0.00000  Uiso   1.00
C159   C     0.25000   0.75000   0.07350   0.00000  Uiso   1.00
C160   C     0.25003   0.75000   0.25983   0.00000  Uiso   1.00
Cu161  Cu    0.25000   0.79822   0.16667   0.00000  Uiso   1.00
Cu162  Cu    0.25000   0.70179   0.16667   0.00000  Uiso   1.00
H163   H     0.28727   0.62453   0.23238   0.00000  Uiso   1.00
H164   H     0.19055   0.87546   0.12585   0.00000  Uiso   1.00
H165   H     0.21265   0.62416   0.10101   0.00000  Uiso   1.00
H166   H     0.30917   0.87585   0.20790   0.00000  Uiso   1.00
N167   N     0.25000   0.62935   0.16667   0.00000  Uiso   1.00
N168   N     0.25000   0.87066   0.16667   0.00000  Uiso   1.00
C169   C     0.24997   0.52735   0.16674   0.00000  Uiso   1.00
C170   C     0.24997   0.97266   0.16677   0.00000  Uiso   1.00
C171   C     0.25002   0.74999   0.02183   0.00000  Uiso   1.00
C172   C     0.25004   0.75000   0.31149   0.00000  Uiso   1.00
C173   C     0.04735   0.79054   0.18608   0.00000  Uiso   1.00
C174   C     0.45215   0.71277   0.19279   0.00000  Uiso   1.00
C175   C     0.45326   0.78808   0.14770   0.00000  Uiso   1.00
C176   C     0.04631   0.70870   0.15514   0.00000  Uiso   1.00
H177   H     0.02997   0.82239   0.19848   0.00000  Uiso   1.00
H178   H     0.46946   0.68353   0.21079   0.00000  Uiso   1.00
H179   H     0.47180   0.81603   0.12905   0.00000  Uiso   1.00
H180   H     0.02796   0.67765   0.14197   0.00000  Uiso   1.00
C181   C     0.09332   0.79056   0.18606   0.00000  Uiso   1.00
C182   C     0.40619   0.71292   0.19256   0.00000  Uiso   1.00
C183   C     0.40709   0.78901   0.14696   0.00000  Uiso   1.00
C184   C     0.09240   0.70786   0.15459   0.00000  Uiso   1.00
C185   C     0.11630   0.74955   0.16884   0.00000  Uiso   1.00
C186   C     0.38340   0.75047   0.16839   0.00000  Uiso   1.00
C187   C     0.02387   0.74975   0.17089   0.00000  Uiso   1.00
C188   C     0.47566   0.75030   0.17068   0.00000  Uiso   1.00
C189   C     0.27077   0.60481   0.20339   0.00000  Uiso   1.00
C190   C     0.21679   0.89518   0.14395   0.00000  Uiso   1.00
C191   C     0.22922   0.60460   0.12999   0.00000  Uiso   1.00
C192   C     0.28308   0.89542   0.18961   0.00000  Uiso   1.00
H193   H     0.28676   0.53620   0.23486   0.00000  Uiso   1.00
H194   H     0.18835   0.96377   0.12655   0.00000  Uiso   1.00
H195   H     0.21314   0.53584   0.09865   0.00000  Uiso   1.00
H196   H     0.31152   0.96420   0.20711   0.00000  Uiso   1.00
O197   O     0.11545   0.83174   0.20097   0.00000  Uiso   1.00
C198   C     0.12104   0.82974   0.25232   0.00000  Uiso   1.00
H199   H     0.13991   0.86208   0.26419   0.00000  Uiso   1.00
H200   H     0.14035   0.79743   0.26353   0.00000  Uiso   1.00
H201   H     0.08868   0.83032   0.27153   0.00000  Uiso   1.00
O202   O     0.38379   0.67522   0.21460   0.00000  Uiso   1.00
C203   C     0.37734   0.68684   0.26445   0.00000  Uiso   1.00
H204   H     0.35888   0.65692   0.28210   0.00000  Uiso   1.00
H205   H     0.35727   0.72016   0.26860   0.00000  Uiso   1.00
H206   H     0.40937   0.69080   0.28415   0.00000  Uiso   1.00
O207   O     0.38485   0.82441   0.12090   0.00000  Uiso   1.00
C208   C     0.39382   0.87016   0.14149   0.00000  Uiso   1.00
H209   H     0.39095   0.87001   0.18226   0.00000  Uiso   1.00
H210   H     0.36914   0.89611   0.12721   0.00000  Uiso   1.00
H211   H     0.42689   0.88344   0.13022   0.00000  Uiso   1.00
O212   O     0.11390   0.66813   0.13540   0.00000  Uiso   1.00
C213   C     0.11087   0.62961   0.16908   0.00000  Uiso   1.00
H214   H     0.12389   0.64002   0.20588   0.00000  Uiso   1.00
H215   H     0.13135   0.59938   0.15544   0.00000  Uiso   1.00
H216   H     0.07642   0.61607   0.17217   0.00000  Uiso   1.00
O217   O     0.68573   0.79072   0.16667   0.00000  Uiso   1.00
O218   O     0.81427   0.70929   0.16666   0.00000  Uiso   1.00
O219   O     0.81427   0.79072   0.16666   0.00000  Uiso   1.00
O220   O     0.68573   0.70929   0.16667   0.00000  Uiso   1.00
C221   C     0.66482   0.74989   0.16701   0.00000  Uiso   1.00
C222   C     0.83507   0.75010   0.16683   0.00000  Uiso   1.00
O223   O     0.75000   0.79071   0.09613   0.00000  Uiso   1.00
O224   O     0.75000   0.70929   0.23720   0.00000  Uiso   1.00
O225   O     0.75000   0.79071   0.23720   0.00000  Uiso   1.00
O226   O     0.75000   0.70929   0.09613   0.00000  Uiso   1.00
C227   C     0.77085   0.55407   0.20433   0.00000  Uiso   1.00
C228   C     0.71595   0.94591   0.14392   0.00000  Uiso   1.00
C229   C     0.72909   0.55387   0.12912   0.00000  Uiso   1.00
C230   C     0.78395   0.94615   0.18966   0.00000  Uiso   1.00
C231   C     0.75000   0.75000   0.07350   0.00000  Uiso   1.00
C232   C     0.75003   0.75000   0.25983   0.00000  Uiso   1.00
Cu233  Cu    0.75000   0.79822   0.16667   0.00000  Uiso   1.00
Cu234  Cu    0.75000   0.70179   0.16667   0.00000  Uiso   1.00
H235   H     0.78727   0.62453   0.23238   0.00000  Uiso   1.00
H236   H     0.69055   0.87546   0.12585   0.00000  Uiso   1.00
H237   H     0.71265   0.62416   0.10101   0.00000  Uiso   1.00
H238   H     0.80917   0.87585   0.20790   0.00000  Uiso   1.00
N239   N     0.75000   0.62935   0.16667   0.00000  Uiso   1.00
N240   N     0.75000   0.87066   0.16667   0.00000  Uiso   1.00
C241   C     0.74997   0.52735   0.16674   0.00000  Uiso   1.00
C242   C     0.74997   0.97266   0.16677   0.00000  Uiso   1.00
C243   C     0.75002   0.74999   0.02183   0.00000  Uiso   1.00
C244   C     0.75004   0.75000   0.31149   0.00000  Uiso   1.00
C245   C     0.54735   0.79054   0.18608   0.00000  Uiso   1.00
C246   C     0.95215   0.71277   0.19279   0.00000  Uiso   1.00
C247   C     0.95326   0.78808   0.14770   0.00000  Uiso   1.00
C248   C     0.54631   0.70870   0.15514   0.00000  Uiso   1.00
H249   H     0.52997   0.82239   0.19848   0.00000  Uiso   1.00
H250   H     0.96946   0.68353   0.21079   0.00000  Uiso   1.00
H251   H     0.97180   0.81603   0.12905   0.00000  Uiso   1.00
H252   H     0.52796   0.67765   0.14197   0.00000  Uiso   1.00
C253   C     0.59332   0.79056   0.18606   0.00000  Uiso   1.00
C254   C     0.90619   0.71292   0.19256   0.00000  Uiso   1.00
C255   C     0.90709   0.78901   0.14696   0.00000  Uiso   1.00
C256   C     0.59240   0.70786   0.15459   0.00000  Uiso   1.00
C257   C     0.61630   0.74955   0.16884   0.00000  Uiso   1.00
C258   C     0.88340   0.75047   0.16839   0.00000  Uiso   1.00
C259   C     0.52387   0.74975   0.17089   0.00000  Uiso   1.00
C260   C     0.97566   0.75030   0.17068   0.00000  Uiso   1.00
C261   C     0.77077   0.60481   0.20339   0.00000  Uiso   1.00
C262   C     0.71679   0.89518   0.14395   0.00000  Uiso   1.00
C263   C     0.72922   0.60460   0.12999   0.00000  Uiso   1.00
C264   C     0.78308   0.89542   0.18961   0.00000  Uiso   1.00
H265   H     0.78676   0.53620   0.23486   0.00000  Uiso   1.00
H266   H     0.68835   0.96377   0.12655   0.00000  Uiso   1.00
H267   H     0.71314   0.53584   0.09865   0.00000  Uiso   1.00
H268   H     0.81152   0.96420   0.20711   0.00000  Uiso   1.00
O269   O     0.61545   0.83174   0.20097   0.00000  Uiso   1.00
C270   C     0.62104   0.82974   0.25232   0.00000  Uiso   1.00
H271   H     0.63991   0.86208   0.26419   0.00000  Uiso   1.00
H272   H     0.64035   0.79743   0.26353   0.00000  Uiso   1.00
H273   H     0.58868   0.83032   0.27153   0.00000  Uiso   1.00
O274   O     0.88379   0.67522   0.21460   0.00000  Uiso   1.00
C275   C     0.87734   0.68684   0.26445   0.00000  Uiso   1.00
H276   H     0.85888   0.65692   0.28210   0.00000  Uiso   1.00
H277   H     0.85727   0.72016   0.26860   0.00000  Uiso   1.00
H278   H     0.90937   0.69080   0.28415   0.00000  Uiso   1.00
O279   O     0.88485   0.82441   0.12090   0.00000  Uiso   1.00
C280   C     0.89382   0.87016   0.14149   0.00000  Uiso   1.00
H281   H     0.89095   0.87001   0.18226   0.00000  Uiso   1.00
H282   H     0.86914   0.89611   0.12721   0.00000  Uiso   1.00
H283   H     0.92689   0.88344   0.13022   0.00000  Uiso   1.00
O284   O     0.61390   0.66813   0.13540   0.00000  Uiso   1.00
C285   C     0.61087   0.62961   0.16908   0.00000  Uiso   1.00
H286   H     0.62389   0.64002   0.20588   0.00000  Uiso   1.00
H287   H     0.63135   0.59938   0.15544   0.00000  Uiso   1.00
H288   H     0.57642   0.61607   0.17217   0.00000  Uiso   1.00
O289   O     0.18573   0.29072   0.50000   0.00000  Uiso   1.00
O290   O     0.31427   0.20929   0.50000   0.00000  Uiso   1.00
O291   O     0.31427   0.29072   0.50000   0.00000  Uiso   1.00
O292   O     0.18573   0.20929   0.50000   0.00000  Uiso   1.00
C293   C     0.16482   0.24989   0.50034   0.00000  Uiso   1.00
C294   C     0.33507   0.25010   0.50017   0.00000  Uiso   1.00
O295   O     0.25000   0.29071   0.42946   0.00000  Uiso   1.00
O296   O     0.25000   0.20929   0.57054   0.00000  Uiso   1.00
O297   O     0.25000   0.29071   0.57054   0.00000  Uiso   1.00
O298   O     0.25000   0.20929   0.42946   0.00000  Uiso   1.00
C299   C     0.27085   0.05407   0.53767   0.00000  Uiso   1.00
C300   C     0.21595   0.44591   0.47725   0.00000  Uiso   1.00
C301   C     0.22909   0.05387   0.46246   0.00000  Uiso   1.00
C302   C     0.28395   0.44615   0.52300   0.00000  Uiso   1.00
C303   C     0.25000   0.25000   0.40684   0.00000  Uiso   1.00
C304   C     0.25003   0.25000   0.59316   0.00000  Uiso   1.00
Cu305  Cu    0.25000   0.29822   0.50000   0.00000  Uiso   1.00
Cu306  Cu    0.25000   0.20179   0.50000   0.00000  Uiso   1.00
H307   H     0.28727   0.12453   0.56572   0.00000  Uiso   1.00
H308   H     0.19055   0.37546   0.45918   0.00000  Uiso   1.00
H309   H     0.21265   0.12416   0.43434   0.00000  Uiso   1.00
H310   H     0.30917   0.37585   0.54124   0.00000  Uiso   1.00
N311   N     0.25000   0.12935   0.50000   0.00000  Uiso   1.00
N312   N     0.25000   0.37066   0.50000   0.00000  Uiso   1.00
C313   C     0.24997   0.02735   0.50008   0.00000  Uiso   1.00
C314   C     0.24997   0.47266   0.50010   0.00000  Uiso   1.00
C315   C     0.25002   0.24999   0.35516   0.00000  Uiso   1.00
C316   C     0.25004   0.25000   0.64483   0.00000  Uiso   1.00
C317   C     0.04735   0.29054   0.51942   0.00000  Uiso   1.00
C318   C     0.45215   0.21277   0.52613   0.00000  Uiso   1.00
C319   C     0.45326   0.28808   0.48103   0.00000  Uiso   1.00
C320   C     0.04631   0.20870   0.48847   0.00000  Uiso   1.00
H321   H     0.02997   0.32239   0.53181   0.00000  Uiso   1.00
H322   H     0.46946   0.18353   0.54412   0.00000  Uiso   1.00
H323   H     0.47180   0.31603   0.46239   0.00000  Uiso   1.00
H324   H     0.02796   0.17765   0.47530   0.00000  Uiso   1.00
C325   C     0.09332   0.29056   0.51939   0.00000  Uiso   1.00
C326   C     0.40619   0.21292   0.52590   0.00000  Uiso   1.00
C327   C     0.40709   0.28901   0.48030   0.00000  Uiso   1.00
C328   C     0.09240   0.20786   0.48792   0.00000  Uiso   1.00
C329   C     0.11630   0.24955   0.50218   0.00000  Uiso   1.00
C330   C     0.38340   0.25047   0.50173   0.00000  Uiso   1.00
C331   C     0.02387   0.24975   0.50423   0.00000  Uiso   1.00
C332   C     0.47566   0.25030   0.50401   0.00000  Uiso   1.00
C333   C     0.27077   0.10481   0.53672   0.00000  Uiso   1.00
C334   C     0.21679   0.39518   0.47728   0.00000  Uiso   1.00
C335   C     0.22922   0.10460   0.46332   0.00000  Uiso   1.00
C336   C     0.28308   0.39542   0.52294   0.00000  Uiso   1.00
H337   H     0.28676   0.03620   0.56819   0.00000  Uiso   1.00
H338   H     0.18835   0.46377   0.45989   0.00000  Uiso   1.00
H339   H     0.21314   0.03584   0.43198   0.00000  Uiso   1.00
H340   H     0.31152   0.46420   0.54044   0.00000  Uiso   1.00
O341   O     0.11545   0.33174   0.53430   0.00000  Uiso   1.00
C342   C     0.12104   0.32974   0.58565   0.00000  Uiso   1.00
H343   H     0.13991   0.36208   0.59752   0.00000  Uiso   1.00
H344   H     0.14035   0.29743   0.59686   0.00000  Uiso   1.00
H345   H     0.08868   0.33032   0.60487   0.00000  Uiso   1.00
O346   O     0.38379   0.17522   0.54793   0.00000  Uiso   1.00
C347   C     0.37734   0.18684   0.59778   0.00000  Uiso   1.00
H348   H     0.35888   0.15692   0.61543   0.00000  Uiso   1.00
H349   H     0.35727   0.22016   0.60193   0.00000  Uiso   1.00
H350   H     0.40937   0.19080   0.61749   0.00000  Uiso   1.00
O351   O     0.38485   0.32441   0.45423   0.00000  Uiso   1.00
C352   C     0.39382   0.37016   0.47482   0.00000  Uiso   1.00
H353   H     0.39095   0.37001   0.51559   0.00000  Uiso   1.00
H354   H     0.36914   0.39611   0.46054   0.00000  Uiso   1.00
H355   H     0.42689   0.38344   0.46355   0.00000  Uiso   1.00
O356   O     0.11390   0.16813   0.46873   0.00000  Uiso   1.00
C357   C     0.11087   0.12961   0.50241   0.00000  Uiso   1.00
H358   H     0.12389   0.14002   0.53921   0.00000  Uiso   1.00
H359   H     0.13135   0.09938   0.48878   0.00000  Uiso   1.00
H360   H     0.07642   0.11607   0.50550   0.00000  Uiso   1.00
O361   O     0.68573   0.29072   0.50000   0.00000  Uiso   1.00
O362   O     0.81427   0.20929   0.50000   0.00000  Uiso   1.00
O363   O     0.81427   0.29072   0.50000   0.00000  Uiso   1.00
O364   O     0.68573   0.20929   0.50000   0.00000  Uiso   1.00
C365   C     0.66482   0.24989   0.50034   0.00000  Uiso   1.00
C366   C     0.83507   0.25010   0.50017   0.00000  Uiso   1.00
O367   O     0.75000   0.29071   0.42946   0.00000  Uiso   1.00
O368   O     0.75000   0.20929   0.57054   0.00000  Uiso   1.00
O369   O     0.75000   0.29071   0.57054   0.00000  Uiso   1.00
O370   O     0.75000   0.20929   0.42946   0.00000  Uiso   1.00
C371   C     0.77085   0.05407   0.53767   0.00000  Uiso   1.00
C372   C     0.71595   0.44591   0.47725   0.00000  Uiso   1.00
C373   C     0.72909   0.05387   0.46246   0.00000  Uiso   1.00
C374   C     0.78395   0.44615   0.52300   0.00000  Uiso   1.00
C375   C     0.75000   0.25000   0.40684   0.00000  Uiso   1.00
C376   C     0.75003   0.25000   0.59316   0.00000  Uiso   1.00
Cu377  Cu    0.75000   0.29822   0.50000   0.00000  Uiso   1.00
Cu378  Cu    0.75000   0.20179   0.50000   0.00000  Uiso   1.00
H379   H     0.78727   0.12453   0.56572   0.00000  Uiso   1.00
H380   H     0.69055   0.37546   0.45918   0.00000  Uiso   1.00
H381   H     0.71265   0.12416   0.43434   0.00000  Uiso   1.00
H382   H     0.80917   0.37585   0.54124   0.00000  Uiso   1.00
N383   N     0.75000   0.12935   0.50000   0.00000  Uiso   1.00
N384   N     0.75000   0.37066   0.50000   0.00000  Uiso   1.00
C385   C     0.74997   0.02735   0.50008   0.00000  Uiso   1.00
C386   C     0.74997   0.47266   0.50010   0.00000  Uiso   1.00
C387   C     0.75002   0.24999   0.35516   0.00000  Uiso   1.00
C388   C     0.75004   0.25000   0.64483   0.00000  Uiso   1.00
C389   C     0.54735   0.29054   0.51942   0.00000  Uiso   1.00
C390   C     0.95215   0.21277   0.52613   0.00000  Uiso   1.00
C391   C     0.95326   0.28808   0.48103   0.00000  Uiso   1.00
C392   C     0.54631   0.20870   0.48847   0.00000  Uiso   1.00
H393   H     0.52997   0.32239   0.53181   0.00000  Uiso   1.00
H394   H     0.96946   0.18353   0.54412   0.00000  Uiso   1.00
H395   H     0.97180   0.31603   0.46239   0.00000  Uiso   1.00
H396   H     0.52796   0.17765   0.47530   0.00000  Uiso   1.00
C397   C     0.59332   0.29056   0.51939   0.00000  Uiso   1.00
C398   C     0.90619   0.21292   0.52590   0.00000  Uiso   1.00
C399   C     0.90709   0.28901   0.48030   0.00000  Uiso   1.00
C400   C     0.59240   0.20786   0.48792   0.00000  Uiso   1.00
C401   C     0.61630   0.24955   0.50218   0.00000  Uiso   1.00
C402   C     0.88340   0.25047   0.50173   0.00000  Uiso   1.00
C403   C     0.52387   0.24975   0.50423   0.00000  Uiso   1.00
C404   C     0.97566   0.25030   0.50401   0.00000  Uiso   1.00
C405   C     0.77077   0.10481   0.53672   0.00000  Uiso   1.00
C406   C     0.71679   0.39518   0.47728   0.00000  Uiso   1.00
C407   C     0.72922   0.10460   0.46332   0.00000  Uiso   1.00
C408   C     0.78308   0.39542   0.52294   0.00000  Uiso   1.00
H409   H     0.78676   0.03620   0.56819   0.00000  Uiso   1.00
H410   H     0.68835   0.46377   0.45989   0.00000  Uiso   1.00
H411   H     0.71314   0.03584   0.43198   0.00000  Uiso   1.00
H412   H     0.81152   0.46420   0.54044   0.00000  Uiso   1.00
O413   O     0.61545   0.33174   0.53430   0.00000  Uiso   1.00
C414   C     0.62104   0.32974   0.58565   0.00000  Uiso   1.00
H415   H     0.63991   0.36208   0.59752   0.00000  Uiso   1.00
H416   H     0.64035   0.29743   0.59686   0.00000  Uiso   1.00
H417   H     0.58868   0.33032   0.60487   0.00000  Uiso   1.00
O418   O     0.88379   0.17522   0.54793   0.00000  Uiso   1.00
C419   C     0.87734   0.18684   0.59778   0.00000  Uiso   1.00
H420   H     0.85888   0.15692   0.61543   0.00000  Uiso   1.00
H421   H     0.85727   0.22016   0.60193   0.00000  Uiso   1.00
H422   H     0.90937   0.19080   0.61749   0.00000  Uiso   1.00
O423   O     0.88485   0.32441   0.45423   0.00000  Uiso   1.00
C424   C     0.89382   0.37016   0.47482   0.00000  Uiso   1.00
H425   H     0.89095   0.37001   0.51559   0.00000  Uiso   1.00
H426   H     0.86914   0.39611   0.46054   0.00000  Uiso   1.00
H427   H     0.92689   0.38344   0.46355   0.00000  Uiso   1.00
O428   O     0.61390   0.16813   0.46873   0.00000  Uiso   1.00
C429   C     0.61087   0.12961   0.50241   0.00000  Uiso   1.00
H430   H     0.62389   0.14002   0.53921   0.00000  Uiso   1.00
H431   H     0.63135   0.09938   0.48878   0.00000  Uiso   1.00
H432   H     0.57642   0.11607   0.50550   0.00000  Uiso   1.00
O433   O     0.18573   0.79072   0.50000   0.00000  Uiso   1.00
O434   O     0.31427   0.70929   0.50000   0.00000  Uiso   1.00
O435   O     0.31427   0.79072   0.50000   0.00000  Uiso   1.00
O436   O     0.18573   0.70929   0.50000   0.00000  Uiso   1.00
C437   C     0.16482   0.74989   0.50034   0.00000  Uiso   1.00
C438   C     0.33507   0.75010   0.50017   0.00000  Uiso   1.00
O439   O     0.25000   0.79071   0.42946   0.00000  Uiso   1.00
O440   O     0.25000   0.70929   0.57054   0.00000  Uiso   1.00
O441   O     0.25000   0.79071   0.57054   0.00000  Uiso   1.00
O442   O     0.25000   0.70929   0.42946   0.00000  Uiso   1.00
C443   C     0.27085   0.55407   0.53767   0.00000  Uiso   1.00
C444   C     0.21595   0.94591   0.47725   0.00000  Uiso   1.00
C445   C     0.22909   0.55387   0.46246   0.00000  Uiso   1.00
C446   C     0.28395   0.94615   0.52300   0.00000  Uiso   1.00
C447   C     0.25000   0.75000   0.40684   0.00000  Uiso   1.00
C448   C     0.25003   0.75000   0.59316   0.00000  Uiso   1.00
Cu449  Cu    0.25000   0.79822   0.50000   0.00000  Uiso   1.00
Cu450  Cu    0.25000   0.70179   0.50000   0.00000  Uiso   1.00
H451   H     0.28727   0.62453   0.56572   0.00000  Uiso   1.00
H452   H     0.19055   0.87546   0.45918   0.00000  Uiso   1.00
H453   H     0.21265   0.62416   0.43434   0.00000  Uiso   1.00
H454   H     0.30917   0.87585   0.54124   0.00000  Uiso   1.00
N455   N     0.25000   0.62935   0.50000   0.00000  Uiso   1.00
N456   N     0.25000   0.87066   0.50000   0.00000  Uiso   1.00
C457   C     0.24997   0.52735   0.50008   0.00000  Uiso   1.00
C458   C     0.24997   0.97266   0.50010   0.00000  Uiso   1.00
C459   C     0.25002   0.74999   0.35516   0.00000  Uiso   1.00
C460   C     0.25004   0.75000   0.64483   0.00000  Uiso   1.00
C461   C     0.04735   0.79054   0.51942   0.00000  Uiso   1.00
C462   C     0.45215   0.71277   0.52613   0.00000  Uiso   1.00
C463   C     0.45326   0.78808   0.48103   0.00000  Uiso   1.00
C464   C     0.04631   0.70870   0.48847   0.00000  Uiso   1.00
H465   H     0.02997   0.82239   0.53181   0.00000  Uiso   1.00
H466   H     0.46946   0.68353   0.54412   0.00000  Uiso   1.00
H467   H     0.47180   0.81603   0.46239   0.00000  Uiso   1.00
H468   H     0.02796   0.67765   0.47530   0.00000  Uiso   1.00
C469   C     0.09332   0.79056   0.51939   0.00000  Uiso   1.00
C470   C     0.40619   0.71292   0.52590   0.00000  Uiso   1.00
C471   C     0.40709   0.78901   0.48030   0.00000  Uiso   1.00
C472   C     0.09240   0.70786   0.48792   0.00000  Uiso   1.00
C473   C     0.11630   0.74955   0.50218   0.00000  Uiso   1.00
C474   C     0.38340   0.75047   0.50173   0.00000  Uiso   1.00
C475   C     0.02387   0.74975   0.50423   0.00000  Uiso   1.00
C476   C     0.47566   0.75030   0.50401   0.00000  Uiso   1.00
C477   C     0.27077   0.60481   0.53672   0.00000  Uiso   1.00
C478   C     0.21679   0.89518   0.47728   0.00000  Uiso   1.00
C479   C     0.22922   0.60460   0.46332   0.00000  Uiso   1.00
C480   C     0.28308   0.89542   0.52294   0.00000  Uiso   1.00
H481   H     0.28676   0.53620   0.56819   0.00000  Uiso   1.00
H482   H     0.18835   0.96377   0.45989   0.00000  Uiso   1.00
H483   H     0.21314   0.53584   0.43198   0.00000  Uiso   1.00
H484   H     0.31152   0.96420   0.54044   0.00000  Uiso   1.00
O485   O     0.11545   0.83174   0.53430   0.00000  Uiso   1.00
C486   C     0.12104   0.82974   0.58565   0.00000  Uiso   1.00
H487   H     0.13991   0.86208   0.59752   0.00000  Uiso   1.00
H488   H     0.14035   0.79743   0.59686   0.00000  Uiso   1.00
H489   H     0.08868   0.83032   0.60487   0.00000  Uiso   1.00
O490   O     0.38379   0.67522   0.54793   0.00000  Uiso   1.00
C491   C     0.37734   0.68684   0.59778   0.00000  Uiso   1.00
H492   H     0.35888   0.65692   0.61543   0.00000  Uiso   1.00
H493   H     0.35727   0.72016   0.60193   0.00000  Uiso   1.00
H494   H     0.40937   0.69080   0.61749   0.00000  Uiso   1.00
O495   O     0.38485   0.82441   0.45423   0.00000  Uiso   1.00
C496   C     0.39382   0.87016   0.47482   0.00000  Uiso   1.00
H497   H     0.39095   0.87001   0.51559   0.00000  Uiso   1.00
H498   H     0.36914   0.89611   0.46054   0.00000  Uiso   1.00
H499   H     0.42689   0.88344   0.46355   0.00000  Uiso   1.00
O500   O     0.11390   0.66813   0.46873   0.00000  Uiso   1.00
C501   C     0.11087   0.62961   0.50241   0.00000  Uiso   1.00
H502   H     0.12389   0.64002   0.53921   0.00000  Uiso   1.00
H503   H     0.13135   0.59938   0.48878   0.00000  Uiso   1.00
H504   H     0.07642   0.61607   0.50550   0.00000  Uiso   1.00
O505   O     0.68573   0.79072   0.50000   0.00000  Uiso   1.00
O506   O     0.81427   0.70929   0.50000   0.00000  Uiso   1.00
O507   O     0.81427   0.79072   0.50000   0.00000  Uiso   1.00
O508   O     0.68573   0.70929   0.50000   0.00000  Uiso   1.00
C509   C     0.66482   0.74989   0.50034   0.00000  Uiso   1.00
C510   C     0.83507   0.75010   0.50017   0.00000  Uiso   1.00
O511   O     0.75000   0.79071   0.42946   0.00000  Uiso   1.00
O512   O     0.75000   0.70929   0.57054   0.00000  Uiso   1.00
O513   O     0.75000   0.79071   0.57054   0.00000  Uiso   1.00
O514   O     0.75000   0.70929   0.42946   0.00000  Uiso   1.00
C515   C     0.77085   0.55407   0.53767   0.00000  Uiso   1.00
C516   C     0.71595   0.94591   0.47725   0.00000  Uiso   1.00
C517   C     0.72909   0.55387   0.46246   0.00000  Uiso   1.00
C518   C     0.78395   0.94615   0.52300   0.00000  Uiso   1.00
C519   C     0.75000   0.75000   0.40684   0.00000  Uiso   1.00
C520   C     0.75003   0.75000   0.59316   0.00000  Uiso   1.00
Cu521  Cu    0.75000   0.79822   0.50000   0.00000  Uiso   1.00
Cu522  Cu    0.75000   0.70179   0.50000   0.00000  Uiso   1.00
H523   H     0.78727   0.62453   0.56572   0.00000  Uiso   1.00
H524   H     0.69055   0.87546   0.45918   0.00000  Uiso   1.00
H525   H     0.71265   0.62416   0.43434   0.00000  Uiso   1.00
H526   H     0.80917   0.87585   0.54124   0.00000  Uiso   1.00
N527   N     0.75000   0.62935   0.50000   0.00000  Uiso   1.00
N528   N     0.75000   0.87066   0.50000   0.00000  Uiso   1.00
C529   C     0.74997   0.52735   0.50008   0.00000  Uiso   1.00
C530   C     0.74997   0.97266   0.50010   0.00000  Uiso   1.00
C531   C     0.75002   0.74999   0.35516   0.00000  Uiso   1.00
C532   C     0.75004   0.75000   0.64483   0.00000  Uiso   1.00
C533   C     0.54735   0.79054   0.51942   0.00000  Uiso   1.00
C534   C     0.95215   0.71277   0.52613   0.00000  Uiso   1.00
C535   C     0.95326   0.78808   0.48103   0.00000  Uiso   1.00
C536   C     0.54631   0.70870   0.48847   0.00000  Uiso   1.00
H537   H     0.52997   0.82239   0.53181   0.00000  Uiso   1.00
H538   H     0.96946   0.68353   0.54412   0.00000  Uiso   1.00
H539   H     0.97180   0.81603   0.46239   0.00000  Uiso   1.00
H540   H     0.52796   0.67765   0.47530   0.00000  Uiso   1.00
C541   C     0.59332   0.79056   0.51939   0.00000  Uiso   1.00
C542   C     0.90619   0.71292   0.52590   0.00000  Uiso   1.00
C543   C     0.90709   0.78901   0.48030   0.00000  Uiso   1.00
C544   C     0.59240   0.70786   0.48792   0.00000  Uiso   1.00
C545   C     0.61630   0.74955   0.50218   0.00000  Uiso   1.00
C546   C     0.88340   0.75047   0.50173   0.00000  Uiso   1.00
C547   C     0.52387   0.74975   0.50423   0.00000  Uiso   1.00
C548   C     0.97566   0.75030   0.50401   0.00000  Uiso   1.00
C549   C     0.77077   0.60481   0.53672   0.00000  Uiso   1.00
C550   C     0.71679   0.89518   0.47728   0.00000  Uiso   1.00
C551   C     0.72922   0.60460   0.46332   0.00000  Uiso   1.00
C552   C     0.78308   0.89542   0.52294   0.00000  Uiso   1.00
H553   H     0.78676   0.53620   0.56819   0.00000  Uiso   1.00
H554   H     0.68835   0.96377   0.45989   0.00000  Uiso   1.00
H555   H     0.71314   0.53584   0.43198   0.00000  Uiso   1.00
H556   H     0.81152   0.96420   0.54044   0.00000  Uiso   1.00
O557   O     0.61545   0.83174   0.53430   0.00000  Uiso   1.00
C558   C     0.62104   0.82974   0.58565   0.00000  Uiso   1.00
H559   H     0.63991   0.86208   0.59752   0.00000  Uiso   1.00
H560   H     0.64035   0.79743   0.59686   0.00000  Uiso   1.00
H561   H     0.58868   0.83032   0.60487   0.00000  Uiso   1.00
O562   O     0.88379   0.67522   0.54793   0.00000  Uiso   1.00
C563   C     0.87734   0.68684   0.59778   0.00000  Uiso   1.00
H564   H     0.85888   0.65692   0.61543   0.00000  Uiso   1.00
H565   H     0.85727   0.72016   0.60193   0.00000  Uiso   1.00
H566   H     0.90937   0.69080   0.61749   0.00000  Uiso   1.00
O567   O     0.88485   0.82441   0.45423   0.00000  Uiso   1.00
C568   C     0.89382   0.87016   0.47482   0.00000  Uiso   1.00
H569   H     0.89095   0.87001   0.51559   0.00000  Uiso   1.00
H570   H     0.86914   0.89611   0.46054   0.00000  Uiso   1.00
H571   H     0.92689   0.88344   0.46355   0.00000  Uiso   1.00
O572   O     0.61390   0.66813   0.46873   0.00000  Uiso   1.00
C573   C     0.61087   0.62961   0.50241   0.00000  Uiso   1.00
H574   H     0.62389   0.64002   0.53921   0.00000  Uiso   1.00
H575   H     0.63135   0.59938   0.48878   0.00000  Uiso   1.00
H576   H     0.57642   0.61607   0.50550   0.00000  Uiso   1.00
O577   O     0.18573   0.29072   0.83334   0.00000  Uiso   1.00
O578   O     0.31427   0.20929   0.83333   0.00000  Uiso   1.00
O579   O     0.31427   0.29072   0.83333   0.00000  Uiso   1.00
O580   O     0.18573   0.20929   0.83334   0.00000  Uiso   1.00
C581   C     0.16482   0.24989   0.83368   0.00000  Uiso   1.00
C582   C     0.33507   0.25010   0.83350   0.00000  Uiso   1.00
O583   O     0.25000   0.29071   0.76280   0.00000  Uiso   1.00
O584   O     0.25000   0.20929   0.90387   0.00000  Uiso   1.00
O585   O     0.25000   0.29071   0.90387   0.00000  Uiso   1.00
O586   O     0.25000   0.20929   0.76280   0.00000  Uiso   1.00
C587   C     0.27085   0.05407   0.87100   0.00000  Uiso   1.00
C588   C     0.21595   0.44591   0.81058   0.00000  Uiso   1.00
C589   C     0.22909   0.05387   0.79579   0.00000  Uiso   1.00
C590   C     0.28395   0.44615   0.85633   0.00000  Uiso   1.00
C591   C     0.25000   0.25000   0.74017   0.00000  Uiso   1.00
C592   C     0.25003   0.25000   0.92649   0.00000  Uiso   1.00
Cu593  Cu    0.25000   0.29822   0.83333   0.00000  Uiso   1.00
Cu594  Cu    0.25000   0.20179   0.83333   0.00000  Uiso   1.00
H595   H     0.28727   0.12453   0.89905   0.00000  Uiso   1.00
H596   H     0.19055   0.37546   0.79252   0.00000  Uiso   1.00
H597   H     0.21265   0.12416   0.76768   0.00000  Uiso   1.00
H598   H     0.30917   0.37585   0.87457   0.00000  Uiso   1.00
N599   N     0.25000   0.12935   0.83333   0.00000  Uiso   1.00
N600   N     0.25000   0.37066   0.83333   0.00000  Uiso   1.00
C601   C     0.24997   0.02735   0.83341   0.00000  Uiso   1.00
C602   C     0.24997   0.47266   0.83343   0.00000  Uiso   1.00
C603   C     0.25002   0.24999   0.68850   0.00000  Uiso   1.00
C604   C     0.25004   0.25000   0.97816   0.00000  Uiso   1.00
C605   C     0.04735   0.29054   0.85275   0.00000  Uiso   1.00
C606   C     0.45215   0.21277   0.85946   0.00000  Uiso   1.00
C607   C     0.45326   0.28808   0.81437   0.00000  Uiso   1.00
C608   C     0.04631   0.20870   0.82180   0.00000  Uiso   1.00
H609   H     0.02997   0.32239   0.86515   0.00000  Uiso   1.00
H610   H     0.46946   0.18353   0.87746   0.00000  Uiso   1.00
H611   H     0.47180   0.31603   0.79572   0.00000  Uiso   1.00
H612   H     0.02796   0.17765   0.80864   0.00000  Uiso   1.00
C613   C     0.09332   0.29056   0.85272   0.00000  Uiso   1.00
C614   C     0.40619   0.21292   0.85923   0.00000  Uiso   1.00
C615   C     0.40709   0.28901   0.81363   0.00000  Uiso   1.00
C616   C     0.09240   0.20786   0.82126   0.00000  Uiso   1.00
C617   C     0.11630   0.24955   0.83551   0.00000  Uiso   1.00
C618   C     0.38340   0.25047   0.83506   0.00000  Uiso   1.00
C619   C     0.02387   0.24975   0.83756   0.00000  Uiso   1.00
C620   C     0.47566   0.25030   0.83735   0.00000  Uiso   1.00
C621   C     0.27077   0.10481   0.87005   0.00000  Uiso   1.00
C622   C     0.21679   0.39518   0.81062   0.00000  Uiso   1.00
C623   C     0.22922   0.10460   0.79665   0.00000  Uiso   1.00
C624   C     0.28308   0.39542   0.85627   0.00000  Uiso   1.00
H625   H     0.28676   0.03620   0.90153   0.00000  Uiso   1.00
H626   H     0.18835   0.46377   0.79322   0.00000  Uiso   1.00
H627   H     0.21314   0.03584   0.76531   0.00000  Uiso   1.00
H628   H     0.31152   0.46420   0.87377   0.00000  Uiso   1.00
O629   O     0.11545   0.33174   0.86763   0.00000  Uiso   1.00
C630   C     0.12104   0.32974   0.91898   0.00000  Uiso   1.00
H631   H     0.13991   0.36208   0.93085   0.00000  Uiso   1.00
H632   H     0.14035   0.29743   0.93020   0.00000  Uiso   1.00
H633   H     0.08868   0.33032   0.93820   0.00000  Uiso   1.00
O634   O     0.38379   0.17522   0.88127   0.00000  Uiso   1.00
C635   C     0.37734   0.18684   0.93111   0.00000  Uiso   1.00
H636   H     0.35888   0.15692   0.94876   0.00000  Uiso   1.00
H637   H     0.35727   0.22016   0.93526   0.00000  Uiso   1.00
H638   H     0.40937   0.19080   0.95082   0.00000  Uiso   1.00
O639   O     0.38485   0.32441   0.78756   0.00000  Uiso   1.00
C640   C     0.39382   0.37016   0.80815   0.00000  Uiso   1.00
H641   H     0.39095   0.37001   0.84893   0.00000  Uiso   1.00
H642   H     0.36914   0.39611   0.79388   0.00000  Uiso   1.00
H643   H     0.42689   0.38344   0.79688   0.00000  Uiso   1.00
O644   O     0.11390   0.16813   0.80206   0.00000  Uiso   1.00
C645   C     0.11087   0.12961   0.83575   0.00000  Uiso   1.00
H646   H     0.12389   0.14002   0.87255   0.00000  Uiso   1.00
H647   H     0.13135   0.09938   0.82211   0.00000  Uiso   1.00
H648   H     0.07642   0.11607   0.83883   0.00000  Uiso   1.00
O649   O     0.68573   0.29072   0.83334   0.00000  Uiso   1.00
O650   O     0.81427   0.20929   0.83333   0.00000  Uiso   1.00
O651   O     0.81427   0.29072   0.83333   0.00000  Uiso   1.00
O652   O     0.68573   0.20929   0.83334   0.00000  Uiso   1.00
C653   C     0.66482   0.24989   0.83368   0.00000  Uiso   1.00
C654   C     0.83507   0.25010   0.83350   0.00000  Uiso   1.00
O655   O     0.75000   0.29071   0.76280   0.00000  Uiso   1.00
O656   O     0.75000   0.20929   0.90387   0.00000  Uiso   1.00
O657   O     0.75000   0.29071   0.90387   0.00000  Uiso   1.00
O658   O     0.75000   0.20929   0.76280   0.00000  Uiso   1.00
C659   C     0.77085   0.05407   0.87100   0.00000  Uiso   1.00
C660   C     0.71595   0.44591   0.81058   0.00000  Uiso   1.00
C661   C     0.72909   0.05387   0.79579   0.00000  Uiso   1.00
C662   C     0.78395   0.44615   0.85633   0.00000  Uiso   1.00
C663   C     0.75000   0.25000   0.74017   0.00000  Uiso   1.00
C664   C     0.75003   0.25000   0.92649   0.00000  Uiso   1.00
Cu665  Cu    0.75000   0.29822   0.83333   0.00000  Uiso   1.00
Cu666  Cu    0.75000   0.20179   0.83333   0.00000  Uiso   1.00
H667   H     0.78727   0.12453   0.89905   0.00000  Uiso   1.00
H668   H     0.69055   0.37546   0.79252   0.00000  Uiso   1.00
H669   H     0.71265   0.12416   0.76768   0.00000  Uiso   1.00
H670   H     0.80917   0.37585   0.87457   0.00000  Uiso   1.00
N671   N     0.75000   0.12935   0.83333   0.00000  Uiso   1.00
N672   N     0.75000   0.37066   0.83333   0.00000  Uiso   1.00
C673   C     0.74997   0.02735   0.83341   0.00000  Uiso   1.00
C674   C     0.74997   0.47266   0.83343   0.00000  Uiso   1.00
C675   C     0.75002   0.24999   0.68850   0.00000  Uiso   1.00
C676   C     0.75004   0.25000   0.97816   0.00000  Uiso   1.00
C677   C     0.54735   0.29054   0.85275   0.00000  Uiso   1.00
C678   C     0.95215   0.21277   0.85946   0.00000  Uiso   1.00
C679   C     0.95326   0.28808   0.81437   0.00000  Uiso   1.00
C680   C     0.54631   0.20870   0.82180   0.00000  Uiso   1.00
H681   H     0.52997   0.32239   0.86515   0.00000  Uiso   1.00
H682   H     0.96946   0.18353   0.87746   0.00000  Uiso   1.00
H683   H     0.97180   0.31603   0.79572   0.00000  Uiso   1.00
H684   H     0.52796   0.17765   0.80864   0.00000  Uiso   1.00
C685   C     0.59332   0.29056   0.85272   0.00000  Uiso   1.00
C686   C     0.90619   0.21292   0.85923   0.00000  Uiso   1.00
C687   C     0.90709   0.28901   0.81363   0.00000  Uiso   1.00
C688   C     0.59240   0.20786   0.82126   0.00000  Uiso   1.00
C689   C     0.61630   0.24955   0.83551   0.00000  Uiso   1.00
C690   C     0.88340   0.25047   0.83506   0.00000  Uiso   1.00
C691   C     0.52387   0.24975   0.83756   0.00000  Uiso   1.00
C692   C     0.97566   0.25030   0.83735   0.00000  Uiso   1.00
C693   C     0.77077   0.10481   0.87005   0.00000  Uiso   1.00
C694   C     0.71679   0.39518   0.81062   0.00000  Uiso   1.00
C695   C     0.72922   0.10460   0.79665   0.00000  Uiso   1.00
C696   C     0.78308   0.39542   0.85627   0.00000  Uiso   1.00
H697   H     0.78676   0.03620   0.90153   0.00000  Uiso   1.00
H698   H     0.68835   0.46377   0.79322   0.00000  Uiso   1.00
H699   H     0.71314   0.03584   0.76531   0.00000  Uiso   1.00
H700   H     0.81152   0.46420   0.87377   0.00000  Uiso   1.00
O701   O     0.61545   0.33174   0.86763   0.00000  Uiso   1.00
C702   C     0.62104   0.32974   0.91898   0.00000  Uiso   1.00
H703   H     0.63991   0.36208   0.93085   0.00000  Uiso   1.00
H704   H     0.64035   0.29743   0.93020   0.00000  Uiso   1.00
H705   H     0.58868   0.33032   0.93820   0.00000  Uiso   1.00
O706   O     0.88379   0.17522   0.88127   0.00000  Uiso   1.00
C707   C     0.87734   0.18684   0.93111   0.00000  Uiso   1.00
H708   H     0.85888   0.15692   0.94876   0.00000  Uiso   1.00
H709   H     0.85727   0.22016   0.93526   0.00000  Uiso   1.00
H710   H     0.90937   0.19080   0.95082   0.00000  Uiso   1.00
O711   O     0.88485   0.32441   0.78756   0.00000  Uiso   1.00
C712   C     0.89382   0.37016   0.80815   0.00000  Uiso   1.00
H713   H     0.89095   0.37001   0.84893   0.00000  Uiso   1.00
H714   H     0.86914   0.39611   0.79388   0.00000  Uiso   1.00
H715   H     0.92689   0.38344   0.79688   0.00000  Uiso   1.00
O716   O     0.61390   0.16813   0.80206   0.00000  Uiso   1.00
C717   C     0.61087   0.12961   0.83575   0.00000  Uiso   1.00
H718   H     0.62389   0.14002   0.87255   0.00000  Uiso   1.00
H719   H     0.63135   0.09938   0.82211   0.00000  Uiso   1.00
H720   H     0.57642   0.11607   0.83883   0.00000  Uiso   1.00
O721   O     0.18573   0.79072   0.83334   0.00000  Uiso   1.00
O722   O     0.31427   0.70929   0.83333   0.00000  Uiso   1.00
O723   O     0.31427   0.79072   0.83333   0.00000  Uiso   1.00
O724   O     0.18573   0.70929   0.83334   0.00000  Uiso   1.00
C725   C     0.16482   0.74989   0.83368   0.00000  Uiso   1.00
C726   C     0.33507   0.75010   0.83350   0.00000  Uiso   1.00
O727   O     0.25000   0.79071   0.76280   0.00000  Uiso   1.00
O728   O     0.25000   0.70929   0.90387   0.00000  Uiso   1.00
O729   O     0.25000   0.79071   0.90387   0.00000  Uiso   1.00
O730   O     0.25000   0.70929   0.76280   0.00000  Uiso   1.00
C731   C     0.27085   0.55407   0.87100   0.00000  Uiso   1.00
C732   C     0.21595   0.94591   0.81058   0.00000  Uiso   1.00
C733   C     0.22909   0.55387   0.79579   0.00000  Uiso   1.00
C734   C     0.28395   0.94615   0.85633   0.00000  Uiso   1.00
C735   C     0.25000   0.75000   0.74017   0.00000  Uiso   1.00
C736   C     0.25003   0.75000   0.92649   0.00000  Uiso   1.00
Cu737  Cu    0.25000   0.79822   0.83333   0.00000  Uiso   1.00
Cu738  Cu    0.25000   0.70179   0.83333   0.00000  Uiso   1.00
H739   H     0.28727   0.62453   0.89905   0.00000  Uiso   1.00
H740   H     0.19055   0.87546   0.79252   0.00000  Uiso   1.00
H741   H     0.21265   0.62416   0.76768   0.00000  Uiso   1.00
H742   H     0.30917   0.87585   0.87457   0.00000  Uiso   1.00
N743   N     0.25000   0.62935   0.83333   0.00000  Uiso   1.00
N744   N     0.25000   0.87066   0.83333   0.00000  Uiso   1.00
C745   C     0.24997   0.52735   0.83341   0.00000  Uiso   1.00
C746   C     0.24997   0.97266   0.83343   0.00000  Uiso   1.00
C747   C     0.25002   0.74999   0.68850   0.00000  Uiso   1.00
C748   C     0.25004   0.75000   0.97816   0.00000  Uiso   1.00
C749   C     0.04735   0.79054   0.85275   0.00000  Uiso   1.00
C750   C     0.45215   0.71277   0.85946   0.00000  Uiso   1.00
C751   C     0.45326   0.78808   0.81437   0.00000  Uiso   1.00
C752   C     0.04631   0.70870   0.82180   0.00000  Uiso   1.00
H753   H     0.02997   0.82239   0.86515   0.00000  Uiso   1.00
H754   H     0.46946   0.68353   0.87746   0.00000  Uiso   1.00
H755   H     0.47180   0.81603   0.79572   0.00000  Uiso   1.00
H756   H     0.02796   0.67765   0.80864   0.00000  Uiso   1.00
C757   C     0.09332   0.79056   0.85272   0.00000  Uiso   1.00
C758   C     0.40619   0.71292   0.85923   0.00000  Uiso   1.00
C759   C     0.40709   0.78901   0.81363   0.00000  Uiso   1.00
C760   C     0.09240   0.70786   0.82126   0.00000  Uiso   1.00
C761   C     0.11630   0.74955   0.83551   0.00000  Uiso   1.00
C762   C     0.38340   0.75047   0.83506   0.00000  Uiso   1.00
C763   C     0.02387   0.74975   0.83756   0.00000  Uiso   1.00
C764   C     0.47566   0.75030   0.83735   0.00000  Uiso   1.00
C765   C     0.27077   0.60481   0.87005   0.00000  Uiso   1.00
C766   C     0.21679   0.89518   0.81062   0.00000  Uiso   1.00
C767   C     0.22922   0.60460   0.79665   0.00000  Uiso   1.00
C768   C     0.28308   0.89542   0.85627   0.00000  Uiso   1.00
H769   H     0.28676   0.53620   0.90153   0.00000  Uiso   1.00
H770   H     0.18835   0.96377   0.79322   0.00000  Uiso   1.00
H771   H     0.21314   0.53584   0.76531   0.00000  Uiso   1.00
H772   H     0.31152   0.96420   0.87377   0.00000  Uiso   1.00
O773   O     0.11545   0.83174   0.86763   0.00000  Uiso   1.00
C774   C     0.12104   0.82974   0.91898   0.00000  Uiso   1.00
H775   H     0.13991   0.86208   0.93085   0.00000  Uiso   1.00
H776   H     0.14035   0.79743   0.93020   0.00000  Uiso   1.00
H777   H     0.08868   0.83032   0.93820   0.00000  Uiso   1.00
O778   O     0.38379   0.67522   0.88127   0.00000  Uiso   1.00
C779   C     0.37734   0.68684   0.93111   0.00000  Uiso   1.00
H780   H     0.35888   0.65692   0.94876   0.00000  Uiso   1.00
H781   H     0.35727   0.72016   0.93526   0.00000  Uiso   1.00
H782   H     0.40937   0.69080   0.95082   0.00000  Uiso   1.00
O783   O     0.38485   0.82441   0.78756   0.00000  Uiso   1.00
C784   C     0.39382   0.87016   0.80815   0.00000  Uiso   1.00
H785   H     0.39095   0.87001   0.84893   0.00000  Uiso   1.00
H786   H     0.36914   0.89611   0.79388   0.00000  Uiso   1.00
H787   H     0.42689   0.88344   0.79688   0.00000  Uiso   1.00
O788   O     0.11390   0.66813   0.80206   0.00000  Uiso   1.00
C789   C     0.11087   0.62961   0.83575   0.00000  Uiso   1.00
H790   H     0.12389   0.64002   0.87255   0.00000  Uiso   1.00
H791   H     0.13135   0.59938   0.82211   0.00000  Uiso   1.00
H792   H     0.07642   0.61607   0.83883   0.00000  Uiso   1.00
O793   O     0.68573   0.79072   0.83334   0.00000  Uiso   1.00
O794   O     0.81427   0.70929   0.83333   0.00000  Uiso   1.00
O795   O     0.81427   0.79072   0.83333   0.00000  Uiso   1.00
O796   O     0.68573   0.70929   0.83334   0.00000  Uiso   1.00
C797   C     0.66482   0.74989   0.83368   0.00000  Uiso   1.00
C798   C     0.83507   0.75010   0.83350   0.00000  Uiso   1.00
O799   O     0.75000   0.79071   0.76280   0.00000  Uiso   1.00
O800   O     0.75000   0.70929   0.90387   0.00000  Uiso   1.00
O801   O     0.75000   0.79071   0.90387   0.00000  Uiso   1.00
O802   O     0.75000   0.70929   0.76280   0.00000  Uiso   1.00
C803   C     0.77085   0.55407   0.87100   0.00000  Uiso   1.00
C804   C     0.71595   0.94591   0.81058   0.00000  Uiso   1.00
C805   C     0.72909   0.55387   0.79579   0.00000  Uiso   1.00
C806   C     0.78395   0.94615   0.85633   0.00000  Uiso   1.00
C807   C     0.75000   0.75000   0.74017   0.00000  Uiso   1.00
C808   C     0.75003   0.75000   0.92649   0.00000  Uiso   1.00
Cu809  Cu    0.75000   0.79822   0.83333   0.00000  Uiso   1.00
Cu810  Cu    0.75000   0.70179   0.83333   0.00000  Uiso   1.00
H811   H     0.78727   0.62453   0.89905   0.00000  Uiso   1.00
H812   H     0.69055   0.87546   0.79252   0.00000  Uiso   1.00
H813   H     0.71265   0.62416   0.76768   0.00000  Uiso   1.00
H814   H     0.80917   0.87585   0.87457   0.00000  Uiso   1.00
N815   N     0.75000   0.62935   0.83333   0.00000  Uiso   1.00
N816   N     0.75000   0.87066   0.83333   0.00000  Uiso   1.00
C817   C     0.74997   0.52735   0.83341   0.00000  Uiso   1.00
C818   C     0.74997   0.97266   0.83343   0.00000  Uiso   1.00
C819   C     0.75002   0.74999   0.68850   0.00000  Uiso   1.00
C820   C     0.75004   0.75000   0.97816   0.00000  Uiso   1.00
C821   C     0.54735   0.79054   0.85275   0.00000  Uiso   1.00
C822   C     0.95215   0.71277   0.85946   0.00000  Uiso   1.00
C823   C     0.95326   0.78808   0.81437   0.00000  Uiso   1.00
C824   C     0.54631   0.70870   0.82180   0.00000  Uiso   1.00
H825   H     0.52997   0.82239   0.86515   0.00000  Uiso   1.00
H826   H     0.96946   0.68353   0.87746   0.00000  Uiso   1.00
H827   H     0.97180   0.81603   0.79572   0.00000  Uiso   1.00
H828   H     0.52796   0.67765   0.80864   0.00000  Uiso   1.00
C829   C     0.59332   0.79056   0.85272   0.00000  Uiso   1.00
C830   C     0.90619   0.71292   0.85923   0.00000  Uiso   1.00
C831   C     0.90709   0.78901   0.81363   0.00000  Uiso   1.00
C832   C     0.59240   0.70786   0.82126   0.00000  Uiso   1.00
C833   C     0.61630   0.74955   0.83551   0.00000  Uiso   1.00
C834   C     0.88340   0.75047   0.83506   0.00000  Uiso   1.00
C835   C     0.52387   0.74975   0.83756   0.00000  Uiso   1.00
C836   C     0.97566   0.75030   0.83735   0.00000  Uiso   1.00
C837   C     0.77077   0.60481   0.87005   0.00000  Uiso   1.00
C838   C     0.71679   0.89518   0.81062   0.00000  Uiso   1.00
C839   C     0.72922   0.60460   0.79665   0.00000  Uiso   1.00
C840   C     0.78308   0.89542   0.85627   0.00000  Uiso   1.00
H841   H     0.78676   0.53620   0.90153   0.00000  Uiso   1.00
H842   H     0.68835   0.96377   0.79322   0.00000  Uiso   1.00
H843   H     0.71314   0.53584   0.76531   0.00000  Uiso   1.00
H844   H     0.81152   0.96420   0.87377   0.00000  Uiso   1.00
O845   O     0.61545   0.83174   0.86763   0.00000  Uiso   1.00
C846   C     0.62104   0.82974   0.91898   0.00000  Uiso   1.00
H847   H     0.63991   0.86208   0.93085   0.00000  Uiso   1.00
H848   H     0.64035   0.79743   0.93020   0.00000  Uiso   1.00
H849   H     0.58868   0.83032   0.93820   0.00000  Uiso   1.00
O850   O     0.88379   0.67522   0.88127   0.00000  Uiso   1.00
C851   C     0.87734   0.68684   0.93111   0.00000  Uiso   1.00
H852   H     0.85888   0.65692   0.94876   0.00000  Uiso   1.00
H853   H     0.85727   0.72016   0.93526   0.00000  Uiso   1.00
H854   H     0.90937   0.69080   0.95082   0.00000  Uiso   1.00
O855   O     0.88485   0.82441   0.78756   0.00000  Uiso   1.00
C856   C     0.89382   0.87016   0.80815   0.00000  Uiso   1.00
H857   H     0.89095   0.87001   0.84893   0.00000  Uiso   1.00
H858   H     0.86914   0.89611   0.79388   0.00000  Uiso   1.00
H859   H     0.92689   0.88344   0.79688   0.00000  Uiso   1.00
O860   O     0.61390   0.66813   0.80206   0.00000  Uiso   1.00
C861   C     0.61087   0.62961   0.83575   0.00000  Uiso   1.00
H862   H     0.62389   0.64002   0.87255   0.00000  Uiso   1.00
H863   H     0.63135   0.59938   0.82211   0.00000  Uiso   1.00
H864   H     0.57642   0.61607   0.83883   0.00000  Uiso   1.00
loop_
_geom_bond_atom_site_label_1
_geom_bond_atom_site_label_2
_geom_bond_distance
_geom_bond_site_symmetry_2
_ccdc_geom_bond_type
O1     C5      1.295   .     A
O1     Cu17    1.958   .     S
O2     Cu18    1.958   .     S
O2     C6      1.293   .     A
O3     Cu17    1.960   .     S
O3     C6      1.292   .     A
O4     Cu18    1.960   .     S
O4     C5      1.294   .     A
C5     C41     1.472   .     S
C6     C42     1.465   .     S
O7     C15     1.286   .     A
O7     Cu17    1.933   .     S
O8     Cu18    1.933   .     S
O8     C16     1.286   .     A
O9     Cu17    1.933   .     S
O9     C16     1.286   .     A
O10    Cu18    1.933   .     S
O10    C15     1.286   .     A
C11    H49     1.081   .     S
C11    C45     1.407   .     A
C11    C25     1.411   .     A
C12    H50     1.081   .     S
C12    C46     1.407   .     A
C12    C26     1.411   .     A
C13    H51     1.081   .     S
C13    C47     1.407   .     A
C13    C25     1.411   .     A
C14    H52     1.081   .     S
C14    C48     1.407   .     A
C14    C26     1.411   .     A
C15    C27     1.408   .     S
C16    C28     1.408   .     S
Cu17   Cu18    2.673   .     S
Cu17   N24     2.008   .     S
Cu18   N23     2.008   .     S
H19    C45     1.081   .     S
H20    C46     1.081   .     S
H21    C47     1.081   .     S
H22    C48     1.081   .     S
N23    C45     1.364   .     A
N23    C47     1.364   .     A
N24    C48     1.363   .     A
N24    C46     1.364   .     A
C25    C170    1.516   1_545 S
C26    C169    1.516   .     S
C27    C604    1.190   1_554 S
C28    C315    1.190   .     S
C29    C43     1.396   .     A
C29    H33     1.084   .     S
C29    C37     1.393   .     A
C30    C44     1.397   .     A
C30    H34     1.084   .     S
C30    C38     1.393   .     A
C31    H35     1.083   .     S
C31    C39     1.400   .     A
C31    C44     1.397   .     A
C32    H36     1.084   .     S
C32    C43     1.396   .     A
C32    C40     1.397   .     A
C37    O53     1.382   .     S
C37    C41     1.416   .     A
C38    C42     1.413   .     A
C38    O58     1.382   .     S
C39    O63     1.387   .     S
C39    C42     1.412   .     A
C40    C41     1.416   .     A
C40    O68     1.385   .     S
C43    C116    1.461   1_455 S
C44    C115    1.461   .     S
O53    C54     1.410   .     S
C54    H57     1.113   .     S
C54    H56     1.114   .     S
C54    H55     1.109   .     S
O58    C59     1.410   .     S
C59    H60     1.109   .     S
C59    H61     1.114   .     S
C59    H62     1.113   .     S
O63    C64     1.412   .     S
C64    H65     1.115   .     S
C64    H66     1.109   .     S
C64    H67     1.111   .     S
O68    C69     1.411   .     S
C69    H72     1.112   .     S
C69    H70     1.114   .     S
C69    H71     1.109   .     S
O73    C77     1.295   .     A
O73    Cu89    1.958   .     S
O74    Cu90    1.958   .     S
O74    C78     1.293   .     A
O75    Cu89    1.960   .     S
O75    C78     1.292   .     A
O76    Cu90    1.960   .     S
O76    C77     1.294   .     A
C77    C113    1.472   .     S
C78    C114    1.465   .     S
O79    C87     1.286   .     A
O79    Cu89    1.933   .     S
O80    Cu90    1.933   .     S
O80    C88     1.286   .     A
O81    Cu89    1.933   .     S
O81    C88     1.286   .     A
O82    Cu90    1.933   .     S
O82    C87     1.286   .     A
C83    H121    1.081   .     S
C83    C117    1.407   .     A
C83    C97     1.411   .     A
C84    H122    1.081   .     S
C84    C118    1.407   .     A
C84    C98     1.411   .     A
C85    H123    1.081   .     S
C85    C119    1.407   .     A
C85    C97     1.411   .     A
C86    H124    1.081   .     S
C86    C120    1.407   .     A
C86    C98     1.411   .     A
C87    C99     1.408   .     S
C88    C100    1.408   .     S
Cu89   Cu90    2.673   .     S
Cu89   N96     2.008   .     S
Cu90   N95     2.008   .     S
H91    C117    1.081   .     S
H92    C118    1.081   .     S
H93    C119    1.081   .     S
H94    C120    1.081   .     S
N95    C117    1.364   .     A
N95    C119    1.364   .     A
N96    C120    1.363   .     A
N96    C118    1.364   .     A
C97    C242    1.516   1_545 S
C98    C241    1.516   .     S
C99    C676    1.190   1_554 S
C100   C387    1.190   .     S
C101   C115    1.396   .     A
C101   H105    1.084   .     S
C101   C109    1.393   .     A
C102   C116    1.397   .     A
C102   H106    1.084   .     S
C102   C110    1.393   .     A
C103   H107    1.083   .     S
C103   C111    1.400   .     A
C103   C116    1.397   .     A
C104   H108    1.084   .     S
C104   C115    1.396   .     A
C104   C112    1.397   .     A
C109   O125    1.382   .     S
C109   C113    1.416   .     A
C110   C114    1.413   .     A
C110   O130    1.382   .     S
C111   O135    1.387   .     S
C111   C114    1.412   .     A
C112   C113    1.416   .     A
C112   O140    1.385   .     S
C116   C43     1.461   1_655 S
O125   C126    1.410   .     S
C126   H129    1.113   .     S
C126   H128    1.114   .     S
C126   H127    1.109   .     S
O130   C131    1.410   .     S
C131   H132    1.109   .     S
C131   H133    1.114   .     S
C131   H134    1.113   .     S
O135   C136    1.412   .     S
C136   H137    1.115   .     S
C136   H138    1.109   .     S
C136   H139    1.111   .     S
O140   C141    1.411   .     S
C141   H144    1.112   .     S
C141   H142    1.114   .     S
C141   H143    1.109   .     S
O145   C149    1.295   .     A
O145   Cu161   1.958   .     S
O146   Cu162   1.958   .     S
O146   C150    1.293   .     A
O147   Cu161   1.960   .     S
O147   C150    1.292   .     A
O148   Cu162   1.960   .     S
O148   C149    1.294   .     A
C149   C185    1.472   .     S
C150   C186    1.465   .     S
O151   C159    1.286   .     A
O151   Cu161   1.933   .     S
O152   Cu162   1.933   .     S
O152   C160    1.286   .     A
O153   Cu161   1.933   .     S
O153   C160    1.286   .     A
O154   Cu162   1.933   .     S
O154   C159    1.286   .     A
C155   H193    1.081   .     S
C155   C189    1.407   .     A
C155   C169    1.411   .     A
C156   H194    1.081   .     S
C156   C190    1.407   .     A
C156   C170    1.411   .     A
C157   H195    1.081   .     S
C157   C191    1.407   .     A
C157   C169    1.411   .     A
C158   H196    1.081   .     S
C158   C192    1.407   .     A
C158   C170    1.411   .     A
C159   C171    1.408   .     S
C160   C172    1.408   .     S
Cu161  Cu162   2.673   .     S
Cu161  N168    2.008   .     S
Cu162  N167    2.008   .     S
H163   C189    1.081   .     S
H164   C190    1.081   .     S
H165   C191    1.081   .     S
H166   C192    1.081   .     S
N167   C189    1.364   .     A
N167   C191    1.364   .     A
N168   C192    1.363   .     A
N168   C190    1.364   .     A
C170   C25     1.516   1_565 S
C171   C748    1.190   1_554 S
C172   C459    1.190   .     S
C173   C187    1.396   .     A
C173   H177    1.084   .     S
C173   C181    1.393   .     A
C174   C188    1.397   .     A
C174   H178    1.084   .     S
C174   C182    1.393   .     A
C175   H179    1.083   .     S
C175   C183    1.400   .     A
C175   C188    1.397   .     A
C176   H180    1.084   .     S
C176   C187    1.396   .     A
C176   C184    1.397   .     A
C181   O197    1.382   .     S
C181   C185    1.416   .     A
C182   C186    1.413   .     A
C182   O202    1.382   .     S
C183   O207    1.387   .     S
C183   C186    1.412   .     A
C184   C185    1.416   .     A
C184   O212    1.385   .     S
C187   C260    1.461   1_455 S
C188   C259    1.461   .     S
O197   C198    1.410   .     S
C198   H201    1.113   .     S
C198   H200    1.114   .     S
C198   H199    1.109   .     S
O202   C203    1.410   .     S
C203   H204    1.109   .     S
C203   H205    1.114   .     S
C203   H206    1.113   .     S
O207   C208    1.412   .     S
C208   H209    1.115   .     S
C208   H210    1.109   .     S
C208   H211    1.111   .     S
O212   C213    1.411   .     S
C213   H216    1.112   .     S
C213   H214    1.114   .     S
C213   H215    1.109   .     S
O217   C221    1.295   .     A
O217   Cu233   1.958   .     S
O218   Cu234   1.958   .     S
O218   C222    1.293   .     A
O219   Cu233   1.960   .     S
O219   C222    1.292   .     A
O220   Cu234   1.960   .     S
O220   C221    1.294   .     A
C221   C257    1.472   .     S
C222   C258    1.465   .     S
O223   C231    1.286   .     A
O223   Cu233   1.933   .     S
O224   Cu234   1.933   .     S
O224   C232    1.286   .     A
O225   Cu233   1.933   .     S
O225   C232    1.286   .     A
O226   Cu234   1.933   .     S
O226   C231    1.286   .     A
C227   H265    1.081   .     S
C227   C261    1.407   .     A
C227   C241    1.411   .     A
C228   H266    1.081   .     S
C228   C262    1.407   .     A
C228   C242    1.411   .     A
C229   H267    1.081   .     S
C229   C263    1.407   .     A
C229   C241    1.411   .     A
C230   H268    1.081   .     S
C230   C264    1.407   .     A
C230   C242    1.411   .     A
C231   C243    1.408   .     S
C232   C244    1.408   .     S
Cu233  Cu234   2.673   .     S
Cu233  N240    2.008   .     S
Cu234  N239    2.008   .     S
H235   C261    1.081   .     S
H236   C262    1.081   .     S
H237   C263    1.081   .     S
H238   C264    1.081   .     S
N239   C261    1.364   .     A
N239   C263    1.364   .     A
N240   C264    1.363   .     A
N240   C262    1.364   .     A
C242   C97     1.516   1_565 S
C243   C820    1.190   1_554 S
C244   C531    1.190   .     S
C245   C259    1.396   .     A
C245   H249    1.084   .     S
C245   C253    1.393   .     A
C246   C260    1.397   .     A
C246   H250    1.084   .     S
C246   C254    1.393   .     A
C247   H251    1.083   .     S
C247   C255    1.400   .     A
C247   C260    1.397   .     A
C248   H252    1.084   .     S
C248   C259    1.396   .     A
C248   C256    1.397   .     A
C253   O269    1.382   .     S
C253   C257    1.416   .     A
C254   C258    1.413   .     A
C254   O274    1.382   .     S
C255   O279    1.387   .     S
C255   C258    1.412   .     A
C256   C257    1.416   .     A
C256   O284    1.385   .     S
C260   C187    1.461   1_655 S
O269   C270    1.410   .     S
C270   H273    1.113   .     S
C270   H272    1.114   .     S
C270   H271    1.109   .     S
O274   C275    1.410   .     S
C275   H276    1.109   .     S
C275   H277    1.114   .     S
C275   H278    1.113   .     S
O279   C280    1.412   .     S
C280   H281    1.115   .     S
C280   H282    1.109   .     S
C280   H283    1.111   .     S
O284   C285    1.411   .     S
C285   H288    1.112   .     S
C285   H286    1.114   .     S
C285   H287    1.109   .     S
O289   C293    1.295   .     A
O289   Cu305   1.958   .     S
O290   Cu306   1.958   .     S
O290   C294    1.293   .     A
O291   Cu305   1.960   .     S
O291   C294    1.292   .     A
O292   Cu306   1.960   .     S
O292   C293    1.294   .     A
C293   C329    1.472   .     S
C294   C330    1.465   .     S
O295   C303    1.286   .     A
O295   Cu305   1.933   .     S
O296   Cu306   1.933   .     S
O296   C304    1.286   .     A
O297   Cu305   1.933   .     S
O297   C304    1.286   .     A
O298   Cu306   1.933   .     S
O298   C303    1.286   .     A
C299   H337    1.081   .     S
C299   C333    1.407   .     A
C299   C313    1.411   .     A
C300   H338    1.081   .     S
C300   C334    1.407   .     A
C300   C314    1.411   .     A
C301   H339    1.081   .     S
C301   C335    1.407   .     A
C301   C313    1.411   .     A
C302   H340    1.081   .     S
C302   C336    1.407   .     A
C302   C314    1.411   .     A
C303   C315    1.408   .     S
C304   C316    1.408   .     S
Cu305  Cu306   2.673   .     S
Cu305  N312    2.008   .     S
Cu306  N311    2.008   .     S
H307   C333    1.081   .     S
H308   C334    1.081   .     S
H309   C335    1.081   .     S
H310   C336    1.081   .     S
N311   C333    1.364   .     A
N311   C335    1.364   .     A
N312   C336    1.363   .     A
N312   C334    1.364   .     A
C313   C458    1.516   1_545 S
C314   C457    1.516   .     S
C316   C603    1.190   .     S
C317   C331    1.396   .     A
C317   H321    1.084   .     S
C317   C325    1.393   .     A
C318   C332    1.397   .     A
C318   H322    1.084   .     S
C318   C326    1.393   .     A
C319   H323    1.083   .     S
C319   C327    1.400   .     A
C319   C332    1.397   .     A
C320   H324    1.084   .     S
C320   C331    1.396   .     A
C320   C328    1.397   .     A
C325   O341    1.382   .     S
C325   C329    1.416   .     A
C326   C330    1.413   .     A
C326   O346    1.382   .     S
C327   O351    1.387   .     S
C327   C330    1.412   .     A
C328   C329    1.416   .     A
C328   O356    1.385   .     S
C331   C404    1.461   1_455 S
C332   C403    1.461   .     S
O341   C342    1.410   .     S
C342   H345    1.113   .     S
C342   H344    1.114   .     S
C342   H343    1.109   .     S
O346   C347    1.410   .     S
C347   H348    1.109   .     S
C347   H349    1.114   .     S
C347   H350    1.113   .     S
O351   C352    1.412   .     S
C352   H353    1.115   .     S
C352   H354    1.109   .     S
C352   H355    1.111   .     S
O356   C357    1.411   .     S
C357   H360    1.112   .     S
C357   H358    1.114   .     S
C357   H359    1.109   .     S
O361   C365    1.295   .     A
O361   Cu377   1.958   .     S
O362   Cu378   1.958   .     S
O362   C366    1.293   .     A
O363   Cu377   1.960   .     S
O363   C366    1.292   .     A
O364   Cu378   1.960   .     S
O364   C365    1.294   .     A
C365   C401    1.472   .     S
C366   C402    1.465   .     S
O367   C375    1.286   .     A
O367   Cu377   1.933   .     S
O368   Cu378   1.933   .     S
O368   C376    1.286   .     A
O369   Cu377   1.933   .     S
O369   C376    1.286   .     A
O370   Cu378   1.933   .     S
O370   C375    1.286   .     A
C371   H409    1.081   .     S
C371   C405    1.407   .     A
C371   C385    1.411   .     A
C372   H410    1.081   .     S
C372   C406    1.407   .     A
C372   C386    1.411   .     A
C373   H411    1.081   .     S
C373   C407    1.407   .     A
C373   C385    1.411   .     A
C374   H412    1.081   .     S
C374   C408    1.407   .     A
C374   C386    1.411   .     A
C375   C387    1.408   .     S
C376   C388    1.408   .     S
Cu377  Cu378   2.673   .     S
Cu377  N384    2.008   .     S
Cu378  N383    2.008   .     S
H379   C405    1.081   .     S
H380   C406    1.081   .     S
H381   C407    1.081   .     S
H382   C408    1.081   .     S
N383   C405    1.364   .     A
N383   C407    1.364   .     A
N384   C408    1.363   .     A
N384   C406    1.364   .     A
C385   C530    1.516   1_545 S
C386   C529    1.516   .     S
C388   C675    1.190   .     S
C389   C403    1.396   .     A
C389   H393    1.084   .     S
C389   C397    1.393   .     A
C390   C404    1.397   .     A
C390   H394    1.084   .     S
C390   C398    1.393   .     A
C391   H395    1.083   .     S
C391   C399    1.400   .     A
C391   C404    1.397   .     A
C392   H396    1.084   .     S
C392   C403    1.396   .     A
C392   C400    1.397   .     A
C397   O413    1.382   .     S
C397   C401    1.416   .     A
C398   C402    1.413   .     A
C398   O418    1.382   .     S
C399   O423    1.387   .     S
C399   C402    1.412   .     A
C400   C401    1.416   .     A
C400   O428    1.385   .     S
C404   C331    1.461   1_655 S
O413   C414    1.410   .     S
C414   H417    1.113   .     S
C414   H416    1.114   .     S
C414   H415    1.109   .     S
O418   C419    1.410   .     S
C419   H420    1.109   .     S
C419   H421    1.114   .     S
C419   H422    1.113   .     S
O423   C424    1.412   .     S
C424   H425    1.115   .     S
C424   H426    1.109   .     S
C424   H427    1.111   .     S
O428   C429    1.411   .     S
C429   H432    1.112   .     S
C429   H430    1.114   .     S
C429   H431    1.109   .     S
O433   C437    1.295   .     A
O433   Cu449   1.958   .     S
O434   Cu450   1.958   .     S
O434   C438    1.293   .     A
O435   Cu449   1.960   .     S
O435   C438    1.292   .     A
O436   Cu450   1.960   .     S
O436   C437    1.294   .     A
C437   C473    1.472   .     S
C438   C474    1.465   .     S
O439   C447    1.286   .     A
O439   Cu449   1.933   .     S
O440   Cu450   1.933   .     S
O440   C448    1.286   .     A
O441   Cu449   1.933   .     S
O441   C448    1.286   .     A
O442   Cu450   1.933   .     S
O442   C447    1.286   .     A
C443   H481    1.081   .     S
C443   C477    1.407   .     A
C443   C457    1.411   .     A
C444   H482    1.081   .     S
C444   C478    1.407   .     A
C444   C458    1.411   .     A
C445   H483    1.081   .     S
C445   C479    1.407   .     A
C445   C457    1.411   .     A
C446   H484    1.081   .     S
C446   C480    1.407   .     A
C446   C458    1.411   .     A
C447   C459    1.408   .     S
C448   C460    1.408   .     S
Cu449  Cu450   2.673   .     S
Cu449  N456    2.008   .     S
Cu450  N455    2.008   .     S
H451   C477    1.081   .     S
H452   C478    1.081   .     S
H453   C479    1.081   .     S
H454   C480    1.081   .     S
N455   C477    1.364   .     A
N455   C479    1.364   .     A
N456   C480    1.363   .     A
N456   C478    1.364   .     A
C458   C313    1.516   1_565 S
C460   C747    1.190   .     S
C461   C475    1.396   .     A
C461   H465    1.084   .     S
C461   C469    1.393   .     A
C462   C476    1.397   .     A
C462   H466    1.084   .     S
C462   C470    1.393   .     A
C463   H467    1.083   .     S
C463   C471    1.400   .     A
C463   C476    1.397   .     A
C464   H468    1.084   .     S
C464   C475    1.396   .     A
C464   C472    1.397   .     A
C469   O485    1.382   .     S
C469   C473    1.416   .     A
C470   C474    1.413   .     A
C470   O490    1.382   .     S
C471   O495    1.387   .     S
C471   C474    1.412   .     A
C472   C473    1.416   .     A
C472   O500    1.385   .     S
C475   C548    1.461   1_455 S
C476   C547    1.461   .     S
O485   C486    1.410   .     S
C486   H489    1.113   .     S
C486   H488    1.114   .     S
C486   H487    1.109   .     S
O490   C491    1.410   .     S
C491   H492    1.109   .     S
C491   H493    1.114   .     S
C491   H494    1.113   .     S
O495   C496    1.412   .     S
C496   H497    1.115   .     S
C496   H498    1.109   .     S
C496   H499    1.111   .     S
O500   C501    1.411   .     S
C501   H504    1.112   .     S
C501   H502    1.114   .     S
C501   H503    1.109   .     S
O505   C509    1.295   .     A
O505   Cu521   1.958   .     S
O506   Cu522   1.958   .     S
O506   C510    1.293   .     A
O507   Cu521   1.960   .     S
O507   C510    1.292   .     A
O508   Cu522   1.960   .     S
O508   C509    1.294   .     A
C509   C545    1.472   .     S
C510   C546    1.465   .     S
O511   C519    1.286   .     A
O511   Cu521   1.933   .     S
O512   Cu522   1.933   .     S
O512   C520    1.286   .     A
O513   Cu521   1.933   .     S
O513   C520    1.286   .     A
O514   Cu522   1.933   .     S
O514   C519    1.286   .     A
C515   H553    1.081   .     S
C515   C549    1.407   .     A
C515   C529    1.411   .     A
C516   H554    1.081   .     S
C516   C550    1.407   .     A
C516   C530    1.411   .     A
C517   H555    1.081   .     S
C517   C551    1.407   .     A
C517   C529    1.411   .     A
C518   H556    1.081   .     S
C518   C552    1.407   .     A
C518   C530    1.411   .     A
C519   C531    1.408   .     S
C520   C532    1.408   .     S
Cu521  Cu522   2.673   .     S
Cu521  N528    2.008   .     S
Cu522  N527    2.008   .     S
H523   C549    1.081   .     S
H524   C550    1.081   .     S
H525   C551    1.081   .     S
H526   C552    1.081   .     S
N527   C549    1.364   .     A
N527   C551    1.364   .     A
N528   C552    1.363   .     A
N528   C550    1.364   .     A
C530   C385    1.516   1_565 S
C532   C819    1.190   .     S
C533   C547    1.396   .     A
C533   H537    1.084   .     S
C533   C541    1.393   .     A
C534   C548    1.397   .     A
C534   H538    1.084   .     S
C534   C542    1.393   .     A
C535   H539    1.083   .     S
C535   C543    1.400   .     A
C535   C548    1.397   .     A
C536   H540    1.084   .     S
C536   C547    1.396   .     A
C536   C544    1.397   .     A
C541   O557    1.382   .     S
C541   C545    1.416   .     A
C542   C546    1.413   .     A
C542   O562    1.382   .     S
C543   O567    1.387   .     S
C543   C546    1.412   .     A
C544   C545    1.416   .     A
C544   O572    1.385   .     S
C548   C475    1.461   1_655 S
O557   C558    1.410   .     S
C558   H561    1.113   .     S
C558   H560    1.114   .     S
C558   H559    1.109   .     S
O562   C563    1.410   .     S
C563   H564    1.109   .     S
C563   H565    1.114   .     S
C563   H566    1.113   .     S
O567   C568    1.412   .     S
C568   H569    1.115   .     S
C568   H570    1.109   .     S
C568   H571    1.111   .     S
O572   C573    1.411   .     S
C573   H576    1.112   .     S
C573   H574    1.114   .     S
C573   H575    1.109   .     S
O577   C581    1.295   .     A
O577   Cu593   1.958   .     S
O578   Cu594   1.958   .     S
O578   C582    1.293   .     A
O579   Cu593   1.960   .     S
O579   C582    1.292   .     A
O580   Cu594   1.960   .     S
O580   C581    1.294   .     A
C581   C617    1.472   .     S
C582   C618    1.465   .     S
O583   C591    1.286   .     A
O583   Cu593   1.933   .     S
O584   Cu594   1.933   .     S
O584   C592    1.286   .     A
O585   Cu593   1.933   .     S
O585   C592    1.286   .     A
O586   Cu594   1.933   .     S
O586   C591    1.286   .     A
C587   H625    1.081   .     S
C587   C621    1.407   .     A
C587   C601    1.411   .     A
C588   H626    1.081   .     S
C588   C622    1.407   .     A
C588   C602    1.411   .     A
C589   H627    1.081   .     S
C589   C623    1.407   .     A
C589   C601    1.411   .     A
C590   H628    1.081   .     S
C590   C624    1.407   .     A
C590   C602    1.411   .     A
C591   C603    1.408   .     S
C592   C604    1.408   .     S
Cu593  Cu594   2.673   .     S
Cu593  N600    2.008   .     S
Cu594  N599    2.008   .     S
H595   C621    1.081   .     S
H596   C622    1.081   .     S
H597   C623    1.081   .     S
H598   C624    1.081   .     S
N599   C621    1.364   .     A
N599   C623    1.364   .     A
N600   C624    1.363   .     A
N600   C622    1.364   .     A
C601   C746    1.516   1_545 S
C602   C745    1.516   .     S
C604   C27     1.190   1_556 S
C605   C619    1.396   .     A
C605   H609    1.084   .     S
C605   C613    1.393   .     A
C606   C620    1.397   .     A
C606   H610    1.084   .     S
C606   C614    1.393   .     A
C607   H611    1.083   .     S
C607   C615    1.400   .     A
C607   C620    1.397   .     A
C608   H612    1.084   .     S
C608   C619    1.396   .     A
C608   C616    1.397   .     A
C613   O629    1.382   .     S
C613   C617    1.416   .     A
C614   C618    1.413   .     A
C614   O634    1.382   .     S
C615   O639    1.387   .     S
C615   C618    1.412   .     A
C616   C617    1.416   .     A
C616   O644    1.385   .     S
C619   C692    1.461   1_455 S
C620   C691    1.461   .     S
O629   C630    1.410   .     S
C630   H633    1.113   .     S
C630   H632    1.114   .     S
C630   H631    1.109   .     S
O634   C635    1.410   .     S
C635   H636    1.109   .     S
C635   H637    1.114   .     S
C635   H638    1.113   .     S
O639   C640    1.412   .     S
C640   H641    1.115   .     S
C640   H642    1.109   .     S
C640   H643    1.111   .     S
O644   C645    1.411   .     S
C645   H648    1.112   .     S
C645   H646    1.114   .     S
C645   H647    1.109   .     S
O649   C653    1.295   .     A
O649   Cu665   1.958   .     S
O650   Cu666   1.958   .     S
O650   C654    1.293   .     A
O651   Cu665   1.960   .     S
O651   C654    1.292   .     A
O652   Cu666   1.960   .     S
O652   C653    1.294   .     A
C653   C689    1.472   .     S
C654   C690    1.465   .     S
O655   C663    1.286   .     A
O655   Cu665   1.933   .     S
O656   Cu666   1.933   .     S
O656   C664    1.286   .     A
O657   Cu665   1.933   .     S
O657   C664    1.286   .     A
O658   Cu666   1.933   .     S
O658   C663    1.286   .     A
C659   H697    1.081   .     S
C659   C693    1.407   .     A
C659   C673    1.411   .     A
C660   H698    1.081   .     S
C660   C694    1.407   .     A
C660   C674    1.411   .     A
C661   H699    1.081   .     S
C661   C695    1.407   .     A
C661   C673    1.411   .     A
C662   H700    1.081   .     S
C662   C696    1.407   .     A
C662   C674    1.411   .     A
C663   C675    1.408   .     S
C664   C676    1.408   .     S
Cu665  Cu666   2.673   .     S
Cu665  N672    2.008   .     S
Cu666  N671    2.008   .     S
H667   C693    1.081   .     S
H668   C694    1.081   .     S
H669   C695    1.081   .     S
H670   C696    1.081   .     S
N671   C693    1.364   .     A
N671   C695    1.364   .     A
N672   C696    1.363   .     A
N672   C694    1.364   .     A
C673   C818    1.516   1_545 S
C674   C817    1.516   .     S
C676   C99     1.190   1_556 S
C677   C691    1.396   .     A
C677   H681    1.084   .     S
C677   C685    1.393   .     A
C678   C692    1.397   .     A
C678   H682    1.084   .     S
C678   C686    1.393   .     A
C679   H683    1.083   .     S
C679   C687    1.400   .     A
C679   C692    1.397   .     A
C680   H684    1.084   .     S
C680   C691    1.396   .     A
C680   C688    1.397   .     A
C685   O701    1.382   .     S
C685   C689    1.416   .     A
C686   C690    1.413   .     A
C686   O706    1.382   .     S
C687   O711    1.387   .     S
C687   C690    1.412   .     A
C688   C689    1.416   .     A
C688   O716    1.385   .     S
C692   C619    1.461   1_655 S
O701   C702    1.410   .     S
C702   H705    1.113   .     S
C702   H704    1.114   .     S
C702   H703    1.109   .     S
O706   C707    1.410   .     S
C707   H708    1.109   .     S
C707   H709    1.114   .     S
C707   H710    1.113   .     S
O711   C712    1.412   .     S
C712   H713    1.115   .     S
C712   H714    1.109   .     S
C712   H715    1.111   .     S
O716   C717    1.411   .     S
C717   H720    1.112   .     S
C717   H718    1.114   .     S
C717   H719    1.109   .     S
O721   C725    1.295   .     A
O721   Cu737   1.958   .     S
O722   Cu738   1.958   .     S
O722   C726    1.293   .     A
O723   Cu737   1.960   .     S
O723   C726    1.292   .     A
O724   Cu738   1.960   .     S
O724   C725    1.294   .     A
C725   C761    1.472   .     S
C726   C762    1.465   .     S
O727   C735    1.286   .     A
O727   Cu737   1.933   .     S
O728   Cu738   1.933   .     S
O728   C736    1.286   .     A
O729   Cu737   1.933   .     S
O729   C736    1.286   .     A
O730   Cu738   1.933   .     S
O730   C735    1.286   .     A
C731   H769    1.081   .     S
C731   C765    1.407   .     A
C731   C745    1.411   .     A
C732   H770    1.081   .     S
C732   C766    1.407   .     A
C732   C746    1.411   .     A
C733   H771    1.081   .     S
C733   C767    1.407   .     A
C733   C745    1.411   .     A
C734   H772    1.081   .     S
C734   C768    1.407   .     A
C734   C746    1.411   .     A
C735   C747    1.408   .     S
C736   C748    1.408   .     S
Cu737  Cu738   2.673   .     S
Cu737  N744    2.008   .     S
Cu738  N743    2.008   .     S
H739   C765    1.081   .     S
H740   C766    1.081   .     S
H741   C767    1.081   .     S
H742   C768    1.081   .     S
N743   C765    1.364   .     A
N743   C767    1.364   .     A
N744   C768    1.363   .     A
N744   C766    1.364   .     A
C746   C601    1.516   1_565 S
C748   C171    1.190   1_556 S
C749   C763    1.396   .     A
C749   H753    1.084   .     S
C749   C757    1.393   .     A
C750   C764    1.397   .     A
C750   H754    1.084   .     S
C750   C758    1.393   .     A
C751   H755    1.083   .     S
C751   C759    1.400   .     A
C751   C764    1.397   .     A
C752   H756    1.084   .     S
C752   C763    1.396   .     A
C752   C760    1.397   .     A
C757   O773    1.382   .     S
C757   C761    1.416   .     A
C758   C762    1.413   .     A
C758   O778    1.382   .     S
C759   O783    1.387   .     S
C759   C762    1.412   .     A
C760   C761    1.416   .     A
C760   O788    1.385   .     S
C763   C836    1.461   1_455 S
C764   C835    1.461   .     S
O773   C774    1.410   .     S
C774   H777    1.113   .     S
C774   H776    1.114   .     S
C774   H775    1.109   .     S
O778   C779    1.410   .     S
C779   H780    1.109   .     S
C779   H781    1.114   .     S
C779   H782    1.113   .     S
O783   C784    1.412   .     S
C784   H785    1.115   .     S
C784   H786    1.109   .     S
C784   H787    1.111   .     S
O788   C789    1.411   .     S
C789   H792    1.112   .     S
C789   H790    1.114   .     S
C789   H791    1.109   .     S
O793   C797    1.295   .     A
O793   Cu809   1.958   .     S
O794   Cu810   1.958   .     S
O794   C798    1.293   .     A
O795   Cu809   1.960   .     S
O795   C798    1.292   .     A
O796   Cu810   1.960   .     S
O796   C797    1.294   .     A
C797   C833    1.472   .     S
C798   C834    1.465   .     S
O799   C807    1.286   .     A
O799   Cu809   1.933   .     S
O800   Cu810   1.933   .     S
O800   C808    1.286   .     A
O801   Cu809   1.933   .     S
O801   C808    1.286   .     A
O802   Cu810   1.933   .     S
O802   C807    1.286   .     A
C803   H841    1.081   .     S
C803   C837    1.407   .     A
C803   C817    1.411   .     A
C804   H842    1.081   .     S
C804   C838    1.407   .     A
C804   C818    1.411   .     A
C805   H843    1.081   .     S
C805   C839    1.407   .     A
C805   C817    1.411   .     A
C806   H844    1.081   .     S
C806   C840    1.407   .     A
C806   C818    1.411   .     A
C807   C819    1.408   .     S
C808   C820    1.408   .     S
Cu809  Cu810   2.673   .     S
Cu809  N816    2.008   .     S
Cu810  N815    2.008   .     S
H811   C837    1.081   .     S
H812   C838    1.081   .     S
H813   C839    1.081   .     S
H814   C840    1.081   .     S
N815   C837    1.364   .     A
N815   C839    1.364   .     A
N816   C840    1.363   .     A
N816   C838    1.364   .     A
C818   C673    1.516   1_565 S
C820   C243    1.190   1_556 S
C821   C835    1.396   .     A
C821   H825    1.084   .     S
C821   C829    1.393   .     A
C822   C836    1.397   .     A
C822   H826    1.084   .     S
C822   C830    1.393   .     A
C823   H827    1.083   .     S
C823   C831    1.400   .     A
C823   C836    1.397   .     A
C824   H828    1.084   .     S
C824   C835    1.396   .     A
C824   C832    1.397   .     A
C829   O845    1.382   .     S
C829   C833    1.416   .     A
C830   C834    1.413   .     A
C830   O850    1.382   .     S
C831   O855    1.387   .     S
C831   C834    1.412   .     A
C832   C833    1.416   .     A
C832   O860    1.385   .     S
C836   C763    1.461   1_655 S
O845   C846    1.410   .     S
C846   H849    1.113   .     S
C846   H848    1.114   .     S
C846   H847    1.109   .     S
O850   C851    1.410   .     S
C851   H852    1.109   .     S
C851   H853    1.114   .     S
C851   H854    1.113   .     S
O855   C856    1.412   .     S
C856   H857    1.115   .     S
C856   H858    1.109   .     S
C856   H859    1.111   .     S
O860   C861    1.411   .     S
C861   H864    1.112   .     S
C861   H862    1.114   .     S
C861   H863    1.109   .     S
